# generated using pymatgen
data_Cu3H32C36N12O13
_symmetry_space_group_name_H-M   'P 1'
_cell_length_a   10.15740189
_cell_length_b   14.28159120
_cell_length_c   18.27453286
_cell_angle_alpha   73.89622748
_cell_angle_beta   76.90916470
_cell_angle_gamma   76.50772930
_symmetry_Int_Tables_number   1
_chemical_formula_structural   Cu3H32C36N12O13
_chemical_formula_sum   'Cu6 H64 C72 N24 O26'
_cell_volume   2439.24445379
_cell_formula_units_Z   2
loop_
 _symmetry_equiv_pos_site_id
 _symmetry_equiv_pos_as_xyz
  1  'x, y, z'
loop_
 _atom_site_type_symbol
 _atom_site_label
 _atom_site_symmetry_multiplicity
 _atom_site_fract_x
 _atom_site_fract_y
 _atom_site_fract_z
 _atom_site_occupancy
 _atom_site_pbe_bader_charge
 _atom_site_pbe_bader_spin_density
 _atom_site_pbe_cm5_charge
 _atom_site_pbe_ddec_charge
 _atom_site_pbe_ddec_spin_density
 _atom_site_pbe_ddec_sum_bond_order
 _atom_site_pbe_magmom
Cu  Cu0  1  0.92199196  0.42103305  0.96059757  1  1.096744  0.588302  0.743929  0.801961  0.759673  2.270177  0.586
Cu  Cu1  1  0.07793525  0.57891553  0.03940087  1  1.096219  -0.588304  0.743881  0.801869  -0.759637  2.270419  -0.586
Cu  Cu2  1  0.61228695  0.99106249  0.74061603  1  1.084724  -0.578961  0.748776  0.808339  -0.75844  2.208489  -0.578
Cu  Cu3  1  0.38776190  0.00894187  0.25938297  1  1.085534  0.578991  0.748828  0.808387  0.758473  2.208624  0.578
Cu  Cu4  1  0.09543415  0.57951748  0.55109056  1  1.106241  0.595456  0.748662  0.827974  0.769619  2.264805  0.592
Cu  Cu5  1  0.90457355  0.42051714  0.44891056  1  1.106311  -0.595457  0.748753  0.827959  -0.769636  2.264865  -0.592
H  H6  1  0.72861922  0.17367144  0.19167653  1  0.542315  0.000539  0.303999  0.283774  0.000412  1.005627  0.001
H  H7  1  0.27140641  0.82627260  0.80834664  1  0.542692  -0.000539  0.30389  0.283785  -0.000412  1.005433  -0.001
H  H8  1  0.05591652  0.67496495  0.71572893  1  0.564522  0.000522  0.305306  0.289561  0.000376  1.007937  0.001
H  H9  1  0.94410595  0.32496448  0.28428933  1  0.564144  -0.000522  0.305234  0.289669  -0.000376  1.007921  -0.001
H  H10  1  0.68659492  0.33966802  0.08968746  1  0.150175  0.000419  0.141079  0.112119  0.000131  0.977684  0.0
H  H11  1  0.31336770  0.66025589  0.91032100  1  0.149104  -0.000418  0.141097  0.112251  -0.000131  0.977841  0.0
H  H12  1  0.98471438  0.09432062  0.17421454  1  0.128708  0.001059  0.110641  0.10439  0.000576  1.048554  0.001
H  H13  1  0.01529445  0.90566104  0.82580911  1  0.12937  -0.001058  0.110613  0.104359  -0.000575  1.048768  -0.001
H  H14  1  0.10937944  0.22423154  0.04630698  1  0.126371  0.000666  0.11129  0.107584  0.000273  1.039908  0.001
H  H15  1  0.89061402  0.77576375  0.95370483  1  0.125933  -0.000666  0.111308  0.107622  -0.000273  1.040004  -0.001
H  H16  1  0.13868673  0.51798364  0.81238479  1  0.137754  0.000481  0.138227  0.10525  0.00015  0.98526  0.0
H  H17  1  0.86126066  0.48192718  0.18764563  1  0.13821  -0.000481  0.138109  0.105304  -0.00015  0.985069  0.0
H  H18  1  0.79979927  0.74782915  0.76182636  1  0.153982  0.000867  0.113899  0.122324  0.000332  1.054378  0.0
H  H19  1  0.20021503  0.25210910  0.23813857  1  0.154053  -0.000867  0.113897  0.12247  -0.000333  1.054132  0.0
H  H20  1  0.72037447  0.61150367  0.89761599  1  0.111278  0.000793  0.119832  0.121754  0.00034  0.997802  0.001
H  H21  1  0.27954079  0.38845202  0.10233811  1  0.110537  -0.000793  0.119861  0.121888  -0.000341  0.997569  -0.001
H  H22  1  0.27373483  0.27141554  0.85921485  1  0.091705  0.00029  0.105927  0.112754  0.000281  1.030354  0.0
H  H23  1  0.72628288  0.72855105  0.14076534  1  0.092088  -0.00029  0.105917  0.112909  -0.000281  1.030041  0.0
H  H24  1  0.71732123  0.22159598  0.81883257  1  0.115908  -0.000321  0.10145  0.106011  -0.000289  1.032279  0.0
H  H25  1  0.28265094  0.77844153  0.18114595  1  0.115647  0.000321  0.101545  0.106067  0.000289  1.032378  0.0
H  H26  1  0.48316458  0.43753912  0.94401084  1  0.115663  0.000352  0.111467  0.126133  0.000249  0.992074  0.0
H  H27  1  0.51675336  0.56245437  0.05601856  1  0.116151  -0.000353  0.111474  0.126033  -0.000249  0.992531  0.0
H  H28  1  0.67413132  0.91620240  0.01833821  1  0.507247  -0.001095  0.350085  0.305094  -0.000664  0.881113  -0.001
H  H29  1  0.32586101  0.08380453  0.98167961  1  0.507379  0.001095  0.350022  0.304842  0.000665  0.881225  0.001
H  H30  1  0.63548309  0.08661241  0.45116313  1  0.513626  -0.001066  0.342902  0.296766  -0.000653  0.896575  -0.001
H  H31  1  0.36470878  0.91349188  0.54881078  1  0.512529  0.001069  0.34276  0.296767  0.000653  0.896698  0.001
H  H32  1  0.76072522  0.00209327  0.87761708  1  0.165436  -0.000489  0.146605  0.113055  -0.000166  0.973399  0.0
H  H33  1  0.23925018  0.99793202  0.12240456  1  0.143079  0.000493  0.146622  0.112847  0.000167  0.973345  0.0
H  H34  1  0.48531672  0.82095209  0.02795661  1  0.151128  -0.000855  0.11529  0.108119  -0.000436  1.088814  -0.001
H  H35  1  0.51464490  0.17907277  0.97205472  1  0.151745  0.000855  0.115316  0.108061  0.000436  1.088856  0.001
H  H36  1  0.45284493  0.85007031  0.87526579  1  0.143464  -0.000975  0.120311  0.11991  -0.000433  1.027796  -0.001
H  H37  1  0.54709267  0.15000483  0.12474161  1  0.14302  0.000974  0.120267  0.119814  0.000433  1.027777  0.001
H  H38  1  0.74697183  0.97255041  0.56603885  1  0.148955  -0.000524  0.143433  0.107455  -0.000186  0.978065  0.0
H  H39  1  0.25316881  0.02751771  0.43394022  1  0.150447  0.000524  0.143378  0.107466  0.000186  0.978031  0.0
H  H40  1  0.41856379  0.20130792  0.49472433  1  0.159526  -0.000939  0.120175  0.116152  -0.000479  1.057115  -0.001
H  H41  1  0.58152164  0.79870871  0.50525415  1  0.159351  0.00094  0.120246  0.116183  0.000479  1.057126  0.001
H  H42  1  0.39553529  0.15760126  0.65601488  1  0.148999  -0.000969  0.123982  0.125914  -0.000442  1.01303  -0.001
H  H43  1  0.60444617  0.84232527  0.34397712  1  0.144234  0.000969  0.123907  0.125715  0.000442  1.013238  0.001
H  H44  1  0.74363919  0.72515868  0.65123083  1  0.110152  -7.3e-05  0.105974  0.116253  -6e-05  1.026904  0.0
H  H45  1  0.25640562  0.27485860  0.34875401  1  0.110615  7.3e-05  0.106059  0.116252  6e-05  1.026691  0.0
H  H46  1  0.53570497  0.56692799  0.55847302  1  0.134596  0.00038  0.11131  0.127094  0.000278  0.994304  0.0
H  H47  1  0.46432107  0.43306311  0.44152753  1  0.134815  -0.00038  0.11132  0.12715  -0.000278  0.99465  0.0
H  H48  1  0.30020633  0.77842983  0.68844173  1  0.10282  2.4e-05  0.09871  0.098333  2.4e-05  1.042968  0.0
H  H49  1  0.69987858  0.22156469  0.31159215  1  0.102833  -2.5e-05  0.09876  0.098404  -2.4e-05  1.042742  0.0
H  H50  1  0.26871557  0.81333401  0.30444157  1  0.552602  0.000815  0.305646  0.281354  0.000823  1.011342  0.001
H  H51  1  0.73133984  0.18666192  0.69554136  1  0.553255  -0.000814  0.305791  0.281499  -0.000823  1.011497  -0.001
H  H52  1  0.97565604  0.33041196  0.80217334  1  0.565496  0.000492  0.306498  0.292835  0.000354  1.010038  0.001
H  H53  1  0.02419172  0.66961189  0.19780143  1  0.566318  -0.000491  0.306548  0.292773  -0.000354  1.010231  -0.001
H  H54  1  0.31677452  0.69710873  0.43468139  1  0.155077  0.000288  0.13694  0.105798  4.7e-05  0.995508  0.0
H  H55  1  0.68326250  0.30295325  0.56531458  1  0.159307  -0.000287  0.136935  0.105687  -4.7e-05  0.99553  0.0
H  H56  1  0.01865345  0.82488637  0.28905619  1  0.10345  0.001101  0.124406  0.123364  0.000559  0.99645  0.0
H  H57  1  0.98144786  0.17507840  0.71090287  1  0.103028  -0.001102  0.124408  0.123531  -0.000559  0.996197  0.0
H  H58  1  0.90333700  0.70535756  0.42563931  1  0.14201  0.000851  0.116212  0.113691  0.000364  1.026185  0.001
H  H59  1  0.09673162  0.29462773  0.57432666  1  0.142864  -0.000851  0.116095  0.113443  -0.000364  1.026246  -0.001
H  H60  1  0.89422820  0.49175293  0.70849008  1  0.145553  0.000403  0.139146  0.109173  0.000115  0.979574  0.0
H  H61  1  0.10565094  0.50826494  0.29145751  1  0.145728  -0.000403  0.139156  0.109135  -0.000114  0.979759  0.0
H  H62  1  0.22884056  0.25575539  0.75256123  1  0.156812  0.000994  0.116261  0.123622  0.000491  1.04717  0.001
H  H63  1  0.77102439  0.74426885  0.24745302  1  0.155934  -0.000993  0.116159  0.123565  -0.00049  1.047122  -0.001
H  H64  1  0.30562645  0.39260346  0.61468045  1  0.129735  0.000788  0.119263  0.121164  0.000343  0.999495  0.001
H  H65  1  0.69431454  0.60743605  0.38536324  1  0.129519  -0.000788  0.119226  0.121242  -0.000343  0.999341  -0.001
H  H66  1  0.93338354  0.01864100  0.67088945  1  0.588121  0.000122  0.307066  0.377723  4.3e-05  0.929952  0.0
H  H67  1  0.06663063  0.98135089  0.32913753  1  0.588076  -0.000122  0.307096  0.377854  -4.3e-05  0.929764  0.0
H  H68  1  0.93677378  0.90527533  0.70212227  1  0.611782  0.000115  0.321565  0.405163  5.7e-05  0.882656  0.0
H  H69  1  0.06317669  0.09473220  0.29795900  1  0.610736  -0.000116  0.321628  0.405442  -5.7e-05  0.882359  0.0
C  C70  1  0.78430320  0.28998169  0.09475384  1  0.990933  -0.001512  0.141995  0.153628  -0.000412  3.905148  0.0
C  C71  1  0.21567045  0.70995395  0.90525643  1  0.991308  0.001512  0.141668  0.153482  0.000411  3.904848  0.0
C  C72  1  0.94247455  0.16317966  0.13720652  1  0.306131  0.003727  -0.016815  -0.079077  0.002515  3.987873  0.003
C  C73  1  0.05752030  0.83679402  0.86281329  1  0.306651  -0.003726  -0.016959  -0.079092  -0.002516  3.987951  -0.003
C  C74  1  0.00312539  0.22719292  0.07444261  1  0.388499  0.00093  -0.009303  -0.039184  0.00127  4.009061  0.001
C  C75  1  0.99685963  0.77278018  0.92557247  1  0.388048  -0.00093  -0.00933  -0.039021  -0.001267  4.009556  -0.001
C  C76  1  0.03601968  0.56162078  0.81859531  1  0.996905  -0.001157  0.141338  0.155236  -8.2e-05  3.934667  0.0
C  C77  1  0.96394311  0.43830235  0.18141493  1  0.996948  0.001152  0.141322  0.155068  8.4e-05  3.934926  0.0
C  C78  1  0.85813866  0.68062189  0.79274983  1  0.290463  0.003249  -0.009212  -0.067554  0.002205  3.953267  0.002
C  C79  1  0.14186196  0.31931395  0.20722324  1  0.290814  -0.00325  -0.009122  -0.067522  -0.002206  3.952752  -0.002
C  C80  1  0.81914219  0.61326150  0.85982514  1  0.423355  0.000777  -0.007273  -0.032575  0.001176  3.985117  0.001
C  C81  1  0.18080626  0.38667745  0.14014587  1  0.425462  -0.000773  -0.007357  -0.032798  -0.001177  3.984665  -0.001
C  C82  1  0.22694388  0.41338052  0.93778540  1  1.587087  -0.000537  0.20382  0.566687  0.000747  4.239324  -0.002
C  C83  1  0.77300042  0.58658336  0.06221887  1  1.587647  0.000544  0.203914  0.567128  -0.000746  4.239486  0.002
C  C84  1  0.36441779  0.36177801  0.90285712  1  -0.034704  0.007828  -0.019603  -0.034725  0.005408  3.975607  0.006
C  C85  1  0.63551131  0.63819871  0.09713710  1  -0.035468  -0.007844  -0.019525  -0.034912  -0.005418  3.975952  -0.006
C  C86  1  0.36925740  0.29004552  0.86325742  1  0.005324  -0.001813  -0.081954  -0.115371  -0.001142  3.958891  -0.002
C  C87  1  0.63072232  0.70995155  0.13671627  1  0.005378  0.001813  -0.082  -0.115492  0.001143  3.958464  0.002
C  C88  1  0.49542366  0.24037915  0.83108938  1  -0.097033  -0.007526  -0.03059  -0.055818  -0.005418  4.019056  -0.006
C  C89  1  0.50456743  0.75965647  0.16887576  1  -0.096286  0.007517  -0.030747  -0.056118  0.005414  4.019414  0.006
C  C90  1  0.49595447  0.15922581  0.79389193  1  1.527272  0.000425  0.196148  0.555155  -0.000652  4.222859  0.002
C  C91  1  0.50409449  0.84080208  0.20605417  1  1.52811  -0.000417  0.196432  0.5553  0.000654  4.22317  -0.002
C  C92  1  0.61749955  0.26143659  0.84067762  1  -0.075018  8.5e-05  -0.082848  -0.114528  -3.1e-05  3.948535  0.0
C  C93  1  0.38248101  0.73859573  0.15930094  1  -0.075577  -8.8e-05  -0.082972  -0.114683  3e-05  3.94832  0.0
C  C94  1  0.61380631  0.33111662  0.88225639  1  -0.043284  0.010322  -0.020868  -0.032591  0.007166  3.968137  0.008
C  C95  1  0.38615491  0.66888706  0.11774719  1  -0.042864  -0.010322  -0.02065  -0.032271  -0.007166  3.967373  -0.008
C  C96  1  0.74748054  0.34548493  0.89684193  1  1.60012  -0.000916  0.197852  0.561339  0.00044  4.239096  -0.002
C  C97  1  0.25244130  0.65452842  0.10318905  1  1.601985  0.000909  0.198044  0.561535  -0.000443  4.239112  0.002
C  C98  1  0.48689773  0.38277145  0.91196710  1  -0.006661  0.000723  -0.068335  -0.089131  0.00054  3.892475  0.001
C  C99  1  0.51303380  0.61721821  0.08803900  1  -0.006688  -0.000719  -0.06856  -0.088979  -0.000539  3.893824  -0.001
C  C100  1  0.68280292  0.95596064  0.89679981  1  0.960138  0.001538  0.146799  0.150051  0.000325  3.917381  0.0
C  C101  1  0.31717649  0.04406928  0.10321385  1  0.982541  -0.001538  0.146802  0.150476  -0.000321  3.917144  0.0
C  C102  1  0.53716867  0.86146692  0.97426816  1  0.275437  -0.003332  0.000273  -0.050559  -0.002239  3.955609  -0.002
C  C103  1  0.46278357  0.13857502  0.02573922  1  0.275151  0.00333  0.000377  -0.050352  0.002239  3.955579  0.002
C  C104  1  0.52272871  0.87548494  0.89902344  1  0.431238  -0.000573  -0.000223  -0.032858  -0.00093  3.973849  -0.001
C  C105  1  0.47723228  0.12456572  0.10098771  1  0.430426  0.000576  -0.000146  -0.032585  0.000927  3.973234  0.001
C  C106  1  0.65575622  0.02953962  0.56915509  1  0.987486  0.002051  0.141592  0.13949  0.000769  3.942942  0.001
C  C107  1  0.34437038  0.97049671  0.43082820  1  0.985482  -0.002045  0.141435  0.139593  -0.000768  3.943379  -0.001
C  C108  1  0.48146771  0.14841226  0.53384152  1  0.248578  -0.003313  -0.000449  -0.053531  -0.002192  3.950624  -0.002
C  C109  1  0.51862183  0.85159622  0.46613810  1  0.249443  0.003314  -0.00087  -0.053722  0.002193  3.951065  0.002
C  C110  1  0.47205568  0.12712268  0.61268085  1  0.447964  -0.000657  0.002144  -0.032276  -0.001027  3.962308  -0.001
C  C111  1  0.52798752  0.87284219  0.38730648  1  0.452906  0.000656  0.002207  -0.0322  0.001027  3.96219  0.001
C  C112  1  0.51510433  0.83809068  0.71734059  1  1.551422  0.000512  0.20137  0.563274  -0.000819  4.212838  0.003
C  C113  1  0.48498811  0.16188239  0.28269504  1  1.553867  -0.000509  0.201262  0.563118  0.000822  4.213072  -0.003
C  C114  1  0.52140433  0.75902389  0.67650394  1  -0.044466  -0.008212  -0.03081  -0.055153  -0.005877  4.01324  -0.007
C  C115  1  0.47865936  0.24097383  0.32349406  1  -0.045026  0.008205  -0.030892  -0.055281  0.005872  4.014201  0.007
C  C116  1  0.64792451  0.70905750  0.64488746  1  -0.041382  -0.000839  -0.079517  -0.105573  -0.000622  3.933586  -0.001
C  C117  1  0.35213267  0.29095449  0.35510135  1  -0.041856  0.000839  -0.079566  -0.105583  0.000622  3.9335  0.001
C  C118  1  0.65310661  0.63941325  0.60307164  1  0.007285  0.010046  -0.020238  -0.035357  0.007031  3.961106  0.008
C  C119  1  0.34694171  0.36060992  0.39691325  1  0.006121  -0.010055  -0.020289  -0.035557  -0.007033  3.961256  -0.008
C  C120  1  0.79074325  0.59086459  0.56506596  1  1.569528  -0.000506  0.202796  0.575055  0.00094  4.233201  -0.002
C  C121  1  0.20928109  0.40915078  0.43490912  1  1.569864  0.000511  0.202948  0.574852  -0.000941  4.233588  0.002
C  C122  1  0.53091074  0.61984215  0.59238960  1  -0.093002  0.001071  -0.069546  -0.092655  0.000771  3.903838  0.001
C  C123  1  0.46910679  0.38018588  0.40760893  1  -0.092701  -0.001067  -0.069648  -0.092413  -0.00077  3.904663  -0.001
C  C124  1  0.40382165  0.67074108  0.62261720  1  -0.010337  0.009449  -0.023725  -0.038477  0.0066  3.981904  0.007
C  C125  1  0.59618225  0.32929647  0.37738489  1  -0.011126  -0.009458  -0.023649  -0.038566  -0.006607  3.981474  -0.007
C  C126  1  0.27108746  0.65786162  0.60623873  1  1.568076  -0.001191  0.196641  0.560603  0.000204  4.231453  -0.003
C  C127  1  0.72892983  0.34215773  0.39378128  1  1.568288  0.001196  0.196778  0.560497  -0.000202  4.231442  0.003
C  C128  1  0.39970246  0.73915550  0.66537586  1  -0.075049  -0.000835  -0.086405  -0.122856  -0.000538  3.968197  -0.001
C  C129  1  0.60034410  0.26085665  0.33463553  1  -0.074525  0.000837  -0.086424  -0.122882  0.000537  3.968056  0.001
C  C130  1  0.21911905  0.71673663  0.41471016  1  0.998568  -0.001866  0.140358  0.153746  -0.00068  3.909901  -0.001
C  C131  1  0.78092066  0.28329601  0.58527988  1  0.995336  0.001868  0.140675  0.154178  0.00068  3.909608  0.001
C  C132  1  0.06072418  0.78370261  0.34062340  1  0.351009  0.003097  -0.013397  -0.0848  0.002154  3.983178  0.002
C  C133  1  0.93933764  0.21629644  0.65935267  1  0.350607  -0.003097  -0.013763  -0.085426  -0.002155  3.983138  -0.002
C  C134  1  0.00499557  0.72408597  0.40822161  1  0.346773  0.000855  -0.005287  -0.035429  0.001151  4.003784  0.001
C  C135  1  0.99506093  0.27591835  0.59175075  1  0.347321  -0.000852  -0.004888  -0.034693  -0.001152  4.003307  -0.001
C  C136  1  0.99563238  0.44643948  0.70086781  1  1.007048  -0.001709  0.139598  0.147918  -0.000529  3.939123  0.0
C  C137  1  0.00426653  0.55357765  0.29910603  1  1.010223  0.001717  0.13973  0.148183  0.000531  3.939269  0.0
C  C138  1  0.17215297  0.32479120  0.72273004  1  0.318855  0.003676  -0.007619  -0.066077  0.002495  3.953683  0.003
C  C139  1  0.82773457  0.67523156  0.27728235  1  0.31836  -0.003675  -0.007404  -0.065898  -0.002495  3.953208  -0.003
C  C140  1  0.20918607  0.39198946  0.65488676  1  0.357586  0.001241  -0.010508  -0.048695  0.001571  4.00954  0.001
C  C141  1  0.79074053  0.60803740  0.34513492  1  0.35751  -0.001246  -0.010715  -0.049137  -0.001571  4.009218  -0.001
N  N142  1  0.90323019  0.30555462  0.04864678  1  -1.168804  0.079459  -0.374195  -0.270169  0.053745  3.618441  0.068
N  N143  1  0.09673033  0.69439286  0.95136323  1  -1.16831  -0.079477  -0.373976  -0.270251  -0.053757  3.618992  -0.068
N  N144  1  0.80449943  0.20418489  0.14907346  1  -1.309199  0.002857  -0.380953  -0.206312  0.001722  3.686098  0.002
N  N145  1  0.19549438  0.79576614  0.85093897  1  -1.30974  -0.00286  -0.380646  -0.206457  -0.001723  3.685425  -0.002
N  N146  1  0.93135658  0.53935746  0.87526706  1  -1.195497  0.079417  -0.382696  -0.309207  0.053735  3.66769  0.067
N  N147  1  0.06858420  0.46057073  0.12472126  1  -1.195723  -0.079407  -0.382278  -0.308656  -0.053733  3.667038  -0.067
N  N148  1  0.99522857  0.64666970  0.76787518  1  -1.321136  0.002594  -0.380712  -0.20863  0.001504  3.685732  0.002
N  N149  1  0.00477340  0.35324698  0.23212510  1  -1.322264  -0.002593  -0.38084  -0.209055  -0.001504  3.685731  -0.002
N  N150  1  0.61381968  0.93431944  0.85160391  1  -1.184276  -0.076915  -0.375957  -0.28604  -0.052293  3.640635  -0.066
N  N151  1  0.38615513  0.06572097  0.14840381  1  -1.184423  0.07693  -0.375878  -0.286012  0.052301  3.640217  0.066
N  N152  1  0.63873556  0.91240383  0.97166917  1  -1.271237  -0.00248  -0.371926  -0.201618  -0.001496  3.690135  -0.002
N  N153  1  0.36123563  0.08762224  0.02835117  1  -1.270288  0.002482  -0.372032  -0.20185  0.001497  3.690898  0.002
N  N154  1  0.58117964  0.05316699  0.63355554  1  -1.189298  -0.073818  -0.375268  -0.290898  -0.05037  3.657509  -0.064
N  N155  1  0.41889300  0.94681252  0.36643355  1  -1.190219  0.073834  -0.375026  -0.290667  0.050385  3.657202  0.064
N  N156  1  0.59786406  0.08629351  0.50762677  1  -1.298792  -0.002238  -0.376977  -0.20489  -0.00135  3.711464  -0.002
N  N157  1  0.40228772  0.91375922  0.49234804  1  -1.297481  0.002238  -0.376526  -0.204977  0.00135  3.712711  0.002
N  N158  1  0.10492349  0.68307713  0.45377396  1  -1.195849  0.074368  -0.374945  -0.284052  0.050498  3.623663  0.063
N  N159  1  0.89511598  0.31694899  0.54621194  1  -1.197104  -0.074383  -0.375379  -0.284613  -0.050503  3.624276  -0.064
N  N160  1  0.19581035  0.77807959  0.34610236  1  -1.305454  0.003422  -0.383337  -0.20661  0.002083  3.690848  0.003
N  N161  1  0.80423766  0.22193694  0.65388280  1  -1.306289  -0.003424  -0.383336  -0.206597  -0.002084  3.690497  -0.003
N  N162  1  0.09758362  0.46729465  0.64193428  1  -1.196385  0.082573  -0.383701  -0.303914  0.05576  3.66489  0.07
N  N163  1  0.90235298  0.53273419  0.35806774  1  -1.197265  -0.082555  -0.383973  -0.304081  -0.05575  3.664947  -0.07
N  N164  1  0.03764731  0.36100420  0.75072225  1  -1.319039  0.002802  -0.376828  -0.207659  0.001657  3.689733  0.002
N  N165  1  0.96221923  0.63901282  0.24925822  1  -1.320695  -0.002802  -0.376626  -0.207447  -0.001657  3.689705  -0.002
O  O166  1  0.12532154  0.37214889  0.94108205  1  -1.136028  0.093859  -0.325929  -0.558826  0.061409  2.399447  0.086
O  O167  1  0.87462244  0.62782950  0.05890348  1  -1.136112  -0.093868  -0.325956  -0.559152  -0.061422  2.399798  -0.086
O  O168  1  0.22402059  0.49009397  0.95922437  1  -1.166277  -0.014044  -0.314208  -0.566943  -0.009775  2.355593  -0.013
O  O169  1  0.77589510  0.50986573  0.04080058  1  -1.166891  0.013994  -0.314265  -0.567018  0.00974  2.355571  0.013
O  O170  1  0.61591177  0.12266895  0.75790534  1  -1.131271  -0.108574  -0.333255  -0.567121  -0.071219  2.39821  -0.098
O  O171  1  0.38416650  0.87736870  0.24205993  1  -1.132312  0.108584  -0.333373  -0.567126  0.071222  2.398323  0.098
O  O172  1  0.38869319  0.12733980  0.79987669  1  -1.165857  -0.000833  -0.324914  -0.549961  -0.000297  2.114042  -0.001
O  O173  1  0.61134595  0.87269938  0.20006175  1  -1.166547  0.000823  -0.324991  -0.54999  0.00029  2.114234  0.001
O  O174  1  0.73756338  0.41136338  0.93393689  1  -1.110926  0.08822  -0.316313  -0.532062  0.057422  2.324947  0.08
O  O175  1  0.26234136  0.58862425  0.06611990  1  -1.112692  -0.088136  -0.316248  -0.532019  -0.057374  2.32483  -0.08
O  O176  1  0.85731672  0.29110474  0.87293095  1  -1.20316  0.001962  -0.34275  -0.583117  0.001042  2.179914  0.002
O  O177  1  0.14263291  0.70893470  0.12708764  1  -1.203329  -0.001961  -0.343069  -0.583446  -0.001041  2.180077  -0.002
O  O178  1  0.88670520  0.96970618  0.71008228  1  -1.195368  0.001395  -0.571168  -0.760532  0.000938  1.974424  0.0
O  O179  1  0.11334910  0.03032010  0.29000691  1  -1.194332  -0.001395  -0.571318  -0.761035  -0.000938  1.973971  0.0
O  O180  1  0.63178642  0.86045986  0.71660285  1  -1.111497  -0.115719  -0.325192  -0.545707  -0.075437  2.355613  -0.105
O  O181  1  0.36833084  0.13952969  0.28339368  1  -1.112107  0.115662  -0.325447  -0.545689  0.075393  2.355965  0.105
O  O182  1  0.40100354  0.88098659  0.74748272  1  -1.19428  -0.001488  -0.327346  -0.568476  -0.000635  2.183406  -0.002
O  O183  1  0.59909012  0.11894341  0.25259206  1  -1.195506  0.001485  -0.327198  -0.56847  0.000633  2.183076  0.002
O  O184  1  0.89358824  0.61846620  0.57793570  1  -1.129289  0.098354  -0.33332  -0.570267  0.064107  2.411066  0.09
O  O185  1  0.10643186  0.38158651  0.42202200  1  -1.129534  -0.098311  -0.333312  -0.57  -0.064072  2.411779  -0.09
O  O186  1  0.79213326  0.53270285  0.52474339  1  -1.167251  -0.004751  -0.319886  -0.57375  -0.003728  2.300617  -0.005
O  O187  1  0.20788605  0.46729028  0.47526412  1  -1.167038  0.004737  -0.320065  -0.573844  0.003718  2.29995  0.005
O  O188  1  0.28261613  0.59589180  0.56506451  1  -1.109968  0.094498  -0.314231  -0.528067  0.061858  2.310887  0.086
O  O189  1  0.71736386  0.40412300  0.43496306  1  -1.10969  -0.094539  -0.314363  -0.52813  -0.061882  2.311327  -0.086
O  O190  1  0.15965496  0.70944220  0.63165333  1  -1.208501  0.001542  -0.348333  -0.600285  0.000733  2.180241  0.002
O  O191  1  0.84036605  0.29056115  0.36838587  1  -1.20878  -0.001549  -0.348228  -0.600069  -0.000737  2.180171  -0.002
