# generated using pymatgen
data_Cd5H28C44(N5O9)2
_symmetry_space_group_name_H-M   'P 1'
_cell_length_a   10.11378617
_cell_length_b   10.82182688
_cell_length_c   14.50718730
_cell_angle_alpha   97.73704536
_cell_angle_beta   95.55537520
_cell_angle_gamma   110.17324541
_symmetry_Int_Tables_number   1
_chemical_formula_structural   Cd5H28C44(N5O9)2
_chemical_formula_sum   'Cd5 H28 C44 N10 O18'
_cell_volume   1459.21611166
_cell_formula_units_Z   1
loop_
 _symmetry_equiv_pos_site_id
 _symmetry_equiv_pos_as_xyz
  1  'x, y, z'
loop_
 _atom_site_type_symbol
 _atom_site_label
 _atom_site_symmetry_multiplicity
 _atom_site_fract_x
 _atom_site_fract_y
 _atom_site_fract_z
 _atom_site_occupancy
 _atom_site_pbe_bader_charge
 _atom_site_pbe_bader_spin_density
 _atom_site_pbe_cm5_charge
 _atom_site_pbe_ddec_charge
 _atom_site_pbe_ddec_spin_density
 _atom_site_pbe_ddec_sum_bond_order
 _atom_site_pbe_magmom
Cd  Cd0  1  0.00000148  0.50000361  0.00000207  1  1.355764  0  0.80169  0.988013  0  2.245557  0
Cd  Cd1  1  0.01844453  0.27233623  0.18043997  1  1.310141  0  0.798376  0.914326  0  2.157028  0
Cd  Cd2  1  0.98155588  0.72766311  0.81956027  1  1.310143  0  0.798384  0.914348  0  2.156961  0
Cd  Cd3  1  0.89596701  0.36502603  0.40412366  1  1.308075  0  0.773251  0.949329  0  2.168467  0
Cd  Cd4  1  0.10403240  0.63497332  0.59587583  1  1.308068  0  0.773267  0.949375  0  2.168443  0
H  H5  1  0.19416047  0.92864320  0.34334880  1  0.102773  0  0.114719  0.124002  0  0.997175  0
H  H6  1  0.80583993  0.07135614  0.65665214  1  0.102861  0  0.11473  0.124001  0  0.997172  0
H  H7  1  0.19193580  0.15263555  0.31635996  1  0.149673  0  0.122933  0.105797  0  1.003583  0
H  H8  1  0.80806422  0.84736279  0.68364015  1  0.149659  0  0.122933  0.105819  0  1.003547  0
H  H9  1  0.91655342  0.98463405  0.06545677  1  0.140008  0  0.119122  0.094737  0  1.027235  0
H  H10  1  0.08344738  0.01536629  0.93454429  1  0.140019  0  0.119126  0.094769  0  1.027241  0
H  H11  1  0.91245130  0.75467438  0.07750107  1  0.148495  0  0.109238  0.125427  0  1.0549  0
H  H12  1  0.08754751  0.24532596  0.92249986  1  0.148493  0  0.109228  0.125435  0  1.054877  0
H  H13  1  0.52867869  0.23069627  0.93071819  1  0.097174  0  0.10146  0.106784  0  1.014796  0
H  H14  1  0.47132112  0.76930407  0.06928211  1  0.097201  0  0.101468  0.10679  0  1.014781  0
H  H15  1  0.31873337  0.05646638  0.82291457  1  0.077502  0  0.100465  0.10447  0  1.006257  0
H  H16  1  0.68126683  0.94353497  0.17708517  1  0.077499  0  0.100442  0.10442  0  1.006291  0
H  H17  1  0.54167443  0.78169726  0.81286993  1  0.103386  0  0.103041  0.109879  0  1.019585  0
H  H18  1  0.45832676  0.21830408  0.18712989  1  0.103396  0  0.103056  0.109918  0  1.019552  0
H  H19  1  0.74121593  0.94850940  0.92989065  1  0.033076  0  0.097915  0.096699  0  1.02715  0
H  H20  1  0.25878388  0.05149095  0.07010828  1  0.033063  0  0.097915  0.096691  0  1.027167  0
H  H21  1  0.34292166  0.50824177  0.62038430  1  0.104731  0  0.100135  0.108638  0  1.024475  0
H  H22  1  0.65707875  0.49175758  0.37961457  1  0.104708  0  0.100155  0.108673  0  1.024416  0
H  H23  1  0.39496017  0.41879458  0.33044703  1  0.142557  0  0.103443  0.120233  0  1.031275  0
H  H24  1  0.60503964  0.58120576  0.66955259  1  0.142572  0  0.103455  0.120276  0  1.031223  0
H  H25  1  0.53505777  0.46031075  0.16418696  1  0.107349  0  0.109612  0.117657  0  0.995212  0
H  H26  1  0.46494165  0.53968860  0.83581184  1  0.107331  0  0.109599  0.117625  0  0.99521  0
H  H27  1  0.25649932  0.45899081  0.92003331  1  0.064634  0  0.098358  0.094903  0  1.04439  0
H  H28  1  0.74350109  0.54100853  0.07996624  1  0.064644  0  0.098348  0.094877  0  1.044403  0
H  H29  1  0.90219950  0.24744031  0.56686859  1  0.638883  0  0.281086  0.338384  0  1.02583  0
H  H30  1  0.09779892  0.75255903  0.43313221  1  0.638841  0  0.281093  0.338389  0  1.025827  0
H  H31  1  0.87448277  0.13366488  0.47697144  1  0.59569  0  0.324934  0.403244  0  0.868026  0
H  H32  1  0.12551863  0.86633445  0.52302956  1  0.5957  0  0.324945  0.403262  0  0.868014  0
C  C33  1  0.03126702  0.68889382  0.23244220  1  0.953642  0  0.233507  0.25473  0  4.003978  0
C  C34  1  0.96873339  0.31110552  0.76755873  1  0.95361  0  0.233539  0.254786  0  4.004038  0
C  C35  1  0.04840127  0.82258667  0.21395699  1  0.005304  0  0.017902  0.073046  0  4.000494  0
C  C36  1  0.95159716  0.17741268  0.78604311  1  0.005321  0  0.017887  0.073001  0  4.000588  0
C  C37  1  0.13085424  0.93654406  0.28079831  1  -0.030078  0  -0.075062  -0.16219  0  3.93072  0
C  C38  1  0.86914616  0.06345527  0.71920262  1  -0.030148  0  -0.07505  -0.162144  0  3.930735  0
C  C39  1  0.13114502  0.06094067  0.26627596  1  0.467441  0  0.05348  0.104471  0  3.925733  0
C  C40  1  0.86885539  0.93905866  0.73372497  1  0.467468  0  0.053448  0.104441  0  3.925668  0
C  C41  1  0.97812390  0.96689782  0.12477952  1  0.494978  0  0.052231  0.097235  0  3.928796  0
C  C42  1  0.02187552  0.03310152  0.87522135  1  0.494906  0  0.052244  0.097242  0  3.928804  0
C  C43  1  0.97431373  0.83936412  0.13293192  1  -0.016961  0  -0.076937  -0.14994  0  3.907019  0
C  C44  1  0.02568470  0.16063523  0.86706887  1  -0.016942  0  -0.076942  -0.149964  0  3.907074  0
C  C45  1  0.77402054  0.20236797  0.00129701  1  1.587078  0  0.211523  0.594038  0  4.198305  0
C  C46  1  0.22598065  0.79763338  0.99870281  1  1.587076  0  0.21151  0.593998  0  4.198329  0
C  C47  1  0.64777611  0.10010580  0.93636276  1  -0.05113  0  -0.013518  -0.022424  0  3.953749  0
C  C48  1  0.35222409  0.89989554  0.06363699  1  -0.05095  0  -0.013547  -0.022448  0  3.95378  0
C  C49  1  0.52916117  0.13122700  0.90568244  1  -0.01693  0  -0.084467  -0.094061  0  3.959386  0
C  C50  1  0.47084002  0.86877434  0.09431737  1  -0.017126  0  -0.084451  -0.09404  0  3.959333  0
C  C51  1  0.41330482  0.03500965  0.84528035  1  -0.050796  0  -0.081172  -0.083632  0  3.957787  0
C  C52  1  0.58669637  0.96499170  0.15471946  1  -0.050846  0  -0.081151  -0.083555  0  3.957736  0
C  C53  1  0.41784842  0.90911902  0.81104077  1  -0.078978  0  -0.017944  -0.02622  0  3.966084  0
C  C54  1  0.58215178  0.09088234  0.18895760  1  -0.078951  0  -0.017992  -0.02632  0  3.966091  0
C  C55  1  0.53762002  0.87885149  0.84051276  1  -0.024769  0  -0.08381  -0.094693  0  3.96144  0
C  C56  1  0.46238018  0.12114986  0.15948630  1  -0.024803  0  -0.083812  -0.094707  0  3.961458  0
C  C57  1  0.64959416  0.97252984  0.90483306  1  0.053671  0  -0.088525  -0.100816  0  3.996218  0
C  C58  1  0.35040604  0.02747151  0.09516600  1  0.053682  0  -0.088494  -0.100783  0  3.996266  0
C  C59  1  0.29887321  0.80871428  0.74152385  1  1.525101  0  0.197511  0.57452  0  4.182114  0
C  C60  1  0.70112699  0.19128706  0.25847589  1  1.524996  0  0.197534  0.574569  0  4.181991  0
C  C61  1  0.19576993  0.41288504  0.44207039  1  1.52534  0  0.206807  0.588654  0  4.175513  0
C  C62  1  0.80423087  0.58711530  0.55792929  1  1.525337  0  0.206863  0.58876  0  4.17537  0
C  C63  1  0.35266102  0.45815901  0.47241856  1  -0.09827  0  -0.019272  -0.035547  0  3.977077  0
C  C64  1  0.64733978  0.54184134  0.52758043  1  -0.09828  0  -0.019245  -0.035498  0  3.977084  0
C  C65  1  0.41179812  0.50433480  0.56783304  1  0.022578  0  -0.084592  -0.088866  0  3.962489  0
C  C66  1  0.58820268  0.49566554  0.43216733  1  0.022598  0  -0.084633  -0.088979  0  3.962488  0
C  C67  1  0.44163998  0.45374685  0.40450683  1  -0.049651  0  -0.083642  -0.092015  0  3.940103  0
C  C68  1  0.55836043  0.54625249  0.59549204  1  -0.049711  0  -0.083664  -0.092118  0  3.940148  0
C  C69  1  0.25832720  0.40145844  0.09680042  1  1.525732  0  0.203951  0.577229  0  4.176934  0
C  C70  1  0.74167261  0.59854190  0.90319919  1  1.525801  0  0.203955  0.577196  0  4.176906  0
C  C71  1  0.38297150  0.45399874  0.04713091  1  -0.050418  0  -0.014421  -0.028269  0  3.966224  0
C  C72  1  0.61702733  0.54600161  0.95286726  1  -0.050145  0  -0.014416  -0.028194  0  3.966038  0
C  C73  1  0.52077224  0.47835610  0.09243259  1  -0.052437  0  -0.079821  -0.093008  0  3.954421  0
C  C74  1  0.47922756  0.52164425  0.90756702  1  -0.052426  0  -0.079796  -0.092954  0  3.954378  0
C  C75  1  0.36318162  0.47600631  0.95450910  1  0.031277  0  -0.080859  -0.08126  0  3.966118  0
C  C76  1  0.63681719  0.52399404  0.04549045  1  0.030933  0  -0.080878  -0.081276  0  3.965961  0
N  N77  1  0.00795136  0.57754715  0.16871011  1  -0.687364  0  -0.202951  -0.237675  0  3.322388  0
N  N78  1  0.99204845  0.42245319  0.83129019  1  -0.687394  0  -0.202962  -0.237737  0  3.322438  0
N  N79  1  0.98944643  0.47977980  0.21916215  1  -0.141018  0  -0.106094  -0.064539  0  3.457254  0
N  N80  1  0.01055358  0.52021854  0.78083866  1  -0.141017  0  -0.106036  -0.064428  0  3.457236  0
N  N81  1  0.99957498  0.52862992  0.30878994  1  -0.175465  0  -0.095494  -0.044043  0  3.431784  0
N  N82  1  0.00042344  0.47136942  0.69121086  1  -0.175424  0  -0.095584  -0.044151  0  3.431564  0
N  N83  1  0.02626343  0.65938800  0.31983147  1  -0.657547  0  -0.192511  -0.228273  0  3.250414  0
N  N84  1  0.97373460  0.34061034  0.68016851  1  -0.657586  0  -0.192471  -0.228246  0  3.250234  0
N  N85  1  0.05304107  0.07532344  0.19077268  1  -1.237677  0  -0.325444  -0.222584  0  3.494245  0
N  N86  1  0.94695933  0.92467590  0.80922825  1  -1.237678  0  -0.325445  -0.222623  0  3.494217  0
O  O87  1  0.79696399  0.32510788  0.99817503  1  -1.162381  0  -0.339494  -0.584964  0  2.31067  0
O  O88  1  0.20303543  0.67489146  0.00182584  1  -1.162379  0  -0.339439  -0.584897  0  2.310655  0
O  O89  1  0.84829828  0.15756227  0.05370386  1  -1.184272  0  -0.327382  -0.565511  0  2.342839  0
O  O90  1  0.15170191  0.84243907  0.94629588  1  -1.18428  0  -0.327405  -0.565528  0  2.342844  0
O  O91  1  0.17630985  0.82130962  0.72943168  1  -1.180627  0  -0.346814  -0.602052  0  2.277128  0
O  O92  1  0.82369034  0.17869173  0.27056807  1  -1.180477  0  -0.346823  -0.60207  0  2.277117  0
O  O93  1  0.32201031  0.71328452  0.69269427  1  -1.143006  0  -0.32253  -0.539511  0  2.193723  0
O  O94  1  0.67798811  0.28671483  0.30730515  1  -1.143028  0  -0.322523  -0.539496  0  2.193709  0
O  O95  1  0.12033370  0.45471073  0.49739073  1  -1.176937  0  -0.347757  -0.602356  0  2.401239  0
O  O96  1  0.87966670  0.54528861  0.50260952  1  -1.176979  0  -0.347784  -0.602405  0  2.401284  0
O  O97  1  0.13716205  0.33383605  0.36523109  1  -1.183238  0  -0.317307  -0.572928  0  2.262605  0
O  O98  1  0.86283797  0.66616229  0.63476834  1  -1.183219  0  -0.317353  -0.572997  0  2.262572  0
O  O99  1  0.13214979  0.37998022  0.05354534  1  -1.189524  0  -0.344701  -0.606004  0  2.404211  0
O  O100  1  0.86784963  0.62001912  0.94645414  1  -1.189529  0  -0.344723  -0.606006  0  2.404232  0
O  O101  1  0.27518566  0.37240574  0.17750933  1  -1.14921  0  -0.3089  -0.527468  0  2.184377  0
O  O102  1  0.72481338  0.62759261  0.82248934  1  -1.14923  0  -0.308881  -0.527455  0  2.184374  0
O  O103  1  0.84253217  0.20407319  0.50325160  1  -1.20537  0  -0.574438  -0.721605  0  2.049325  0
O  O104  1  0.15746725  0.79592616  0.49674789  1  -1.205373  0  -0.574455  -0.721632  0  2.049329  0
