# generated using pymatgen
data_VHC4O5
_symmetry_space_group_name_H-M   'P 1'
_cell_length_a   7.17757454
_cell_length_b   10.03554982
_cell_length_c   9.98093069
_cell_angle_alpha   89.95578458
_cell_angle_beta   89.97389912
_cell_angle_gamma   90.02459581
_symmetry_Int_Tables_number   1
_chemical_formula_structural   VHC4O5
_chemical_formula_sum   'V4 H4 C16 O20'
_cell_volume   718.93513459
_cell_formula_units_Z   4
loop_
 _symmetry_equiv_pos_site_id
 _symmetry_equiv_pos_as_xyz
  1  'x, y, z'
loop_
 _atom_site_type_symbol
 _atom_site_label
 _atom_site_symmetry_multiplicity
 _atom_site_fract_x
 _atom_site_fract_y
 _atom_site_fract_z
 _atom_site_occupancy
 _atom_site_pbe_cm5_charge
 _atom_site_pbe_ddec_charge
 _atom_site_pbe_ddec_spin_density
 _atom_site_pbe_ddec_sum_bond_order
 _atom_site_pbe_magmom
V  V0  1  0.49985724  0.39020024  0.10838816  1  1.202055  1.610217  -1.789369  2.621809  -1.699
V  V1  1  0.50000244  0.88923240  0.39030902  1  1.197815  1.597526  1.901165  2.6303  1.845
V  V2  1  0.50014345  0.61012218  0.89130922  1  1.201463  1.608002  1.769045  2.626245  1.705
V  V3  1  0.49999375  0.11049496  0.60984347  1  1.198243  1.597523  1.899785  2.632467  1.844
H  H4  1  0.49998226  0.66231435  0.15132692  1  0.303061  0.425582  0.001884  0.887211  0.003
H  H5  1  0.50005732  0.84704745  0.65686964  1  0.303325  0.422542  0.003177  0.890386  0.008
H  H6  1  0.49994584  0.15277454  0.34337498  1  0.303263  0.42289  0.003187  0.890002  0.008
H  H7  1  0.50002399  0.33802199  0.84846163  1  0.303416  0.425801  -0.002085  0.886852  -0.002
C  C8  1  0.50005716  0.55778205  0.58618057  1  0.129712  0.204482  0.006493  4.082425  0.005
C  C9  1  0.49998522  0.41390818  0.55850337  1  0.12579  0.197754  0.027741  4.094626  0.022
C  C10  1  0.50001691  0.05803797  0.91407791  1  0.122928  0.196718  0.02094  4.09009  0.017
C  C11  1  0.49988473  0.44189952  0.41384170  1  0.130581  0.205602  -0.009687  4.082814  -0.009
C  C12  1  0.49993370  0.08582846  0.05866589  1  0.121995  0.198952  -0.007686  4.097581  -0.01
C  C13  1  0.49995806  0.58578234  0.44154093  1  0.126476  0.199118  0.022753  4.094289  0.018
C  C14  1  0.50005597  0.94183589  0.08605346  1  0.123102  0.196577  0.027087  4.089017  0.022
C  C15  1  0.50013780  0.91409324  0.94144743  1  0.121078  0.197426  0.002823  4.099021  0.005
C  C16  1  0.89788745  0.44975896  0.05410649  1  0.119093  0.200444  -0.002035  4.075227  -0.004
C  C17  1  0.89782547  0.94740782  0.44787621  1  0.122902  0.203769  0.025806  4.068799  0.019
C  C18  1  0.10217222  0.94735409  0.44793157  1  0.122748  0.203762  0.025797  4.069397  0.019
C  C19  1  0.89803676  0.55075466  0.94576888  1  0.118832  0.199424  0.000372  4.076279  0.003
C  C20  1  0.10208539  0.55074276  0.94576316  1  0.118865  0.19976  0.000372  4.075966  0.003
C  C21  1  0.89782405  0.05254369  0.55216775  1  0.123149  0.203782  0.025854  4.06905  0.019
C  C22  1  0.10216801  0.05248996  0.55222211  1  0.123203  0.203906  0.025862  4.068881  0.019
C  C23  1  0.10197787  0.44974906  0.05409775  1  0.118674  0.199508  -0.002033  4.075727  -0.004
O  O24  1  0.49978616  0.36804934  0.31204110  1  -0.32043  -0.457189  -0.013008  2.481146  0.002
O  O25  1  0.49994774  0.68718243  0.36759275  1  -0.323329  -0.463623  0.014189  2.500132  -0.009
O  O26  1  0.50005999  0.86743607  0.18785334  1  -0.324959  -0.466463  0.012751  2.50234  -0.011
O  O27  1  0.50018361  0.63169999  0.68797612  1  -0.321734  -0.45791  0.009141  2.481869  -0.006
O  O28  1  0.50023949  0.81256276  0.86743749  1  -0.324718  -0.473146  0.004626  2.504972  -0.021
O  O29  1  0.50002340  0.31247622  0.63242551  1  -0.323006  -0.462779  0.015301  2.501704  -0.009
O  O30  1  0.49995437  0.13245869  0.81230810  1  -0.325026  -0.466733  0.010649  2.502672  -0.012
O  O31  1  0.49978468  0.18740182  0.13256862  1  -0.323769  -0.47278  -0.01014  2.501153  0.016
O  O32  1  0.77722861  0.38521245  0.11970026  1  -0.341997  -0.467905  0.011523  2.42931  0.026
O  O33  1  0.77830410  0.88175683  0.38288619  1  -0.338561  -0.462614  -0.007434  2.426098  -0.025
O  O34  1  0.22169815  0.88163923  0.38300958  1  -0.3384  -0.46274  -0.007431  2.426333  -0.025
O  O35  1  0.77766713  0.61525119  0.87997220  1  -0.34163  -0.467034  -0.011984  2.428746  -0.026
O  O36  1  0.22262166  0.61521958  0.87996104  1  -0.341838  -0.467353  -0.011964  2.428174  -0.026
O  O37  1  0.77827858  0.11819376  0.61713886  1  -0.338647  -0.462602  -0.007433  2.426544  -0.025
O  O38  1  0.22171163  0.11807417  0.61726124  1  -0.338748  -0.462786  -0.007433  2.426449  -0.025
O  O39  1  0.22247294  0.38518686  0.11968404  1  -0.341419  -0.467141  0.011532  2.429484  0.026
O  O40  1  0.50003201  0.40886984  0.91656414  1  -0.668649  -0.973318  0.025843  2.137068  0.017
O  O41  1  0.50002003  0.08462245  0.41426849  1  -0.668012  -0.966581  0.003818  2.15721  -0.051
O  O42  1  0.49998591  0.91513180  0.58591304  1  -0.668088  -0.966187  0.005343  2.158092  -0.049
O  O43  1  0.49997977  0.59139771  0.08330059  1  -0.668808  -0.974184  -0.025136  2.137445  -0.016
