# generated using pymatgen
data_ZnH14C17N2(ClO2)2
_symmetry_space_group_name_H-M   'P 1'
_cell_length_a   9.66694691
_cell_length_b   10.93310051
_cell_length_c   17.14441230
_cell_angle_alpha   90.69824384
_cell_angle_beta   96.82100317
_cell_angle_gamma   94.64861711
_symmetry_Int_Tables_number   1
_chemical_formula_structural   ZnH14C17N2(ClO2)2
_chemical_formula_sum   'Zn2 H28 C34 N4 Cl4 O8'
_cell_volume   1792.80865577
_cell_formula_units_Z   2
loop_
 _symmetry_equiv_pos_site_id
 _symmetry_equiv_pos_as_xyz
  1  'x, y, z'
loop_
 _atom_site_type_symbol
 _atom_site_label
 _atom_site_symmetry_multiplicity
 _atom_site_fract_x
 _atom_site_fract_y
 _atom_site_fract_z
 _atom_site_occupancy
 _atom_site_pbe_bader_charge
 _atom_site_pbe_bader_spin_density
 _atom_site_pbe_cm5_charge
 _atom_site_pbe_ddec_charge
 _atom_site_pbe_ddec_spin_density
 _atom_site_pbe_ddec_sum_bond_order
 _atom_site_pbe_magmom
Zn  Zn0  1  0.34059968  0.48737766  0.49250069  1  1.288315  0  0.664156  0.82422  0  2.404577  0
Zn  Zn1  1  0.62784575  0.50868992  0.50543432  1  1.285941  0  0.671241  0.835612  0  2.436167  0
H  H2  1  0.25071691  0.53588251  0.09558617  1  0.058851  0  0.107896  0.115538  0  0.99054  0
H  H3  1  0.67441200  0.23970027  0.88430540  1  0.044938  0  0.082124  0.110587  0  1.015631  0
H  H4  1  0.79360767  0.25421990  0.97207901  1  0.021736  0  0.08761  0.117298  0  0.993498  0
H  H5  1  0.84277840  0.43220631  0.88722090  1  0.049345  0  0.084666  0.083201  0  1.008933  0
H  H6  1  0.77658150  0.48273446  0.97347006  1  0.070985  0  0.095129  0.091655  0  1.005278  0
H  H7  1  0.65280895  0.85134524  0.11288273  1  0.02943  0  0.085091  0.1146  0  0.998463  0
H  H8  1  0.74960885  0.82439762  0.20504825  1  0.022332  0  0.079277  0.107615  0  1.038056  0
H  H9  1  0.83803367  0.85096937  0.12081292  1  0.048991  0  0.087648  0.118305  0  0.994844  0
H  H10  1  0.82231434  0.62654972  0.14767541  1  0.055529  0  0.086381  0.085004  0  1.004601  0
H  H11  1  0.72339497  0.65436589  0.05786749  1  0.059547  0  0.094103  0.088931  0  1.031451  0
H  H12  1  0.85427373  0.98340394  0.43053945  1  0.022783  0  0.077392  0.103541  0  1.014924  0
H  H13  1  0.34630576  0.64351920  0.88733928  1  0.10877  0  0.106919  0.10977  0  1.014098  0
H  H14  1  0.81930351  0.82901207  0.45901743  1  0.014739  0  0.070939  0.102023  0  1.057988  0
H  H15  1  0.86146954  0.86031420  0.36254313  1  0.020126  0  0.075628  0.101628  0  1.025078  0
H  H16  1  0.60567828  0.80520821  0.36099452  1  0.05036  0  0.087107  0.089884  0  1.014674  0
H  H17  1  0.63810868  0.95782140  0.33071750  1  0.009531  0  0.088198  0.081528  0  0.979985  0
H  H18  1  0.48759826  0.06599396  0.71853695  1  0.014923  0  0.081348  0.106669  0  1.006399  0
H  H19  1  0.51653041  0.21390566  0.67935585  1  0.026639  0  0.075409  0.106249  0  1.047408  0
H  H20  1  0.37816907  0.18371682  0.73780534  1  0.023882  0  0.084194  0.113656  0  0.999329  0
H  H21  1  0.28110661  0.18308142  0.59609358  1  0.070784  0  0.091571  0.09921  0  0.993256  0
H  H22  1  0.25518340  0.03420387  0.63410381  1  -0.003804  0  0.087451  0.079611  0  0.982771  0
H  H23  1  0.25861683  0.49379855  0.24009368  1  0.120296  0  0.105372  0.113277  0  0.99754  0
H  H24  1  0.32277844  0.62089389  0.74007384  1  0.094102  0  0.105628  0.109935  0  0.990083  0
H  H25  1  0.62231376  0.13271429  0.41519766  1  0.043218  0  0.099923  0.10566  0  1.000501  0
H  H26  1  0.35680310  0.86423049  0.58408312  1  0.081663  0  0.09793  0.101487  0  1.01605  0
H  H27  1  0.16930417  0.63411774  0.57049828  1  0.182338  0  0.138256  0.133431  0  0.987974  0
H  H28  1  0.79845553  0.36802331  0.42201348  1  0.154451  0  0.139313  0.137534  0  0.981061  0
H  H29  1  0.61821442  0.29255042  0.97311221  1  0.031516  0  0.085964  0.11373  0  1.008066  0
C  C30  1  0.49219872  0.26257206  0.50905123  1  1.581949  0  0.222007  0.618457  0  4.1352  0
C  C31  1  0.88207520  0.42607601  0.45550176  1  0.569626  0  0.072796  0.023269  0  3.857106  0
C  C32  1  0.47517619  0.50015214  0.34785087  1  1.596267  0  0.209825  0.60274  0  4.170366  0
C  C33  1  0.48944515  0.51685537  0.65151891  1  1.549686  0  0.211709  0.603176  0  4.171936  0
C  C34  1  0.48005831  0.53379899  0.26354960  1  -0.0243  0  -0.02004  -0.084913  0  3.944431  0
C  C35  1  0.50783752  0.52482394  0.73965280  1  0.072615  0  -0.011998  -0.065942  0  3.937644  0
C  C36  1  0.60177015  0.57790357  0.23116909  1  0.043323  0  0.023632  0.082761  0  3.945516  0
C  C37  1  0.61946198  0.47647149  0.78605576  1  -0.007504  0  0.022264  0.075104  0  3.966882  0
C  C38  1  0.60113011  0.60573961  0.15101882  1  0.034262  0  -0.00096  0.005554  0  3.865049  0
C  C39  1  0.63443244  0.48583482  0.86859128  1  0.074734  0  0.006588  0.022348  0  3.875287  0
C  C40  1  0.47188936  0.58263576  0.10249290  1  0.362071  0  0.09238  0.131013  0  4.023897  0
C  C41  1  0.48699208  0.73408905  0.49158227  1  1.515913  0  0.217681  0.606792  0  4.138139  0
C  C42  1  0.53238044  0.54642147  0.90352774  1  0.3406  0  0.084781  0.114246  0  4.009148  0
C  C43  1  0.34837282  0.54750278  0.13486991  1  0.025656  0  -0.089644  -0.158122  0  4.006872  0
C  C44  1  0.42166761  0.59708641  0.85780188  1  -0.007669  0  -0.086546  -0.144014  0  3.995708  0
C  C45  1  0.35299834  0.52298433  0.21408143  1  -0.033115  0  -0.083378  -0.074047  0  4.002744  0
C  C46  1  0.40933684  0.58471499  0.77685005  1  -0.040444  0  -0.084593  -0.084953  0  4.004873  0
C  C47  1  0.56526225  0.07232308  0.45289373  1  -0.005716  0  -0.092023  -0.166016  0  3.97156  0
C  C48  1  0.41498612  0.92490694  0.54718647  1  -0.060187  0  -0.09153  -0.156376  0  3.982277  0
C  C49  1  0.74992670  0.42901933  0.91856143  1  -0.023145  0  -0.166884  -0.148673  0  4.007573  0
C  C50  1  0.70644740  0.29568852  0.93805603  1  -0.059276  0  -0.243367  -0.34457  0  3.952906  0
C  C51  1  0.72893982  0.66871905  0.12137111  1  0.001574  0  -0.168699  -0.146899  0  3.998306  0
C  C52  1  0.56790786  0.94522138  0.44370504  1  0.015967  0  -0.000516  0.112808  0  3.912343  0
C  C53  1  0.74311157  0.80701946  0.14141991  1  -0.08856  0  -0.243819  -0.346611  0  3.95153  0
C  C54  1  0.64956356  0.89717911  0.38153766  1  -0.002278  0  -0.164889  -0.145738  0  3.979445  0
C  C55  1  0.80557137  0.89244197  0.41012307  1  -0.029102  0  -0.251104  -0.346631  0  3.972655  0
C  C56  1  0.33552596  0.10412843  0.61886517  1  0.005433  0  -0.16336  -0.145734  0  3.974547  0
C  C57  1  0.43500555  0.14428088  0.69299119  1  -0.050232  0  -0.246625  -0.346909  0  3.959825  0
C  C58  1  0.41208710  0.05155250  0.55604898  1  0.054015  0  -0.004591  0.098852  0  3.938881  0
C  C59  1  0.49109030  0.87095232  0.49302657  1  -0.037577  0  -0.020213  -0.085291  0  3.949807  0
C  C60  1  0.48988734  0.12551028  0.50721884  1  -0.077106  0  -0.012655  -0.062317  0  3.941737  0
C  C61  1  0.94462802  0.58581014  0.54524658  1  0.652737  0  0.160157  0.228852  0  4.044508  0
C  C62  1  0.02315783  0.41460102  0.44868877  1  0.687108  0  0.159515  0.229408  0  4.042771  0
C  C63  1  0.08561158  0.57449082  0.53829739  1  0.560978  0  0.074668  0.028889  0  3.840497  0
N  N64  1  0.45285241  0.59056756  0.01949038  1  -0.500676  0  -0.146725  -0.134811  0  3.257721  0
N  N65  1  0.54887483  0.54667112  0.98644137  1  -0.491519  0  -0.136451  -0.098685  0  3.318079  0
N  N66  1  0.12313734  0.48879331  0.49035658  1  -1.191247  0  -0.289558  -0.180283  0  3.465929  0
N  N67  1  0.84468872  0.51126125  0.50386264  1  -1.200055  0  -0.289893  -0.184967  0  3.479101  0
Cl  Cl68  1  0.73921248  0.39710695  0.74201099  1  -0.202483  0  0.00748  -0.060433  0  1.569483  0
Cl  Cl69  1  0.76068607  0.60424382  0.29076744  1  -0.209699  0  0.014402  -0.05635  0  1.619179  0
Cl  Cl70  1  0.89871051  0.69473107  0.60676713  1  -0.102672  0  0.0789  0.007855  0  1.50781  0
Cl  Cl71  1  0.06939375  0.30573791  0.38720000  1  -0.098567  0  0.073842  0.004891  0  1.477248  0
O  O72  1  0.37482820  0.30805965  0.49403349  1  -1.159519  0  -0.316437  -0.555214  0  2.366983  0
O  O73  1  0.59666350  0.68483137  0.47702280  1  -1.16249  0  -0.311426  -0.540788  0  2.371038  0
O  O74  1  0.61100500  0.32285168  0.52345272  1  -1.161513  0  -0.317873  -0.550384  0  2.308111  0
O  O75  1  0.37422478  0.67485930  0.50671226  1  -1.167762  0  -0.319182  -0.555941  0  2.341613  0
O  O76  1  0.35925623  0.51095709  0.37498023  1  -1.15745  0  -0.320667  -0.550667  0  2.318692  0
O  O77  1  0.59809909  0.54465527  0.61823708  1  -1.156889  0  -0.320337  -0.565742  0  2.425087  0
O  O78  1  0.58369477  0.46280918  0.38648393  1  -1.17633  0  -0.324824  -0.569978  0  2.385431  0
O  O79  1  0.36722649  0.48604881  0.61761779  1  -1.161684  0  -0.315682  -0.540405  0  2.260288  0
