# generated using pymatgen
data_CdH18C16(SN2)2
_symmetry_space_group_name_H-M   'P 1'
_cell_length_a   5.80313760
_cell_length_b   8.72769332
_cell_length_c   18.24608683
_cell_angle_alpha   90.00066410
_cell_angle_beta   90.00384485
_cell_angle_gamma   97.55038502
_symmetry_Int_Tables_number   1
_chemical_formula_structural   CdH18C16(SN2)2
_chemical_formula_sum   'Cd2 H36 C32 S4 N8'
_cell_volume   916.11542963
_cell_formula_units_Z   2
loop_
 _symmetry_equiv_pos_site_id
 _symmetry_equiv_pos_as_xyz
  1  'x, y, z'
loop_
 _atom_site_type_symbol
 _atom_site_label
 _atom_site_symmetry_multiplicity
 _atom_site_fract_x
 _atom_site_fract_y
 _atom_site_fract_z
 _atom_site_occupancy
 _atom_site_hle17_bader_spin_density
 _atom_site_hle17_ddec_charge
 _atom_site_hle17_ddec_spin_density
 _atom_site_hle17_ddec_sum_bond_order
 _atom_site_hle17_magmom
 _atom_site_hse06_10hf_bader_spin_density
 _atom_site_hse06_10hf_ddec_charge
 _atom_site_hse06_10hf_ddec_spin_density
 _atom_site_hse06_10hf_ddec_sum_bond_order
 _atom_site_hse06_10hf_magmom
 _atom_site_hse06_bader_spin_density
 _atom_site_hse06_ddec_charge
 _atom_site_hse06_ddec_spin_density
 _atom_site_hse06_ddec_sum_bond_order
 _atom_site_hse06_magmom
 _atom_site_pbe_bader_spin_density
 _atom_site_pbe_cm5_charge
 _atom_site_pbe_ddec_charge
 _atom_site_pbe_ddec_spin_density
 _atom_site_pbe_ddec_sum_bond_order
 _atom_site_pbe_magmom
Cd  Cd0  1  0.49998699  0.49999091  0.99999831  1  0  0.96185  0  1.983546  0  0  0.77649  0  2.450144  0  0  0.821749  0  2.412467  0  0  0.733386  0.745085  0  2.475381  0
Cd  Cd1  1  0.50002855  0.99999917  0.50000234  1  0  0.961854  0  1.983545  0  0  0.776515  0  2.450094  0  0  0.821776  0  2.412417  0  0  0.733396  0.745106  0  2.475338  0
H  H2  1  0.85967607  0.80993436  0.97780299  1  0  0.067431  0  0.96308  0  0  0.075234  0  1.030976  0  0  0.07701  0  1.029502  0  0  0.106351  0.073904  0  1.032017  0
H  H3  1  0.14036275  0.69005892  0.47780184  1  0  0.067363  0  0.963037  0  0  0.07516  0  1.030976  0  0  0.076938  0  1.029501  0  0  0.106305  0.073825  0  1.032026  0
H  H4  1  0.14029755  0.19004111  0.02219510  1  0  0.067384  0  0.962974  0  0  0.075211  0  1.030868  0  0  0.076987  0  1.029401  0  0  0.106327  0.073927  0  1.031867  0
H  H5  1  0.85965689  0.30995946  0.52219570  1  0  0.067356  0  0.963107  0  0  0.075135  0  1.031064  0  0  0.076936  0  1.029568  0  0  0.106276  0.0738  0  1.032113  0
H  H6  1  0.92799088  0.04501104  0.89850146  1  0  0.101994  0  0.96957  0  0  0.1094  0  1.036382  0  0  0.112171  0  1.036514  0  0  0.09986  0.107403  0  1.036468  0
H  H7  1  0.07203832  0.45497504  0.39849675  1  0  0.101991  0  0.969669  0  0  0.10945  0  1.036413  0  0  0.11222  0  1.036548  0  0  0.09988  0.107451  0  1.036494  0
H  H8  1  0.07201143  0.95497032  0.10150705  1  0  0.101898  0  0.969515  0  0  0.109335  0  1.036309  0  0  0.112105  0  1.036446  0  0  0.099851  0.107338  0  1.036392  0
H  H9  1  0.92793757  0.54504894  0.60149586  1  0  0.102007  0  0.969717  0  0  0.109401  0  1.036515  0  0  0.112167  0  1.036659  0  0  0.099876  0.107401  0  1.036599  0
H  H10  1  0.25363607  0.90437128  0.80194616  1  0  0.103951  0  0.961368  0  0  0.112412  0  1.027763  0  0  0.115506  0  1.027335  0  0  0.104342  0.110192  0  1.028251  0
H  H11  1  0.74638543  0.59562380  0.30194874  1  0  0.103978  0  0.961257  0  0  0.112449  0  1.02767  0  0  0.115546  0  1.027238  0  0  0.104322  0.110228  0  1.02816  0
H  H12  1  0.74638610  0.09562401  0.19805029  1  0  0.104031  0  0.961388  0  0  0.112501  0  1.027765  0  0  0.115596  0  1.027335  0  0  0.104351  0.11028  0  1.028256  0
H  H13  1  0.25361345  0.40436678  0.69804661  1  0  0.103985  0  0.961304  0  0  0.112466  0  1.027691  0  0  0.115563  0  1.027259  0  0  0.104368  0.110244  0  1.028182  0
H  H14  1  0.21139662  0.67701658  0.88613857  1  0  0.069744  0  0.96629  0  0  0.07802  0  1.034323  0  0  0.079371  0  1.033518  0  0  0.10847  0.077016  0  1.034869  0
H  H15  1  0.78862728  0.82298079  0.38614750  1  0  0.069683  0  0.966327  0  0  0.077955  0  1.034325  0  0  0.079318  0  1.033526  0  0  0.10842  0.076951  0  1.03487  0
H  H16  1  0.78859059  0.32296703  0.11384637  1  0  0.06979  0  0.966409  0  0  0.078042  0  1.034454  0  0  0.079398  0  1.033658  0  0  0.108469  0.077044  0  1.034986  0
H  H17  1  0.21140694  0.17700531  0.61385169  1  0  0.069734  0  0.966184  0  0  0.077996  0  1.034244  0  0  0.079352  0  1.033448  0  0  0.108486  0.077  0  1.034763  0
H  H18  1  0.66923269  0.23562007  0.82218619  1  0  0.083178  0  0.943722  0  0  0.103035  0  1.000779  0  0  0.103212  0  1.00166  0  0  0.091325  0.102845  0  1.000262  0
H  H19  1  0.33076589  0.26436878  0.32218422  1  0  0.083152  0  0.943683  0  0  0.103086  0  1.000633  0  0  0.103275  0  1.001497  0  0  0.091349  0.102896  0  1.000123  0
H  H20  1  0.33079813  0.76438450  0.17782451  1  0  0.083167  0  0.943678  0  0  0.103003  0  1.000707  0  0  0.103206  0  1.00157  0  0  0.091272  0.102811  0  1.000194  0
H  H21  1  0.66922397  0.73563793  0.67781222  1  0  0.083079  0  0.943664  0  0  0.103067  0  1.000609  0  0  0.103278  0  1.001443  0  0  0.091345  0.102874  0  1.000106  0
H  H22  1  0.47551169  0.13345973  0.75872389  1  0  0.069042  0  0.948037  0  0  0.084256  0  1.013742  0  0  0.085283  0  1.013933  0  0  0.08713  0.083494  0  1.01366  0
H  H23  1  0.52448723  0.36651902  0.25872616  1  0  0.069028  0  0.947838  0  0  0.084234  0  1.013592  0  0  0.085233  0  1.013815  0  0  0.087143  0.083476  0  1.013507  0
H  H24  1  0.52449782  0.86655977  0.24128681  1  0  0.06908  0  0.948232  0  0  0.08426  0  1.013945  0  0  0.085301  0  1.014126  0  0  0.087136  0.083499  0  1.013858  0
H  H25  1  0.47547720  0.63348990  0.74126590  1  0  0.069037  0  0.94805  0  0  0.084298  0  1.013775  0  0  0.085288  0  1.014013  0  0  0.087149  0.083554  0  1.013675  0
H  H26  1  0.85926260  0.21195283  0.69979960  1  0  0.093097  0  0.969638  0  0  0.115209  0  1.030942  0  0  0.115561  0  1.033361  0  0  0.082064  0.114916  0  1.029303  0
H  H27  1  0.14071535  0.28803799  0.19979175  1  0  0.093055  0  0.969565  0  0  0.1152  0  1.030858  0  0  0.11555  0  1.033279  0  0  0.082074  0.114907  0  1.029216  0
H  H28  1  0.14073764  0.78806316  0.30020781  1  0  0.093105  0  0.969609  0  0  0.115218  0  1.030928  0  0  0.115561  0  1.033357  0  0  0.082074  0.114942  0  1.02927  0
H  H29  1  0.85924498  0.71196746  0.80021018  1  0  0.092965  0  0.969515  0  0  0.115106  0  1.030841  0  0  0.115466  0  1.033252  0  0  0.082051  0.114814  0  1.029198  0
H  H30  1  0.81034803  0.00778958  0.70652450  1  0  0.097658  0  0.971414  0  0  0.118399  0  1.033024  0  0  0.119106  0  1.034215  0  0  0.081174  0.117835  0  1.032247  0
H  H31  1  0.18965394  0.49219371  0.20651631  1  0  0.097598  0  0.971538  0  0  0.118404  0  1.033082  0  0  0.11911  0  1.034273  0  0  0.081165  0.117842  0  1.032294  0
H  H32  1  0.18964056  0.99222868  0.29347304  1  0  0.097672  0  0.971436  0  0  0.118454  0  1.032992  0  0  0.11916  0  1.03418  0  0  0.081225  0.117894  0  1.032207  0
H  H33  1  0.81028849  0.50780820  0.79348617  1  0  0.097545  0  0.971604  0  0  0.118416  0  1.033072  0  0  0.119122  0  1.034267  0  0  0.081188  0.11785  0  1.03229  0
H  H34  1  0.00269488  0.11724972  0.76906050  1  0  0.082993  0  0.981171  0  0  0.099081  0  1.05588  0  0  0.100361  0  1.056013  0  0  0.076106  0.098132  0  1.055819  0
H  H35  1  0.99729985  0.38274589  0.26904603  1  0  0.082984  0  0.981158  0  0  0.099119  0  1.055817  0  0  0.100398  0  1.055949  0  0  0.076155  0.098171  0  1.055755  0
H  H36  1  0.99731243  0.88274898  0.23093814  1  0  0.082967  0  0.98114  0  0  0.099064  0  1.055857  0  0  0.100345  0  1.055988  0  0  0.076101  0.098116  0  1.055798  0
H  H37  1  0.00266152  0.61724686  0.73096083  1  0  0.083016  0  0.981135  0  0  0.099148  0  1.055797  0  0  0.100426  0  1.055929  0  0  0.076137  0.098199  0  1.055736  0
C  C38  1  0.99077121  0.39183890  0.91613823  1  0  0.287877  0  4.032935  0  0  0.269484  0  4.337531  0  0  0.290814  0  4.350483  0  0  0.14491  0.254992  0  4.328483  0
C  C39  1  0.00922653  0.10813902  0.41614206  1  0  0.288015  0  4.032869  0  0  0.269626  0  4.337448  0  0  0.290951  0  4.350404  0  0  0.145021  0.255135  0  4.328397  0
C  C40  1  0.00921384  0.60814238  0.08385986  1  0  0.287776  0  4.033151  0  0  0.269392  0  4.337736  0  0  0.290719  0  4.350692  0  0  0.144879  0.254902  0  4.328682  0
C  C41  1  0.99084201  0.89186454  0.58386699  1  0  0.287873  0  4.033346  0  0  0.269496  0  4.337905  0  0  0.290825  0  4.350863  0  0  0.144885  0.255005  0  4.328862  0
C  C42  1  0.72958480  0.83588055  0.93809885  1  0  0.125842  0  3.742276  0  0  0.095544  0  3.991472  0  0  0.103299  0  4.0103  0  0  0.040273  0.090618  0  3.978567  0
C  C43  1  0.27044112  0.66411228  0.43809882  1  0  0.126052  0  3.742077  0  0  0.09575  0  3.991272  0  0  0.103505  0  4.010098  0  0  0.040393  0.090825  0  3.978377  0
C  C44  1  0.27040067  0.16409381  0.06190253  1  0  0.125898  0  3.742522  0  0  0.095558  0  3.991753  0  0  0.103311  0  4.010583  0  0  0.040249  0.090592  0  3.978829  0
C  C45  1  0.72956708  0.33590028  0.56189817  1  0  0.125927  0  3.742237  0  0  0.095615  0  3.991483  0  0  0.103352  0  4.0103  0  0  0.040362  0.090692  0  3.978583  0
C  C46  1  0.76600108  0.96633821  0.89389892  1  0  -0.174079  0  3.69772  0  0  -0.186391  0  3.936231  0  0  -0.195022  0  3.957841  0  0  -0.086332  -0.180864  0  3.92174  0
C  C47  1  0.23401887  0.53364696  0.39389404  1  0  -0.174182  0  3.697605  0  0  -0.186533  0  3.936144  0  0  -0.195163  0  3.957748  0  0  -0.086382  -0.180998  0  3.921647  0
C  C48  1  0.23401225  0.03365589  0.10610685  1  0  -0.173942  0  3.698119  0  0  -0.18624  0  3.936696  0  0  -0.194868  0  3.958306  0  0  -0.086305  -0.180713  0  3.922214  0
C  C49  1  0.76598158  0.46637019  0.60610131  1  0  -0.173995  0  3.69742  0  0  -0.186264  0  3.935951  0  0  -0.194895  0  3.957564  0  0  -0.086295  -0.18073  0  3.921459  0
C  C50  1  0.59578399  0.99415665  0.84268278  1  0  0.169558  0  3.693178  0  0  0.186125  0  3.925377  0  0  0.191695  0  3.947004  0  0  0.018004  0.182632  0  3.91056  0
C  C51  1  0.40423989  0.50583544  0.34267945  1  0  0.169662  0  3.693118  0  0  0.186171  0  3.925432  0  0  0.191746  0  3.947051  0  0  0.018015  0.182682  0  3.910615  0
C  C52  1  0.40422268  0.00584782  0.15732134  1  0  0.169645  0  3.693357  0  0  0.186075  0  3.925719  0  0  0.191643  0  3.947356  0  0  0.01806  0.182583  0  3.910896  0
C  C53  1  0.59574868  0.49417358  0.65731645  1  0  0.169501  0  3.693022  0  0  0.186071  0  3.92532  0  0  0.191646  0  3.94694  0  0  0.017982  0.182577  0  3.910511  0
C  C54  1  0.39173878  0.88893942  0.84073669  1  0  -0.179612  0  3.713102  0  0  -0.195947  0  3.958094  0  0  -0.204493  0  3.979268  0  0  -0.086285  -0.190493  0  3.943905  0
C  C55  1  0.60827494  0.61105828  0.34073867  1  0  -0.1796  0  3.713153  0  0  -0.195948  0  3.95814  0  0  -0.204495  0  3.979319  0  0  -0.086231  -0.190491  0  3.943944  0
C  C56  1  0.60827282  0.11105467  0.15926578  1  0  -0.179638  0  3.712978  0  0  -0.19594  0  3.957997  0  0  -0.204482  0  3.979169  0  0  -0.086259  -0.190486  0  3.943806  0
C  C57  1  0.39172374  0.38894039  0.65925723  1  0  -0.17957  0  3.713263  0  0  -0.195929  0  3.958226  0  0  -0.204474  0  3.9794  0  0  -0.086253  -0.190474  0  3.944035  0
C  C58  1  0.36743185  0.76165284  0.88725601  1  0  0.128468  0  3.73689  0  0  0.098954  0  3.984758  0  0  0.106904  0  4.00379  0  0  0.042325  0.093879  0  3.971686  0
C  C59  1  0.63257834  0.73834224  0.38726012  1  0  0.128337  0  3.7372  0  0  0.098867  0  3.985013  0  0  0.106797  0  4.004067  0  0  0.042289  0.093795  0  3.971936  0
C  C60  1  0.63256790  0.23834236  0.11273879  1  0  0.128279  0  3.736719  0  0  0.098771  0  3.984579  0  0  0.106705  0  4.003626  0  0  0.042246  0.093699  0  3.971506  0
C  C61  1  0.36745160  0.26165770  0.61273852  1  0  0.128428  0  3.737222  0  0  0.098941  0  3.985041  0  0  0.106875  0  4.004093  0  0  0.042309  0.09387  0  3.971974  0
C  C62  1  0.63496594  0.12779561  0.79048715  1  0  -0.123424  0  3.716387  0  0  -0.159957  0  3.962989  0  0  -0.160948  0  3.975397  0  0  -0.164018  -0.159136  0  3.954304  0
C  C63  1  0.36503683  0.37219110  0.29048720  1  0  -0.123412  0  3.716157  0  0  -0.160002  0  3.96289  0  0  -0.160982  0  3.975296  0  0  -0.164064  -0.15919  0  3.954223  0
C  C64  1  0.36504851  0.87221351  0.20952190  1  0  -0.123545  0  3.71666  0  0  -0.159961  0  3.963224  0  0  -0.160984  0  3.975623  0  0  -0.164006  -0.159135  0  3.95454  0
C  C65  1  0.63493623  0.62781786  0.70950815  1  0  -0.123418  0  3.716491  0  0  -0.160184  0  3.963389  0  0  -0.161173  0  3.975805  0  0  -0.164176  -0.159382  0  3.95472  0
C  C66  1  0.83914206  0.11494955  0.73851292  1  0  -0.27825  0  3.692107  0  0  -0.349252  0  3.930893  0  0  -0.351971  0  3.942118  0  0  -0.24974  -0.347104  0  3.923067  0
C  C67  1  0.16085243  0.38504513  0.23850708  1  0  -0.278143  0  3.691964  0  0  -0.349251  0  3.930761  0  0  -0.351964  0  3.941981  0  0  -0.249764  -0.347096  0  3.922924  0
C  C68  1  0.16085686  0.88505951  0.26149065  1  0  -0.278203  0  3.692091  0  0  -0.349263  0  3.930869  0  0  -0.351976  0  3.942114  0  0  -0.249786  -0.347129  0  3.923021  0
C  C69  1  0.83910423  0.61495915  0.76149539  1  0  -0.277977  0  3.691966  0  0  -0.34911  0  3.930828  0  0  -0.35183  0  3.942046  0  0  -0.249699  -0.346954  0  3.923  0
S  S70  1  0.23797163  0.34791369  0.88546314  1  0  -0.337938  0  2.109796  0  0  -0.305726  0  2.430044  0  0  -0.321171  0  2.422622  0  0  -0.133607  -0.294858  0  2.434821  0
S  S71  1  0.76201185  0.15208056  0.38547249  1  0  -0.338203  0  2.109756  0  0  -0.306009  0  2.430007  0  0  -0.321456  0  2.42259  0  0  -0.133778  -0.295136  0  2.434782  0
S  S72  1  0.76200959  0.65208375  0.11453111  1  0  -0.337989  0  2.109684  0  0  -0.305801  0  2.429959  0  0  -0.321245  0  2.422541  0  0  -0.133657  -0.294933  0  2.434742  0
S  S73  1  0.23804523  0.84790793  0.61453546  1  0  -0.337998  0  2.109863  0  0  -0.305845  0  2.430189  0  0  -0.321291  0  2.422774  0  0  -0.133648  -0.294936  0  2.434893  0
N  N74  1  0.81200494  0.42480198  0.93806164  1  0  -0.532786  0  2.89737  0  0  -0.479684  0  3.17814  0  0  -0.5001  0  3.185089  0  0  -0.394148  -0.465772  0  3.173257  0
N  N75  1  0.18798403  0.07516816  0.43805983  1  0  -0.532648  0  2.897423  0  0  -0.479548  0  3.178184  0  0  -0.499962  0  3.185136  0  0  -0.394093  -0.46564  0  3.173301  0
N  N76  1  0.18797518  0.57518968  0.06193809  1  0  -0.532673  0  2.897627  0  0  -0.479549  0  3.178328  0  0  -0.499967  0  3.185282  0  0  -0.394108  -0.465636  0  3.173438  0
N  N77  1  0.81207049  0.92483418  0.56194648  1  0  -0.532752  0  2.897753  0  0  -0.479632  0  3.178467  0  0  -0.50005  0  3.185421  0  0  -0.394105  -0.465727  0  3.17359  0
N  N78  1  0.53450434  0.73384981  0.93459406  1  0  -0.335646  0  3.294644  0  0  -0.25644  0  3.552481  0  0  -0.277457  0  3.573706  0  0  -0.334899  -0.242196  0  3.53766  0
N  N79  1  0.46552101  0.76613932  0.43459388  1  0  -0.335632  0  3.294917  0  0  -0.256413  0  3.552701  0  0  -0.277432  0  3.573934  0  0  -0.334888  -0.242169  0  3.537881  0
N  N80  1  0.46547382  0.26613146  0.06540238  1  0  -0.335638  0  3.294631  0  0  -0.256386  0  3.552431  0  0  -0.277404  0  3.573664  0  0  -0.334836  -0.242146  0  3.537625  0
N  N81  1  0.53450118  0.23386521  0.56540366  1  0  -0.335688  0  3.295118  0  0  -0.256461  0  3.552917  0  0  -0.277482  0  3.574164  0  0  -0.334942  -0.242219  0  3.538096  0
