# generated using pymatgen
data_Dy2CuH28(C10O11)2
_symmetry_space_group_name_H-M   'P 1'
_cell_length_a   6.96516737
_cell_length_b   10.01711582
_cell_length_c   11.36150469
_cell_angle_alpha   108.04640499
_cell_angle_beta   101.53397308
_cell_angle_gamma   98.49884146
_symmetry_Int_Tables_number   1
_chemical_formula_structural   Dy2CuH28(C10O11)2
_chemical_formula_sum   'Dy2 Cu1 H28 C20 O22'
_cell_volume   719.52829994
_cell_formula_units_Z   1
loop_
 _symmetry_equiv_pos_site_id
 _symmetry_equiv_pos_as_xyz
  1  'x, y, z'
loop_
 _atom_site_type_symbol
 _atom_site_label
 _atom_site_symmetry_multiplicity
 _atom_site_fract_x
 _atom_site_fract_y
 _atom_site_fract_z
 _atom_site_occupancy
 _atom_site_hle17_ddec_charge
 _atom_site_hle17_ddec_spin_density
 _atom_site_hle17_ddec_sum_bond_order
 _atom_site_hle17_magmom
 _atom_site_hse06_10hf_ddec_charge
 _atom_site_hse06_10hf_ddec_spin_density
 _atom_site_hse06_10hf_ddec_sum_bond_order
 _atom_site_hse06_10hf_magmom
 _atom_site_hse06_ddec_charge
 _atom_site_hse06_ddec_spin_density
 _atom_site_hse06_ddec_sum_bond_order
 _atom_site_hse06_magmom
 _atom_site_pbe_cm5_charge
 _atom_site_pbe_ddec_charge
 _atom_site_pbe_ddec_spin_density
 _atom_site_pbe_ddec_sum_bond_order
 _atom_site_pbe_magmom
Dy  Dy0  1  0.63383967  0.71514097  0.09752275  1  2.209572  -5e-06  1.702194  0.0  2.145956  8.8e-05  2.01101  0.0  2.273421  4.8e-05  1.820158  0.0  1.502406  2.112738  0.00016  2.038316  0.0
Dy  Dy1  1  0.36615973  0.28485712  0.90247759  1  2.209578  -6e-06  1.702202  0.0  2.145942  8.9e-05  2.011056  0.0  2.27341  4.7e-05  1.820203  0.0  1.502419  2.112723  0.00016  2.038354  0.0
Cu  Cu2  1  0.99999988  0.00000264  0.49999906  1  0.996765  0.692228  1.603831  0.517  0.988838  0.783991  1.974417  0.635  1.090659  0.846244  1.891262  0.719  0.730379  0.925768  0.740862  2.028899  0.582
H  H3  1  0.43149594  0.58987941  0.34239182  1  0.118053  0.000848  0.943275  0.001  0.129599  0.000708  1.006967  0.001  0.131464  0.000466  1.006114  0.001  0.10963  0.12827  0.00087  1.007659  0.001
H  H4  1  0.56850454  0.41012188  0.65761133  1  0.118018  0.000842  0.943349  0.001  0.129605  0.000708  1.006989  0.001  0.131473  0.000466  1.006134  0.001  0.109628  0.128276  0.00087  1.007679  0.001
H  H5  1  0.60966415  0.59092922  0.47847742  1  0.111325  -0.000118  0.935589  0.0  0.129841  0.000113  0.992042  0.0  0.130826  2.8e-05  0.992997  0.0  0.106937  0.129214  0.000174  0.991491  0.0
H  H6  1  0.39033627  0.40907637  0.52152783  1  0.111289  -0.000124  0.935607  0.0  0.129797  0.000113  0.992091  0.0  0.130781  2.7e-05  0.993046  0.0  0.106914  0.129175  0.000173  0.991534  0.0
H  H7  1  0.51418959  0.64854130  0.67498780  1  0.128607  3.7e-05  0.970105  0.0  0.140895  -3e-05  1.034707  0.0  0.143029  -2.8e-05  1.034552  0.0  0.100965  0.139356  -1.3e-05  1.034847  0.0
H  H8  1  0.48580380  0.35146547  0.32501348  1  0.128677  3.6e-05  0.970089  0.0  0.140945  -3.1e-05  1.03471  0.0  0.143079  -2.8e-05  1.034557  0.0  0.100976  0.139406  -1.3e-05  1.034854  0.0
H  H9  1  0.32358967  0.75750347  0.70133150  1  0.129074  0.000234  0.988447  0.0  0.139576  0.000159  1.054233  0.0  0.142792  0.000117  1.052098  0.0  0.103323  0.137293  0.000229  1.055637  0.0
H  H10  1  0.67640807  0.24250333  0.29866764  1  0.129032  0.000234  0.988429  0.0  0.13952  0.000158  1.054239  0.0  0.142734  0.000117  1.052107  0.0  0.103336  0.137241  0.000229  1.055639  0.0
H  H11  1  0.98614210  0.53502834  0.19634509  1  0.126236  2.2e-05  0.93296  0.0  0.136527  1.2e-05  0.99882  0.0  0.139065  1.2e-05  0.997498  0.0  0.115204  0.134362  1.6e-05  1.000499  0.0
H  H12  1  0.01385842  0.46496442  0.80365031  1  0.126307  2.3e-05  0.932913  0.0  0.136586  1.2e-05  0.998775  0.0  0.139128  1.2e-05  0.997455  0.0  0.115232  0.134418  1.6e-05  1.000467  0.0
H  H13  1  0.89366595  0.47138160  0.30670976  1  0.114374  -2.6e-05  0.915659  0.0  0.134178  -2e-05  0.967245  0.0  0.135882  -1.5e-05  0.966788  0.0  0.107553  0.133056  -2.4e-05  0.967367  0.0
H  H14  1  0.10633745  0.52861545  0.69328808  1  0.114405  -3e-05  0.91562  0.0  0.134214  -2e-05  0.967193  0.0  0.135922  -1.5e-05  0.966735  0.0  0.107571  0.133089  -2.4e-05  0.96732  0.0
H  H15  1  0.03888465  0.90291183  0.14498374  1  0.453666  2e-05  0.790979  0.0  0.438682  1.4e-05  0.837833  0.0  0.44761  1.7e-05  0.828674  0.0  0.335194  0.43253  1.2e-05  0.844712  0.0
H  H16  1  0.96111249  0.09708847  0.85501521  1  0.45368  2.1e-05  0.790971  0.0  0.438727  1.4e-05  0.837777  0.0  0.447656  1.7e-05  0.828613  0.0  0.335199  0.432575  1.2e-05  0.844656  0.0
H  H17  1  0.06661839  0.85413759  0.26691290  1  0.441884  -0.000219  0.85818  0.0  0.403654  -0.000244  0.934394  0.0  0.415575  -0.000254  0.916601  0.0  0.298699  0.395279  -0.000217  0.947074  0.0
H  H18  1  0.93338418  0.14586591  0.73308760  1  0.441869  -0.000219  0.858202  0.0  0.403647  -0.000243  0.934406  0.0  0.415566  -0.000254  0.916615  0.0  0.298713  0.395273  -0.000217  0.947089  0.0
H  H19  1  0.16413918  0.17227572  0.25959991  1  0.139433  8.5e-05  0.95911  0.0  0.149794  7.6e-05  1.022703  0.0  0.154005  4.2e-05  1.018914  0.0  0.101804  0.146941  0.000112  1.024998  0.0
H  H20  1  0.83586099  0.82772021  0.74039988  1  0.139331  8.4e-05  0.959238  0.0  0.149724  7.7e-05  1.022789  0.0  0.153935  4.2e-05  1.019004  0.0  0.101783  0.146869  0.000112  1.025082  0.0
H  H21  1  0.00691019  0.26759557  0.35482882  1  0.125236  -4.3e-05  0.977195  0.0  0.136929  -1.6e-05  1.040565  0.0  0.140204  -2.7e-05  1.03882  0.0  0.095516  0.134621  5e-06  1.041658  0.0
H  H22  1  0.99308995  0.73240040  0.64516923  1  0.125225  -4.4e-05  0.977178  0.0  0.136913  -1.6e-05  1.040573  0.0  0.140188  -2.7e-05  1.038828  0.0  0.095523  0.134604  5e-06  1.041664  0.0
H  H23  1  0.52482432  0.00443959  0.14367606  1  0.462507  -1.8e-05  0.783534  0.0  0.44583  -1.2e-05  0.831122  0.0  0.454686  -1e-05  0.818402  0.0  0.341231  0.439614  -1.4e-05  0.840281  0.0
H  H24  1  0.47516890  0.99555743  0.85632414  1  0.462467  -2e-05  0.78358  0.0  0.445787  -1.2e-05  0.83118  0.0  0.454643  -9e-06  0.81846  0.0  0.341212  0.439569  -1.4e-05  0.840341  0.0
H  H25  1  0.66711452  0.01598885  0.27718067  1  0.445321  7.1e-05  0.848705  0.0  0.413391  0.000123  0.914053  0.0  0.42428  4.4e-05  0.898361  0.0  0.304115  0.405823  0.000217  0.925069  0.0
H  H26  1  0.33288591  0.98401249  0.72281984  1  0.445304  7e-05  0.848731  0.0  0.413365  0.000123  0.914091  0.0  0.424254  4.4e-05  0.898401  0.0  0.304115  0.405793  0.000217  0.925115  0.0
H  H27  1  0.24106391  0.56554572  0.10823613  1  0.443977  0.0  0.859452  0.0  0.413263  1e-06  0.923135  0.0  0.424417  -1e-06  0.907  0.0  0.300518  0.40546  2e-06  0.934557  0.0
H  H28  1  0.75893661  0.43445128  0.89176401  1  0.444042  0.0  0.85937  0.0  0.413321  1e-06  0.923065  0.0  0.424476  -1e-06  0.906927  0.0  0.30054  0.405514  2e-06  0.934494  0.0
H  H29  1  0.29988059  0.71306019  0.23287828  1  0.44003  -9e-06  0.863364  0.0  0.409803  -4e-06  0.925821  0.0  0.420654  0.0  0.910021  0.0  0.299838  0.402304  -6e-06  0.936824  0.0
H  H30  1  0.70012094  0.28694009  0.76712117  1  0.439977  -9e-06  0.863434  0.0  0.409761  -4e-06  0.925874  0.0  0.420611  1e-06  0.910076  0.0  0.299822  0.402262  -6e-06  0.936881  0.0
C  C31  1  0.68667705  0.76806100  0.42095558  1  0.7388  -0.008858  3.790623  -0.008  0.698898  -0.002932  4.09178  -0.003  0.736746  -0.003454  4.085059  -0.003  0.226913  0.673393  -0.002396  4.096957  -0.003
C  C32  1  0.31332596  0.23193925  0.57904491  1  0.738711  -0.008886  3.790758  -0.008  0.698823  -0.002931  4.091916  -0.003  0.736672  -0.003456  4.085194  -0.003  0.226843  0.673319  -0.002395  4.097096  -0.003
C  C33  1  0.52694962  0.65872534  0.43765493  1  -0.297293  0.009312  3.708047  0.01  -0.339967  0.005777  3.936382  0.006  -0.345763  0.00397  3.945505  0.004  -0.158052  -0.336037  0.007224  3.930184  0.007
C  C34  1  0.47305265  0.34127704  0.56234785  1  -0.297185  0.009341  3.708305  0.01  -0.339934  0.005776  3.936592  0.006  -0.345734  0.003972  3.945715  0.004  -0.158009  -0.336003  0.007224  3.930402  0.007
C  C35  1  0.40553780  0.72562396  0.52588479  1  0.014025  0.008877  3.746173  0.009  0.042445  0.005285  3.983132  0.006  0.035731  0.004053  4.004696  0.004  -0.019541  0.046592  0.006304  3.968807  0.006
C  C36  1  0.59446257  0.27438170  0.47411696  1  0.013876  0.008866  3.746552  0.009  0.042424  0.005287  3.98328  0.006  0.035715  0.00405  4.004838  0.004  -0.019519  0.046543  0.006304  3.968993  0.006
C  C37  1  0.26731140  0.81079438  0.47973805  1  0.656651  -0.005384  3.839875  -0.006  0.604375  -0.001462  4.134993  -0.002  0.641324  -0.001963  4.128445  -0.002  0.222016  0.579412  -0.000938  4.138617  -0.002
C  C38  1  0.73268926  0.18921241  0.52026142  1  0.656545  -0.005379  3.840227  -0.006  0.604347  -0.001462  4.135183  -0.002  0.641291  -0.001962  4.128636  -0.002  0.221966  0.579404  -0.000937  4.138796  -0.002
C  C39  1  0.41426622  0.70939841  0.63948289  1  -0.239088  -0.005582  3.547109  -0.003  -0.301482  -0.001712  3.787282  -0.001  -0.300216  -0.002026  3.799755  -0.001  -0.158355  -0.302173  -0.001566  3.778906  -0.001
C  C40  1  0.58573336  0.29060943  0.36051853  1  -0.239008  -0.005566  3.547137  -0.003  -0.301421  -0.001714  3.787264  -0.001  -0.300158  -0.002021  3.79974  -0.001  -0.158378  -0.302099  -0.001566  3.778901  -0.001
C  C41  1  0.71049101  0.37847778  0.11527650  1  0.739965  1e-05  3.797769  0.0  0.698144  -1.3e-05  4.097907  0.0  0.730655  -6e-06  4.098268  0.0  0.211679  0.675693  -4e-06  4.102971  0.0
C  C42  1  0.28950918  0.62151814  0.88472418  1  0.739935  -2e-06  3.797827  0.0  0.698115  -1e-05  4.097968  0.0  0.730629  -7e-06  4.098329  0.0  0.211624  0.675676  -5e-06  4.103015  0.0
C  C43  1  0.91717602  0.43690070  0.20980801  1  -0.28432  -4.2e-05  3.68865  0.0  -0.328994  0.0  3.923758  0.0  -0.332941  -5e-06  3.931424  0.0  -0.155178  -0.325724  1.5e-05  3.917725  0.0
C  C44  1  0.08282525  0.56309416  0.79019072  1  -0.284437  -4.2e-05  3.688581  0.0  -0.329093  0.0  3.923651  0.0  -0.333054  -7e-06  3.931337  0.0  -0.155236  -0.325823  1.4e-05  3.917622  0.0
C  C45  1  0.04629436  0.32840263  0.19599246  1  0.009817  0.000475  3.751685  0.0  0.039259  0.000199  3.989113  0.0  0.032391  0.000132  4.01045  0.0  -0.022925  0.043914  0.000282  3.97359  0.0
C  C46  1  0.95370185  0.67159007  0.80400683  1  0.009762  0.000478  3.751727  0.0  0.039221  0.000201  3.989149  0.0  0.032355  0.000132  4.010491  0.0  -0.022935  0.043878  0.000282  3.973617  0.0
C  C47  1  0.14464518  0.30265413  0.08786397  1  0.633437  -1e-05  3.89895  0.0  0.586592  1e-06  4.192903  0.0  0.619169  1e-06  4.194026  0.0  0.195471  0.563745  1.1e-05  4.197025  0.0
C  C48  1  0.85535281  0.69733967  0.91213409  1  0.633458  -2.1e-05  3.899097  0.0  0.586577  2e-06  4.193088  0.0  0.619156  0.0  4.194211  0.0  0.195482  0.56373  1.1e-05  4.197206  0.0
C  C49  1  0.07417283  0.25296355  0.27438825  1  -0.221734  -0.0002  3.538539  0.0  -0.28566  4e-05  3.783423  0.0  -0.283699  -7.3e-05  3.793655  0.0  -0.157544  -0.286184  0.000143  3.775355  0.0
C  C50  1  0.92582373  0.74703022  0.72561140  1  -0.221509  -0.000198  3.538605  0.0  -0.285472  3.7e-05  3.783476  0.0  -0.283512  -7.4e-05  3.793708  0.0  -0.157485  -0.285997  0.000143  3.775404  0.0
O  O51  1  0.73289244  0.74518780  0.31550898  1  -0.726652  -0.001186  2.053641  0.001  -0.690247  -0.001313  2.315649  0.0  -0.729043  -0.002075  2.30048  0.0  -0.399481  -0.671136  -0.000624  2.322897  0.001
O  O52  1  0.26710843  0.25481028  0.68449152  1  -0.726631  -0.001181  2.053744  0.001  -0.690216  -0.001313  2.31572  0.0  -0.729012  -0.002075  2.300552  0.0  -0.399471  -0.671101  -0.000625  2.322964  0.001
O  O53  1  0.77517686  0.87742782  0.52162216  1  -0.583885  0.085516  2.061972  0.117  -0.555213  0.054354  2.338518  0.081  -0.599057  0.041383  2.329481  0.067  -0.311839  -0.526255  0.062608  2.343195  0.089
O  O54  1  0.22482684  0.12257459  0.47837903  1  -0.583839  0.085516  2.061974  0.117  -0.555175  0.054352  2.338511  0.081  -0.599019  0.041383  2.329473  0.067  -0.311821  -0.526226  0.062602  2.343201  0.089
O  O55  1  0.23097092  0.80032255  0.36343127  1  -0.609359  -0.001196  2.040589  0.0  -0.545286  -0.001116  2.263267  0.0  -0.571485  -0.001663  2.251338  0.0  -0.28528  -0.526904  -0.000521  2.270788  0.001
O  O56  1  0.76903918  0.19968638  0.63656813  1  -0.609288  -0.001198  2.040618  0.0  -0.545273  -0.001116  2.263277  0.0  -0.571465  -0.001663  2.251345  0.0  -0.285247  -0.526906  -0.00052  2.270802  0.001
O  O57  1  0.18890522  0.88962207  0.56195971  1  -0.625398  0.071091  2.123752  0.099  -0.577477  0.050081  2.391639  0.076  -0.620242  0.03857  2.380588  0.063  -0.306912  -0.549177  0.057389  2.397886  0.082
O  O58  1  0.81109070  0.11038367  0.43803891  1  -0.625256  0.071085  2.123816  0.099  -0.577448  0.050077  2.391735  0.076  -0.620212  0.038566  2.38068  0.063  -0.306877  -0.549146  0.057386  2.397968  0.082
O  O59  1  0.64009977  0.24523497  0.05767921  1  -0.657065  5e-05  1.928338  0.0  -0.618225  2.4e-05  2.152782  0.0  -0.649836  9e-06  2.143796  0.0  -0.354694  -0.60146  3e-05  2.157662  0.0
O  O60  1  0.35989895  0.75476095  0.94232130  1  -0.657036  6.1e-05  1.928356  0.0  -0.618205  2.3e-05  2.15281  0.0  -0.649815  1e-05  2.143824  0.0  -0.354654  -0.601446  3e-05  2.157684  0.0
O  O61  1  0.60630733  0.46954353  0.09459880  1  -0.813536  2.3e-05  2.116124  0.0  -0.770247  5e-06  2.368617  0.0  -0.815897  -5e-06  2.359378  0.0  -0.436214  -0.751362  1.3e-05  2.373352  0.0
O  O62  1  0.39369315  0.53045351  0.90539959  1  -0.813518  2.4e-05  2.116174  0.0  -0.770224  4e-06  2.36865  0.0  -0.815883  -5e-06  2.35943  0.0  -0.436187  -0.751331  1.3e-05  2.373347  0.0
O  O63  1  0.14839239  0.39312894  0.02773709  1  -0.70999  2.1e-05  2.055359  0.0  -0.660273  1.7e-05  2.2935  0.0  -0.694388  9e-06  2.283559  0.0  -0.375777  -0.642226  2.5e-05  2.299535  0.0
O  O64  1  0.85160631  0.60686699  0.97226254  1  -0.71005  2.4e-05  2.055373  0.0  -0.660322  1.6e-05  2.293549  0.0  -0.694436  1e-05  2.283605  0.0  -0.375828  -0.642274  2.5e-05  2.299584  0.0
O  O65  1  0.22656955  0.19629634  0.05599472  1  -0.67563  5.8e-05  1.937093  0.0  -0.634246  2.8e-05  2.15862  0.0  -0.66612  2.2e-05  2.148694  0.0  -0.369278  -0.617882  3.9e-05  2.164605  0.0
O  O66  1  0.77343061  0.80369960  0.94400420  1  -0.675618  6.1e-05  1.937125  0.0  -0.634229  2.8e-05  2.158664  0.0  -0.666103  2.3e-05  2.148738  0.0  -0.369263  -0.617867  3.9e-05  2.164648  0.0
O  O67  1  0.96687333  0.87181576  0.20036511  1  -0.909078  -0.000356  1.882106  0.0  -0.8751  -0.000499  2.083573  0.0  -0.902624  -0.000568  2.047366  0.0  -0.630943  -0.862582  -0.000413  2.105071  0.0
O  O68  1  0.03312599  0.12818667  0.79963559  1  -0.909083  -0.000359  1.88215  0.0  -0.875151  -0.000498  2.083583  0.0  -0.902675  -0.000568  2.047376  0.0  -0.63096  -0.86263  -0.000413  2.10508  0.0
O  O69  1  0.57812826  0.94857955  0.19355661  1  -0.887232  0.000373  1.836425  0.001  -0.848363  0.000268  2.01159  0.0  -0.876962  0.000129  1.972951  0.0  -0.632816  -0.836051  0.000417  2.033242  0.001
O  O70  1  0.42187259  0.05141855  0.80644301  1  -0.887157  0.000376  1.836474  0.001  -0.848282  0.000268  2.011656  0.0  -0.87688  0.000129  1.973019  0.0  -0.632798  -0.835966  0.000417  2.03331  0.001
O  O71  1  0.32980848  0.66426332  0.15055312  1  -0.940178  2.1e-05  1.91311  0.0  -0.901292  6e-06  2.111497  0.0  -0.930998  1e-06  2.074267  0.0  -0.669392  -0.887363  1.2e-05  2.132997  0.0
O  O72  1  0.67019200  0.33573373  0.84944528  1  -0.940196  2.1e-05  1.913123  0.0  -0.901315  6e-06  2.111494  0.0  -0.931023  1e-06  2.074271  0.0  -0.669406  -0.887379  1.2e-05  2.133001  0.0
