# generated using pymatgen
data_Zn4H50C72S3N20(O3F2)3
_symmetry_space_group_name_H-M   'P 1'
_cell_length_a   20.31239409
_cell_length_b   20.33335343
_cell_length_c   21.63704040
_cell_angle_alpha   107.78773548
_cell_angle_beta   108.71415277
_cell_angle_gamma   109.89106312
_symmetry_Int_Tables_number   1
_chemical_formula_structural   Zn4H50C72S3N20(O3F2)3
_chemical_formula_sum   'Zn4 H50 C72 S3 N20 O9 F6'
_cell_volume   7043.85969673
_cell_formula_units_Z   1
loop_
 _symmetry_equiv_pos_site_id
 _symmetry_equiv_pos_as_xyz
  1  'x, y, z'
loop_
 _atom_site_type_symbol
 _atom_site_label
 _atom_site_symmetry_multiplicity
 _atom_site_fract_x
 _atom_site_fract_y
 _atom_site_fract_z
 _atom_site_occupancy
 _atom_site_pbe_bader_charge
 _atom_site_pbe_bader_spin_density
 _atom_site_pbe_cm5_charge
 _atom_site_pbe_ddec_charge
 _atom_site_pbe_ddec_spin_density
 _atom_site_pbe_ddec_sum_bond_order
 _atom_site_pbe_magmom
Zn  Zn0  1  0.38915646  0.38320507  0.48678905  1  1.225976  0  0.746956  0.704354  0  2.324711  0
Zn  Zn1  1  0.61295018  0.60969673  0.50887827  1  1.203567  0  0.753588  0.654558  0  2.317723  0
Zn  Zn2  1  0.40517571  0.49661753  0.39826928  1  1.20022  0  0.758025  0.687161  0  2.33125  0
Zn  Zn3  1  0.61310160  0.51943950  0.61370255  1  1.193955  0  0.761561  0.658451  0  2.334869  0
H  H4  1  0.24704537  0.22022240  0.34137849  1  0.113904  0  0.115823  0.111354  0  1.007403  0
H  H5  1  0.67165965  0.50122368  0.42059101  1  0.116006  0  0.117096  0.106316  0  1.037495  0
H  H6  1  0.43287752  0.02206254  0.45398183  1  0.006471  0  0.089257  0.083608  0  0.986046  0
H  H7  1  0.40107086  0.89778433  0.44855459  1  0.045141  0  0.09476  0.096039  0  0.975562  0
H  H8  1  0.37654124  0.92112189  0.52068918  1  0.010319  0  0.095177  0.095531  0  0.971662  0
H  H9  1  0.58562929  0.13748634  0.68856868  1  0.032388  0  0.097042  0.098206  0  0.972965  0
H  H10  1  0.48145075  0.09477925  0.65198839  1  0.024496  0  0.095129  0.096828  0  0.971742  0
H  H11  1  0.58125942  0.01713782  0.67552554  1  0.03022  0  0.094044  0.093977  0  0.975114  0
H  H12  1  0.64341296  0.11773692  0.60086600  1  0.047059  0  0.094682  0.094063  0  0.97335  0
H  H13  1  0.62048303  0.98864101  0.57362981  1  0.032152  0  0.093123  0.091398  0  0.979271  0
H  H14  1  0.47998978  0.97938276  0.65318592  1  0.025088  0  0.093995  0.093076  0  0.978205  0
H  H15  1  0.58873365  0.75217557  0.59690746  1  0.127717  0  0.11622  0.106116  0  1.040671  0
H  H16  1  0.96828584  0.30636389  0.41061997  1  0.05324  0  0.100736  0.108317  0  0.966413  0
H  H17  1  0.41818733  0.37348381  0.27885789  1  0.114488  0  0.12343  0.118671  0  0.99547  0
H  H18  1  0.87090697  0.31165268  0.44491330  1  0.051513  0  0.099158  0.109349  0  0.972604  0
H  H19  1  0.96240639  0.52972312  0.52777975  1  0.058755  0  0.105881  0.056764  0  0.944608  0
H  H20  1  0.04884026  0.43917886  0.52842903  1  0.072271  0  0.107828  0.130116  0  0.958674  0
H  H21  1  0.07572757  0.52849380  0.52205840  1  0.082544  0  0.103833  0.123371  0  0.967045  0
H  H22  1  0.89396535  0.50881315  0.40125991  1  0.133605  0  0.128297  0.143974  0  0.944354  0
H  H23  1  0.95089040  0.42909340  0.31527846  1  0.075064  0  0.107576  0.056974  0  0.972317  0
H  H24  1  0.81184489  0.28935378  0.35351687  1  0.052852  0  0.099739  0.11394  0  0.972109  0
H  H25  1  0.91704509  0.30359630  0.32601660  1  0.079373  0  0.094748  0.099701  0  0.987808  0
H  H26  1  0.61960940  0.65569217  0.73944004  1  0.1092  0  0.1229  0.114527  0  0.999027  0
H  H27  1  0.64712787  0.37166421  0.57297160  1  0.119466  0  0.122967  0.114608  0  1.010469  0
H  H28  1  0.40537075  0.35872779  0.14906311  1  0.05457  0  0.106787  0.108836  0  0.987683  0
H  H29  1  0.41048357  0.33953284  0.03188008  1  0.106537  0  0.112484  0.1164  0  0.999459  0
H  H30  1  0.37230655  0.33460626  0.84392145  1  0.115512  0  0.121552  0.146336  0  0.976792  0
H  H31  1  0.66201344  0.48342387  0.26912477  1  0.092743  0  0.107202  0.11057  0  0.994455  0
H  H32  1  0.66711882  0.46762111  0.15285126  1  0.120222  0  0.124014  0.140908  0  0.968551  0
H  H33  1  0.62147353  0.51665148  0.86382354  1  0.118365  0  0.111828  0.124354  0  1.016944  0
H  H34  1  0.72400965  0.77141730  0.86459270  1  0.052665  0  0.104213  0.109673  0  0.992509  0
H  H35  1  0.64126377  0.57842787  0.35455663  1  0.114393  0  0.12612  0.113666  0  0.979376  0
H  H36  1  0.79816568  0.89501761  0.98299319  1  0.104289  0  0.110785  0.114472  0  1.00395  0
H  H37  1  0.74028803  0.80350571  0.66029930  1  0.118078  0  0.124374  0.113819  0  0.980322  0
H  H38  1  0.96423476  0.04580485  0.17967966  1  0.092969  0  0.107666  0.111191  0  0.992337  0
H  H39  1  0.10305949  0.14698912  0.27696202  1  0.035606  0  0.101116  0.104385  0  0.996565  0
H  H40  1  0.72618058  0.91008134  0.74716117  1  0.064679  0  0.108163  0.132407  0  0.990248  0
H  H41  1  0.97095362  0.17931156  0.05934734  1  0.078074  0  0.107472  0.111219  0  1.011107  0
H  H42  1  0.10925252  0.28020050  0.15513250  1  0.063124  0  0.100195  0.099199  0  1.001788  0
H  H43  1  0.77466604  0.48798065  0.62215068  1  0.09036  0  0.128114  0.119462  0  0.973957  0
H  H44  1  0.22906901  0.38194107  0.25339584  1  0.091898  0  0.121596  0.109772  0  0.99232  0
H  H45  1  0.37263725  0.41208163  0.64401984  1  0.149863  0  0.117702  0.111958  0  1.001697  0
H  H46  1  0.81288522  0.32869164  0.20307497  1  0.643437  0  0.362001  0.413053  0  0.822404  0
H  H47  1  0.60549168  0.46599494  0.04466267  1  0.559098  0  0.305105  0.246225  0  1.059071  0
H  H48  1  0.22800432  0.36360957  0.48652018  1  0.101699  0  0.128949  0.12463  0  0.970719  0
H  H49  1  0.33855128  0.11314095  0.44295019  1  0.642598  0  0.357017  0.408021  0  0.837  0
H  H50  1  0.62827044  0.51058804  0.76504185  1  0.112427  0  0.127391  0.118529  0  0.98784  0
H  H51  1  0.54823314  0.95081059  0.48185406  1  0.035059  0  0.093511  0.092875  0  0.974746  0
H  H52  1  0.58416310  0.08178164  0.50561656  1  0.02506  0  0.092691  0.091616  0  0.978246  0
H  H53  1  0.39266924  0.03849886  0.51538847  1  0.001787  0  0.087996  0.079776  0  0.992862  0
C  C54  1  0.25576788  0.26888186  0.32816698  1  0.400282  0  0.006463  -0.040586  0  3.968231  0
C  C55  1  0.25509918  0.41269519  0.47655697  1  0.444022  0  0.026181  -0.017285  0  3.935874  0
C  C56  1  0.56701823  0.48914718  0.72631298  1  0.400596  0  0.016852  -0.046506  0  3.967135  0
C  C57  1  0.68958973  0.50467442  0.47484365  1  0.465305  0  0.01988  -0.021782  0  3.926676  0
C  C58  1  0.43419171  0.66637395  0.43593019  1  1.055061  0  0.210234  0.341884  0  4.085824  0
C  C59  1  0.49703113  0.45639248  0.73171365  1  0.035425  0  -0.033944  -0.027027  0  4.068446  0
C  C60  1  0.48340963  0.73489257  0.50428800  1  0.17298  0  -0.034291  -0.060535  0  4.201877  0
C  C61  1  0.22098332  0.45440432  0.44950013  1  0.16254  0  -0.035566  -0.07177  0  4.221734  0
C  C62  1  0.69125254  0.76040932  0.72880563  1  0.06167  0  -0.031252  -0.041414  0  4.065064  0
C  C63  1  0.58450828  0.07340698  0.55351674  1  -0.031125  0  -0.154009  -0.185707  0  3.855098  0
C  C64  1  0.43701899  0.02329384  0.50632474  1  -0.007779  0  -0.155636  -0.184227  0  3.864359  0
C  C65  1  0.73954249  0.47815584  0.50829346  1  0.104747  0  -0.025049  0.048173  0  4.176622  0
C  C66  1  0.42225234  0.94285637  0.50438832  1  -0.010551  0  -0.153492  -0.185482  0  3.84624  0
C  C67  1  0.48413850  0.80787305  0.52730441  1  -0.476262  0  -0.069017  -0.106131  0  4.222416  0
C  C68  1  0.52108413  0.08978253  0.56955625  1  0.137491  0  -0.000337  0.176012  0  3.897803  0
C  C69  1  0.47285851  0.42948924  0.30806910  1  0.423762  0  0.015741  -0.033804  0  3.944216  0
C  C70  1  0.56713649  0.98879568  0.53965187  1  -0.02816  0  -0.155748  -0.186489  0  3.852414  0
C  C71  1  0.50021921  0.95111687  0.55792967  1  0.134675  0  -0.000419  0.183755  0  3.893616  0
C  C72  1  0.52385730  0.00763823  0.63741139  1  -0.01335  0  -0.15298  -0.187566  0  3.842624  0
C  C73  1  0.52892845  0.08721026  0.64232135  1  -0.016192  0  -0.152473  -0.187688  0  3.833865  0
C  C74  1  0.48935799  0.87310648  0.54669339  1  0.146323  0  -0.049417  -0.128825  0  4.074598  0
C  C75  1  0.53006579  0.16416994  0.57083955  1  -0.0886  0  -0.032894  -0.085057  0  4.052475  0
C  C76  1  0.53128379  0.45851510  0.28746168  1  -0.003307  0  -0.030534  -0.043017  0  4.066889  0
C  C77  1  0.53344340  0.22140280  0.56211355  1  -0.253677  0  -0.072563  -0.152211  0  4.202085  0
C  C78  1  0.86966801  0.33126683  0.40282440  1  -0.017371  0  -0.158901  -0.197376  0  3.840794  0
C  C79  1  0.95581668  0.47007606  0.50688396  1  0.503637  0  0.032106  0.201737  0  3.771694  0
C  C80  1  0.02695981  0.46861833  0.49861553  1  -0.046204  0  -0.159555  -0.281374  0  3.872168  0
C  C81  1  0.58397342  0.35069789  0.55342787  1  0.435968  0  0.019219  -0.047303  0  3.893628  0
C  C82  1  0.14327233  0.44224964  0.42961327  1  -0.243832  0  -0.054014  -0.07104  0  4.194359  0
C  C83  1  0.87693296  0.41421443  0.43239598  1  0.112668  0  0.000605  0.120143  0  3.889882  0
C  C84  1  0.93890737  0.33490966  0.38567222  1  -0.069387  0  -0.154687  -0.191303  0  3.841239  0
C  C85  1  0.00275123  0.42185011  0.41647047  1  0.126103  0  -0.001834  0.129767  0  3.91592  0
C  C86  1  0.96328218  0.45724605  0.37282138  1  0.520057  0  0.030813  0.172704  0  3.791174  0
C  C87  1  0.52715165  0.28222186  0.54721651  1  0.121097  0  -0.010577  0.079394  0  4.163656  0
C  C88  1  0.88767801  0.44926638  0.37939285  1  -0.14489  0  -0.065704  -0.262551  0  3.732827  0
C  C89  1  0.07502740  0.42810241  0.41339234  1  -0.068765  0  -0.058414  -0.139635  0  4.053946  0
C  C90  1  0.81530516  0.42093959  0.45002265  1  0.0677  0  -0.059964  -0.130582  0  4.076046  0
C  C91  1  0.78020933  0.44580205  0.47851792  1  -0.385968  0  -0.05427  -0.093583  0  4.156047  0
C  C92  1  0.49439298  0.44183258  0.79235875  1  0.03377  0  0.006434  0.020975  0  4.019309  0
C  C93  1  0.58711862  0.53413142  0.34761389  1  0.390832  0  0.020357  -0.035734  0  3.976124  0
C  C94  1  0.56594441  0.47565631  0.85790173  1  -0.003255  0  -0.078805  -0.117452  0  3.956669  0
C  C95  1  0.57151034  0.45957491  0.91635018  1  -0.138136  0  -0.010054  -0.129114  0  3.847671  0
C  C96  1  0.49982181  0.40761608  0.91254096  1  0.484565  0  0.101186  0.173146  0  4.027838  0
C  C97  1  0.42709570  0.37417753  0.84763712  1  0.01214  0  -0.08148  -0.251359  0  3.946517  0
C  C98  1  0.43632807  0.43821983  0.66372420  1  0.405239  0  0.012086  -0.038357  0  3.978385  0
C  C99  1  0.42528639  0.39139426  0.79054185  1  0.443766  0  0.09968  0.244667  0  4.040718  0
C  C100  1  0.46492488  0.37067039  0.08413887  1  0.000634  0  -0.080079  -0.143242  0  3.975034  0
C  C101  1  0.46272968  0.38158323  0.14975023  1  -0.030268  0  -0.0826  -0.116796  0  3.969106  0
C  C102  1  0.53891974  0.40669423  0.08644074  1  0.349555  0  0.099925  0.170032  0  4.017064  0
C  C103  1  0.53328757  0.42807511  0.21813828  1  0.015601  0  0.006053  0.102405  0  4.008919  0
C  C104  1  0.60684673  0.45365015  0.21765080  1  -0.012709  0  -0.082119  -0.116419  0  3.969206  0
C  C105  1  0.45652584  0.28615990  0.51828717  1  0.27513  0  0.072702  -0.100626  0  4.014132  0
C  C106  1  0.61013964  0.44411584  0.15279554  1  -0.032324  0  -0.068369  -0.128459  0  3.92606  0
C  C107  1  0.11763502  0.21970911  0.22197310  1  -0.005941  0  -0.003856  0.097013  0  4.03059  0
C  C108  1  0.07759666  0.22927925  0.16130780  1  -0.076222  0  -0.091547  -0.125471  0  3.987974  0
C  C109  1  0.53876625  0.71558128  0.54174706  1  0.418412  0  0.018961  -0.010255  0  3.94261  0
C  C110  1  0.00034291  0.17360580  0.10773265  1  0.017555  0  -0.086478  -0.137143  0  3.971314  0
C  C111  1  0.95984939  0.10550503  0.11302037  1  0.338387  0  0.080676  0.16301  0  4.059276  0
C  C112  1  0.99685263  0.09814817  0.17577057  1  -0.050342  0  -0.08257  -0.13721  0  3.977809  0
C  C113  1  0.07460599  0.15436484  0.22934322  1  -0.008697  0  -0.094787  -0.134378  0  3.985689  0
C  C114  1  0.77993691  0.89669433  0.93058655  1  -0.04705  0  -0.080281  -0.11141  0  3.969414  0
C  C115  1  0.73898248  0.82814122  0.86434498  1  0.02297  0  -0.095121  -0.143344  0  3.987172  0
C  C116  1  0.80541718  0.97162801  0.93284857  1  0.405569  0  0.075689  0.055898  0  4.065683  0
C  C117  1  0.74257904  0.49742761  0.57777134  1  0.424692  0  0.02104  -0.039783  0  3.947418  0
C  C118  1  0.72207789  0.83110336  0.79690294  1  0.025528  0  -0.001537  0.120075  0  4.044713  0
C  C119  1  0.74096764  0.90476905  0.79785211  1  0.049279  0  -0.108131  -0.273845  0  3.99006  0
C  C120  1  0.28436682  0.50956867  0.44822588  1  1.030028  0  0.204864  0.327114  0  4.079559  0
C  C121  1  0.78099392  0.97278368  0.86458767  1  0.416518  0  0.106244  0.24493  0  4.037456  0
C  C122  1  0.24639383  0.35081415  0.28268329  1  0.367632  0  0.011471  -0.046484  0  3.982213  0
C  C123  1  0.20115063  0.27565233  0.27411781  1  0.08172  0  -0.035638  -0.044182  0  4.086393  0
C  C124  1  0.64506233  0.68083279  0.70965405  1  0.365686  0  0.015115  -0.033235  0  3.948734  0
C  C125  1  0.70608691  0.75605588  0.66876851  1  0.369234  0  0.016052  -0.039859  0  3.974962  0
S  S126  1  0.80059576  0.40074996  0.28902988  1  2.997881  0  0.540635  1.160353  0  5.90417  0
S  S127  1  0.67275386  0.50182641  0.98771821  1  3.231655  0  0.48185  1.144302  0  6.275478  0
S  S128  1  0.36253015  0.23005752  0.50519670  1  3.053308  0  0.55713  1.16183  0  5.98306  0
N  N129  1  0.32738134  0.33482232  0.36655579  1  -0.787234  0  -0.27467  -0.229447  0  3.453394  0
N  N130  1  0.54752585  0.41630234  0.02793562  1  -0.678158  0  -0.187342  -0.029786  0  3.649291  0
N  N131  1  0.88833205  0.03848675  0.05525101  1  -0.490232  0  -0.161703  -0.154729  0  3.279768  0
N  N132  1  0.66570050  0.53775022  0.52078835  1  -0.807904  0  -0.275192  -0.215084  0  3.566461  0
N  N133  1  0.86337858  0.04346138  0.99566517  1  -0.50205  0  -0.162327  -0.130968  0  3.316448  0
N  N134  1  0.49282147  0.48361594  0.37515419  1  -0.811415  0  -0.277219  -0.212661  0  3.529186  0
N  N135  1  0.54967355  0.39178945  0.53099595  1  -0.689816  0  -0.240276  -0.166051  0  3.418204  0
N  N136  1  0.56332824  0.54861681  0.39893304  1  -0.781885  0  -0.28106  -0.17643  0  3.590158  0
N  N137  1  0.47135266  0.35085959  0.50803681  1  -0.727783  0  -0.262207  -0.170444  0  3.676874  0
N  N138  1  0.69848277  0.53319363  0.58474056  1  -0.788711  0  -0.29002  -0.199881  0  3.576273  0
N  N139  1  0.32081466  0.38515100  0.33756399  1  -0.830376  0  -0.288952  -0.190975  0  3.654802  0
N  N140  1  0.52390967  0.64304770  0.49890300  1  -0.797123  0  -0.281255  -0.214217  0  3.548218  0
N  N141  1  0.46721626  0.45800749  0.62181854  1  -0.734209  0  -0.255317  -0.223253  0  3.369977  0
N  N142  1  0.34993470  0.50221849  0.47056762  1  -0.7751  0  -0.276601  -0.321114  0  3.405386  0
N  N143  1  0.63350847  0.63342339  0.64356586  1  -0.813177  0  -0.281728  -0.209859  0  3.574894  0
N  N144  1  0.67194813  0.68007620  0.61859643  1  -0.79615  0  -0.281989  -0.183408  0  3.56689  0
N  N145  1  0.33071804  0.44179043  0.48905987  1  -0.779928  0  -0.287541  -0.168001  0  3.64967  0
N  N146  1  0.54817979  0.48877997  0.66090260  1  -0.831611  0  -0.283196  -0.17187  0  3.655247  0
N  N147  1  0.45758948  0.61195222  0.43205365  1  -0.823147  0  -0.300376  -0.311361  0  3.57193  0
N  N148  1  0.48822336  0.38563883  0.96414461  1  -0.526515  0  -0.148828  -0.122281  0  3.218984  0
O  O149  1  0.72954315  0.37273617  0.29570401  1  -1.27584  0  -0.293778  -0.499491  0  2.14854  0
O  O150  1  0.81494630  0.45125951  0.25493433  1  -1.276297  0  -0.318555  -0.538894  0  2.083361  0
O  O151  1  0.80471858  0.32309057  0.24382858  1  -1.192135  0  -0.360815  -0.543285  0  2.131246  0
O  O152  1  0.68360937  0.43294619  0.97910016  1  -1.297987  0  -0.370455  -0.589025  0  2.05197  0
O  O153  1  0.72238569  0.56055095  0.97451015  1  -1.321851  0  -0.356067  -0.567949  0  2.098807  0
O  O154  1  0.66969951  0.53744053  0.05785825  1  -1.293943  0  -0.366061  -0.588035  0  2.140136  0
O  O155  1  0.36648813  0.21128641  0.56442073  1  -1.266801  0  -0.289693  -0.498551  0  2.107763  0
O  O156  1  0.31762736  0.26958233  0.48479569  1  -1.302821  0  -0.296301  -0.509369  0  2.239406  0
O  O157  1  0.32190466  0.14941605  0.43041191  1  -1.194368  0  -0.349155  -0.519825  0  2.12315  0
F  F158  1  0.28315319  0.56396093  0.42585807  1  -0.632195  0  -0.083059  -0.128831  0  1.383149  0
F  F159  1  0.37155792  0.65254299  0.37793419  1  -0.635289  0  -0.088802  -0.133556  0  1.35062  0
F  F160  1  0.94837611  0.44431415  0.55927117  1  -0.625355  0  -0.149119  -0.208677  0  1.231486  0
F  F161  1  0.01585365  0.53841745  0.40204913  1  -0.624296  0  -0.141793  -0.189273  0  1.22994  0
F  F162  1  0.35363688  0.35705752  0.72939531  1  -0.63422  0  -0.103811  -0.145584  0  1.320387  0
F  F163  1  0.80018788  0.04316019  0.86356937  1  -0.625267  0  -0.109599  -0.149838  0  1.325883  0
