# generated using pymatgen
data_ZnH11C13INO5
_symmetry_space_group_name_H-M   'P 1'
_cell_length_a   9.67921994
_cell_length_b   11.08142025
_cell_length_c   11.21998984
_cell_angle_alpha   93.18491438
_cell_angle_beta   74.77135557
_cell_angle_gamma   89.44331134
_symmetry_Int_Tables_number   1
_chemical_formula_structural   ZnH11C13INO5
_chemical_formula_sum   'Zn2 H22 C26 I2 N2 O10'
_cell_volume   1159.02902607
_cell_formula_units_Z   2
loop_
 _symmetry_equiv_pos_site_id
 _symmetry_equiv_pos_as_xyz
  1  'x, y, z'
loop_
 _atom_site_type_symbol
 _atom_site_label
 _atom_site_symmetry_multiplicity
 _atom_site_fract_x
 _atom_site_fract_y
 _atom_site_fract_z
 _atom_site_occupancy
 _atom_site_pbe_bader_charge
 _atom_site_pbe_bader_spin_density
 _atom_site_pbe_cm5_charge
 _atom_site_pbe_ddec_charge
 _atom_site_pbe_ddec_spin_density
 _atom_site_pbe_ddec_sum_bond_order
 _atom_site_pbe_magmom
Zn  Zn0  1  0.36812845  0.50784732  0.50364319  1  1.282356  0  0.673261  0.820634  0  2.423294  0
Zn  Zn1  1  0.65779518  0.50250356  0.48603359  1  1.279912  0  0.669305  0.813625  0  2.417068  0
H  H2  1  0.62213052  0.50689402  0.87344920  1  0.107522  0  0.111839  0.121712  0  0.98525  0
H  H3  1  0.70595384  0.12479521  0.55613735  1  0.122707  0  0.102861  0.12186  0  1.026517  0
H  H4  1  0.16789686  0.89403015  0.53160068  1  0.078812  0  0.10236  0.057574  0  0.996041  0
H  H5  1  0.26188485  0.09760482  0.35644465  1  0.090519  0  0.105095  0.113792  0  0.977987  0
H  H6  1  0.67360126  0.74159196  0.66766249  1  0.093933  0  0.091025  0.058245  0  1.047559  0
H  H7  1  0.60903504  0.87619038  0.76120378  1  0.031324  0  0.099057  0.061182  0  0.961565  0
H  H8  1  0.85917306  0.92628011  0.76776593  1  0.060846  0  0.088632  0.123313  0  1.010842  0
H  H9  1  0.81607065  0.77924582  0.82158293  1  0.013438  0  0.090257  0.1226  0  0.996817  0
H  H10  1  0.92715230  0.79624852  0.66935827  1  0.021833  0  0.084708  0.112412  0  1.030266  0
H  H11  1  0.14056604  0.72842923  0.44095565  1  0.030258  0  0.087856  0.040354  0  1.03158  0
H  H12  1  0.23154660  0.68928103  0.28436488  1  0.046077  0  0.090925  0.057291  0  1.002256  0
H  H13  1  0.82149315  0.57819551  0.67392295  1  0.14335  0  0.130673  0.111623  0  1.009077  0
H  H14  1  0.06884224  0.83404073  0.21498679  1  0.044875  0  0.081807  0.115208  0  1.016812  0
H  H15  1  0.96956835  0.72090741  0.30521800  1  0.039117  0  0.084579  0.125724  0  1.003209  0
H  H16  1  0.97290398  0.86868497  0.37303821  1  0.036126  0  0.086937  0.131029  0  1.011033  0
H  H17  1  0.07998835  0.58099697  0.68089856  1  0.142919  0  0.129733  0.111842  0  0.99071  0
H  H18  1  0.23743004  0.43598876  0.21376383  1  0.082331  0  0.099206  0.119003  0  1.030569  0
H  H19  1  0.22047732  0.29437240  0.28471501  1  0.100998  0  0.109299  0.137518  0  0.972813  0
H  H20  1  0.97887709  0.43049314  0.20796930  1  0.097924  0  0.101536  0.125452  0  1.000484  0
H  H21  1  0.95944646  0.28982483  0.28088692  1  0.101382  0  0.114455  0.141814  0  0.956288  0
H  H22  1  0.39722406  0.56375266  0.12716629  1  0.090245  0  0.095594  0.088507  0  1.055194  0
H  H23  1  0.71449974  0.47986247  0.06276271  1  0.086175  0  0.105916  0.120973  0  0.991632  0
C  C24  1  0.51022568  0.27136917  0.49755990  1  1.593449  0  0.214625  0.597044  0  4.173756  0
C  C25  1  0.90681488  0.54078763  0.59660584  1  0.415917  0  0.061017  0.044332  0  3.866391  0
C  C26  1  0.04947440  0.54232752  0.60029352  1  0.502639  0  0.061239  0.038199  0  3.891324  0
C  C27  1  0.57996324  0.50590013  0.25443118  1  1.575381  0  0.208073  0.627612  0  4.183221  0
C  C28  1  0.11522188  0.44724102  0.41025932  1  0.579234  0  0.142795  0.189886  0  3.893578  0
C  C29  1  0.16848583  0.38261273  0.28414130  1  -0.025846  0  -0.142033  -0.228524  0  3.81764  0
C  C30  1  0.00541110  0.37998153  0.28068327  1  -0.048098  0  -0.141158  -0.23243  0  3.827129  0
C  C31  1  0.50964762  0.74103717  0.51071325  1  1.594069  0  0.216995  0.611871  0  4.164319  0
C  C32  1  0.44307109  0.52517533  0.73870564  1  1.62181  0  0.205181  0.597102  0  4.210079  0
C  C33  1  0.60698615  0.50673516  0.11814184  1  -0.072999  0  -0.085964  -0.212279  0  3.854533  0
C  C34  1  0.50147878  0.53620033  0.06556849  1  -0.016777  0  -0.083052  -0.024828  0  4.033064  0
C  C35  1  0.50505653  0.13778723  0.50823251  1  -0.061969  0  -0.00905  -0.032089  0  3.962709  0
C  C36  1  0.41164279  0.54445969  0.87679657  1  -0.25532  0  -0.049478  -0.077119  0  3.791409  0
C  C37  1  0.51631425  0.53019190  0.93515519  1  -0.011093  0  -0.087487  -0.085773  0  4.024502  0
C  C38  1  0.39296321  0.06701682  0.48907112  1  -0.02329  0  -0.016849  0.022704  0  3.93617  0
C  C39  1  0.70186711  0.83381845  0.69191430  1  0.383658  0  -0.072029  0.081659  0  3.892247  0
C  C40  1  0.83380729  0.83423680  0.74049350  1  -0.0545  0  -0.247338  -0.395363  0  3.984903  0
C  C41  1  0.17002897  0.76205841  0.34731833  1  0.423497  0  -0.077737  0.087015  0  3.93247  0
C  C42  1  0.03795038  0.79933628  0.30791049  1  -0.081735  0  -0.256027  -0.411338  0  3.972697  0
C  C43  1  0.61636605  0.07482816  0.53820955  1  0.02223  0  -0.088051  -0.199529  0  3.928816  0
C  C44  1  0.61857718  0.94868884  0.54737042  1  0.498402  0  0.097632  0.244518  0  4.014442  0
C  C45  1  0.50910893  0.87630250  0.51988224  1  0.003693  0  -0.013868  -0.153859  0  3.9138  0
C  C46  1  0.39697895  0.94178837  0.49478825  1  0.015435  0  -0.007745  0.010518  0  3.89055  0
C  C47  1  0.25711925  0.92482126  0.45756938  1  0.514032  0  0.010766  0.11875  0  3.877611  0
C  C48  1  0.25722520  0.06690249  0.44838309  1  -0.110829  0  -0.090316  -0.088203  0  3.692438  0
C  C49  1  0.97223420  0.44587687  0.40664059  1  0.553282  0  0.144581  0.193881  0  3.879329  0
I  I50  1  0.06581701  0.16156694  0.56911995  1  -0.03781  0  0.003792  -0.106317  0  1.297494  0
I  I51  1  0.19740187  0.58792834  0.97186228  1  0.111886  0  0.09457  -0.000176  0  1.449246  0
N  N52  1  0.86570826  0.49443296  0.49681015  1  -1.221915  0  -0.291582  -0.179381  0  3.465131  0
N  N53  1  0.15781236  0.49747562  0.50419201  1  -1.211369  0  -0.296374  -0.19421  0  3.51371  0
O  O54  1  0.40246543  0.32309621  0.47510734  1  -1.163014  0  -0.31382  -0.540441  0  2.325044  0
O  O55  1  0.26888951  0.85868560  0.34460804  1  -1.049026  0  -0.228035  -0.237851  0  2.436691  0
O  O56  1  0.62193696  0.32388174  0.51166069  1  -1.166643  0  -0.318913  -0.541081  0  2.325506  0
O  O57  1  0.45205012  0.52935049  0.31909243  1  -1.168768  0  -0.315018  -0.546383  0  2.340093  0
O  O58  1  0.68643259  0.48026426  0.29676540  1  -1.152427  0  -0.319849  -0.543427  0  2.25716  0
O  O59  1  0.38754744  0.69223286  0.53555627  1  -1.151049  0  -0.311273  -0.533911  0  2.29563  0
O  O60  1  0.63061534  0.68527412  0.47625931  1  -1.151077  0  -0.31311  -0.540086  0  2.327489  0
O  O61  1  0.33994527  0.49934856  0.69242161  1  -1.161008  0  -0.316014  -0.535023  0  2.343094  0
O  O62  1  0.57365054  0.53561257  0.67969572  1  -1.165542  0  -0.310231  -0.550351  0  2.344587  0
O  O63  1  0.73295852  0.90438797  0.58345213  1  -1.071492  0  -0.19578  -0.228403  0  2.521779  0
