# generated using pymatgen
data_CdH15C18(NO)5
_symmetry_space_group_name_H-M   'P 1'
_cell_length_a   10.14289552
_cell_length_b   11.17391333
_cell_length_c   11.45694503
_cell_angle_alpha   93.21128608
_cell_angle_beta   95.13652751
_cell_angle_gamma   109.79095107
_symmetry_Int_Tables_number   1
_chemical_formula_structural   CdH15C18(NO)5
_chemical_formula_sum   'Cd2 H30 C36 N10 O10'
_cell_volume   1211.70573485
_cell_formula_units_Z   2
loop_
 _symmetry_equiv_pos_site_id
 _symmetry_equiv_pos_as_xyz
  1  'x, y, z'
loop_
 _atom_site_type_symbol
 _atom_site_label
 _atom_site_symmetry_multiplicity
 _atom_site_fract_x
 _atom_site_fract_y
 _atom_site_fract_z
 _atom_site_occupancy
 _atom_site_pbe_bader_charge
 _atom_site_pbe_bader_spin_density
 _atom_site_pbe_cm5_charge
 _atom_site_pbe_ddec_charge
 _atom_site_pbe_ddec_spin_density
 _atom_site_pbe_ddec_sum_bond_order
 _atom_site_pbe_magmom
Cd  Cd0  1  0.61048261  0.77470647  0.91060454  1  1.273144  0  0.764356  0.905533  0  2.150384  0
Cd  Cd1  1  0.38951766  0.22529318  0.08939585  1  1.273141  0  0.764358  0.905521  0  2.150345  0
H  H2  1  0.05176717  0.19531255  0.10921855  1  0.55234  0  0.306051  0.29371  0  1.004908  0
H  H3  1  0.94823211  0.80468710  0.89078089  1  0.552326  0  0.306048  0.293702  0  1.004911  0
H  H4  1  0.39071663  0.52571015  0.87560842  1  0.660032  0  0.284204  0.385473  0  0.961459  0
H  H5  1  0.60928364  0.47428951  0.12439109  1  0.660021  0  0.284199  0.38547  0  0.961458  0
H  H6  1  0.46504877  0.54421143  0.75745678  1  0.595251  0  0.319728  0.397958  0  0.88196  0
H  H7  1  0.53494962  0.45579109  0.24253663  1  0.595263  0  0.319723  0.398014  0  0.881839  0
H  H8  1  0.66569068  0.87897931  0.50875624  1  0.067571  0  0.098027  0.099015  0  1.024487  0
H  H9  1  0.33431120  0.12101938  0.49124510  1  0.067619  0  0.098024  0.099051  0  1.024472  0
H  H10  1  0.38788280  0.03096597  0.67834599  1  0.093961  0  0.096014  0.098994  0  1.027591  0
H  H11  1  0.61211648  0.96903368  0.32165432  1  0.093954  0  0.095989  0.09898  0  1.027641  0
H  H12  1  0.97026202  0.60825056  0.82130278  1  0.087735  0  0.107781  0.111764  0  0.991484  0
H  H13  1  0.02973690  0.39174814  0.17869133  1  0.087551  0  0.107777  0.11174  0  0.991497  0
H  H14  1  0.83463489  0.47866509  0.15204314  1  0.09563  0  0.107617  0.114644  0  1.008716  0
H  H15  1  0.16536204  0.52133361  0.84794994  1  0.095584  0  0.107602  0.114631  0  1.008678  0
H  H16  1  0.69490120  0.72836972  0.18199176  1  0.083946  0  0.100487  0.110156  0  1.046106  0
H  H17  1  0.30509771  0.27162898  0.81800759  1  0.083853  0  0.100486  0.110157  0  1.046127  0
H  H18  1  0.83501117  0.73410309  0.37425906  1  0.047726  0  0.101907  0.101679  0  0.989811  0
H  H19  1  0.16498946  0.26589752  0.62574054  1  0.047713  0  0.101899  0.101666  0  0.989811  0
H  H20  1  0.04771659  0.92019013  0.44608828  1  0.085088  0  0.101532  0.101135  0  1.012056  0
H  H21  1  0.95227513  0.07981048  0.55391410  1  0.085051  0  0.101552  0.101163  0  1.012004  0
H  H22  1  0.12615742  0.11063685  0.33152558  1  0.113258  0  0.108759  0.135725  0  1.011966  0
H  H23  1  0.87384222  0.88936376  0.66847656  1  0.113265  0  0.108753  0.135736  0  1.01197  0
H  H24  1  0.94426993  0.19339735  0.89677783  1  0.102868  0  0.124906  0.124767  0  0.975796  0
H  H25  1  0.05573033  0.80660230  0.10322081  1  0.102876  0  0.124907  0.124756  0  0.975791  0
H  H26  1  0.81178573  0.04911497  0.83318193  1  0.140451  0  0.124987  0.124971  0  1.000912  0
H  H27  1  0.18821391  0.95088564  0.16681759  1  0.140373  0  0.124984  0.124959  0  1.000908  0
H  H28  1  0.63841689  0.11204988  0.07241056  1  0.249438  0  0.143392  0.133846  0  1.023043  0
H  H29  1  0.36158338  0.88794978  0.92758982  1  0.249435  0  0.143385  0.133839  0  1.023068  0
H  H30  1  0.56338460  0.34370218  0.81713590  1  0.108376  0  0.135883  0.099023  0  0.972423  0
H  H31  1  0.43661504  0.65629843  0.18286449  1  0.108388  0  0.135895  0.099046  0  0.972403  0
C  C32  1  0.56161266  0.89675464  0.71616532  1  1.499219  0  0.187734  0.558744  0  4.227053  0
C  C33  1  0.43838725  0.10324406  0.28383498  1  1.499358  0  0.187691  0.558622  0  4.227175  0
C  C34  1  0.59350613  0.93240801  0.50404879  1  -0.069042  0  -0.089074  -0.101729  0  3.98324  0
C  C35  1  0.40649810  0.06759164  0.49595191  1  -0.069144  0  -0.089092  -0.101886  0  3.983339  0
C  C36  1  0.53006839  0.94995816  0.60441637  1  -0.008737  0  -0.017623  -0.021862  0  3.965759  0
C  C37  1  0.46992969  0.05003576  0.39558178  1  -0.008988  0  -0.017582  -0.021706  0  3.965745  0
C  C38  1  0.43628929  0.01788981  0.59967772  1  -0.015123  0  -0.087392  -0.094327  0  3.977398  0
C  C39  1  0.56371223  0.98210794  0.40032266  1  -0.015328  0  -0.087417  -0.094441  0  3.977487  0
C  C40  1  0.77628679  0.60664593  0.96929547  1  1.548368  0  0.203852  0.556945  0  4.220156  0
C  C41  1  0.22371321  0.39335564  0.03070412  1  1.548375  0  0.203818  0.556862  0  4.220142  0
C  C42  1  0.98458777  0.56171893  0.90009677  1  -0.064159  0  -0.08386  -0.094938  0  3.97104  0
C  C43  1  0.01540989  0.43828168  0.09990084  1  -0.063787  0  -0.083911  -0.09495  0  3.971023  0
C  C44  1  0.89064354  0.55022671  0.98521201  1  -0.017975  0  -0.018421  -0.040901  0  3.986582  0
C  C45  1  0.10935412  0.44977390  0.01478647  1  -0.018262  0  -0.01839  -0.040838  0  3.986472  0
C  C46  1  0.90683539  0.48777212  0.08545361  1  -0.023904  0  -0.082338  -0.08954  0  3.953668  0
C  C47  1  0.09316362  0.51222944  0.91454417  1  -0.023711  0  -0.082368  -0.089562  0  3.953649  0
C  C48  1  0.82966665  0.91821430  0.15068527  1  0.320403  0  0.080281  0.139948  0  4.058052  0
C  C49  1  0.17033237  0.08178726  0.84931424  1  0.320008  0  0.080303  0.139983  0  4.057954  0
C  C50  1  0.78544731  0.81204003  0.21591946  1  -0.006679  0  -0.098417  -0.16649  0  3.996957  0
C  C51  1  0.21454774  0.18796153  0.78408149  1  -0.006208  0  -0.098425  -0.166514  0  3.99695  0
C  C52  1  0.86532237  0.81596795  0.32224418  1  -0.044248  0  -0.098118  -0.092106  0  4.035047  0
C  C53  1  0.13467591  0.18403170  0.67775431  1  -0.044249  0  -0.098109  -0.092073  0  4.034971  0
C  C54  1  0.98629056  0.92258850  0.36379481  1  0.006612  0  -0.092889  -0.083964  0  4.029218  0
C  C55  1  0.01370637  0.07741020  0.63620438  1  0.006663  0  -0.092901  -0.084001  0  4.029178  0
C  C56  1  0.02999272  0.03021986  0.30176679  1  0.017075  0  -0.094802  -0.175023  0  3.980273  0
C  C57  1  0.97000593  0.96978075  0.69823702  1  0.017105  0  -0.094783  -0.17504  0  3.980312  0
C  C58  1  0.94927689  0.02601788  0.19499547  1  0.307761  0  0.092552  0.147514  0  4.01614  0
C  C59  1  0.05072473  0.97398273  0.80500507  1  0.307723  0  0.092531  0.147517  0  4.016156  0
C  C60  1  0.86193181  0.05519941  0.01879242  1  1.044052  0  0.22659  0.330067  0  3.995727  0
C  C61  1  0.13806919  0.94480215  0.98120812  1  1.043647  0  0.226589  0.329975  0  3.995789  0
C  C62  1  0.84482836  0.11940485  0.91049527  1  0.300377  0  -0.032999  -0.188508  0  3.886043  0
C  C63  1  0.15517128  0.88059576  0.08950425  1  0.300457  0  -0.032959  -0.188391  0  3.886028  0
C  C64  1  0.64569836  0.16716207  0.99673002  1  0.961899  0  0.161071  0.085752  0  3.884864  0
C  C65  1  0.35430227  0.83283854  0.00326958  1  0.961876  0  0.161079  0.085779  0  3.884865  0
C  C66  1  0.60837803  0.28345622  0.86568893  1  0.992504  0  0.146916  0.145559  0  4.016523  0
C  C67  1  0.39162197  0.71654535  0.13431154  1  0.992478  0  0.14691  0.145577  0  4.016524  0
N  N68  1  0.77805115  0.93941347  0.04013202  1  -1.196651  0  -0.348497  -0.416579  0  3.393545  0
N  N69  1  0.22194599  0.06059096  0.95986925  1  -1.196248  0  -0.348521  -0.416568  0  3.393511  0
N  N70  1  0.96511004  0.11092401  0.10960987  1  -1.311937  0  -0.373042  -0.312606  0  3.562156  0
N  N71  1  0.03489122  0.88907564  0.89039059  1  -1.311897  0  -0.373037  -0.312575  0  3.562119  0
N  N72  1  0.56150383  0.23274637  0.96626611  1  -1.21947  0  -0.349197  -0.322679  0  3.470767  0
N  N73  1  0.43849544  0.76725328  0.03373419  1  -1.21946  0  -0.349226  -0.322731  0  3.470773  0
N  N74  1  0.71625929  0.25337612  0.83259010  1  -0.659684  0  -0.227449  -0.269995  0  3.070821  0
N  N75  1  0.28374217  0.74662926  0.16741069  1  -0.659628  0  -0.227416  -0.26999  0  3.070967  0
N  N76  1  0.73832191  0.18003164  0.91784877  1  -0.815131  0  -0.129794  0.18291  0  3.74338  0
N  N77  1  0.26167810  0.81996992  0.08215083  1  -0.815141  0  -0.129852  0.182825  0  3.743568  0
O  O78  1  0.50903592  0.92065201  0.80775807  1  -1.182242  0  -0.337207  -0.57454  0  2.197537  0
O  O79  1  0.49096435  0.07934764  0.19224231  1  -1.182246  0  -0.337194  -0.574489  0  2.19753  0
O  O80  1  0.64175544  0.82909569  0.71699143  1  -1.13442  0  -0.345286  -0.573306  0  2.179801  0
O  O81  1  0.35824483  0.17090396  0.28300895  1  -1.134394  0  -0.345265  -0.573256  0  2.17977  0
O  O82  1  0.79192726  0.69196086  0.89526551  1  -1.165516  0  -0.325326  -0.555972  0  2.291291  0
O  O83  1  0.20807436  0.30803975  0.10473242  1  -1.16546  0  -0.325312  -0.555939  0  2.291331  0
O  O84  1  0.67076193  0.57379576  0.02643111  1  -1.190303  0  -0.310883  -0.556808  0  2.252453  0
O  O85  1  0.32923865  0.42621249  0.97356977  1  -1.190315  0  -0.310888  -0.556798  0  2.252406  0
O  O86  1  0.42808457  0.58717908  0.81542417  1  -1.229756  0  -0.581945  -0.753867  0  2.042478  0
O  O87  1  0.57191768  0.41282058  0.18457463  1  -1.229745  0  -0.581918  -0.75391  0  2.04234  0
