# generated using pymatgen
data_ErH7C7(NO4)2
_symmetry_space_group_name_H-M   'P 1'
_cell_length_a   7.75235731
_cell_length_b   8.57973064
_cell_length_c   8.51818430
_cell_angle_alpha   116.05916725
_cell_angle_beta   101.66539089
_cell_angle_gamma   97.74281978
_symmetry_Int_Tables_number   1
_chemical_formula_structural   ErH7C7(NO4)2
_chemical_formula_sum   'Er2 H14 C14 N4 O16'
_cell_volume   482.10107836
_cell_formula_units_Z   2
loop_
 _symmetry_equiv_pos_site_id
 _symmetry_equiv_pos_as_xyz
  1  'x, y, z'
loop_
 _atom_site_type_symbol
 _atom_site_label
 _atom_site_symmetry_multiplicity
 _atom_site_fract_x
 _atom_site_fract_y
 _atom_site_fract_z
 _atom_site_occupancy
 _atom_site_hle17_bader_spin_density
 _atom_site_hle17_ddec_charge
 _atom_site_hle17_ddec_spin_density
 _atom_site_hle17_ddec_sum_bond_order
 _atom_site_hle17_magmom
 _atom_site_hse06_10hf_bader_spin_density
 _atom_site_hse06_10hf_ddec_charge
 _atom_site_hse06_10hf_ddec_spin_density
 _atom_site_hse06_10hf_ddec_sum_bond_order
 _atom_site_hse06_10hf_magmom
 _atom_site_hse06_bader_spin_density
 _atom_site_hse06_ddec_charge
 _atom_site_hse06_ddec_spin_density
 _atom_site_hse06_ddec_sum_bond_order
 _atom_site_hse06_magmom
 _atom_site_pbe_bader_spin_density
 _atom_site_pbe_cm5_charge
 _atom_site_pbe_ddec_charge
 _atom_site_pbe_ddec_spin_density
 _atom_site_pbe_ddec_sum_bond_order
 _atom_site_pbe_magmom
Er  Er0  1  0.66361981  0.41072176  0.16626004  1  0  2.220114  0  1.507271  0  0  2.052127  0  1.984428  0  0  2.202125  0  1.762304  0  0  1.433986  2.01291  0  2.013875  0
Er  Er1  1  0.33638514  0.58927754  0.83374167  1  0  2.220133  0  1.507322  0  0  2.052105  0  1.984542  0  0  2.202146  0  1.762358  0  0  1.433962  2.01293  0  2.013931  0
H  H2  1  0.32359652  0.93616942  0.55205295  1  0  0.104939  0  0.935868  0  0  0.107871  0  1.005968  0  0  0.112001  0  1.002138  0  0  0.124008  0.104984  0  1.008311  0
H  H3  1  0.67640246  0.06383246  0.44794995  1  0  0.104984  0  0.935931  0  0  0.107916  0  1.006011  0  0  0.112042  0  1.002188  0  0  0.124036  0.105027  0  1.008356  0
H  H4  1  0.96119490  0.08092792  0.24219930  1  0  0.100224  0  0.963221  0  0  0.1054  0  1.028874  0  0  0.108953  0  1.025683  0  0  0.122511  0.1029  0  1.030983  0
H  H5  1  0.03879617  0.91906843  0.75779503  1  0  0.100279  0  0.963252  0  0  0.105443  0  1.02889  0  0  0.108994  0  1.0257  0  0  0.122539  0.102943  0  1.031003  0
H  H6  1  0.00081538  0.83929538  0.95281173  1  0  0.093317  0  0.959465  0  0  0.097914  0  1.026575  0  0  0.100873  0  1.024432  0  0  0.125631  0.095797  0  1.028064  0
H  H7  1  0.99918164  0.16070373  0.04718373  1  0  0.093349  0  0.959364  0  0  0.09793  0  1.026509  0  0  0.100888  0  1.024365  0  0  0.125654  0.095814  0  1.027993  0
H  H8  1  0.72724503  0.75333077  0.18042753  1  0  0.437682  0  0.848282  0  0  0.410035  0  0.912898  0  0  0.420611  0  0.897783  0  0  0.306549  0.402497  0  0.923962  0
H  H9  1  0.27276259  0.24666316  0.81956648  1  0  0.437717  0  0.848188  0  0  0.410049  0  0.91289  0  0  0.420629  0  0.897769  0  0  0.306606  0.402509  0  0.923958  0
H  H10  1  0.83004087  0.79953295  0.38212182  1  0  0.395084  0  0.925864  0  0  0.351092  0  1.012539  0  0  0.362479  0  0.997039  0  0  0.288394  0.343101  0  1.023664  0
H  H11  1  0.16995846  0.20046490  0.61787705  1  0  0.395088  0  0.92582  0  0  0.35111  0  1.012506  0  0  0.362497  0  0.997007  0  0  0.2884  0.343118  0  1.023632  0
H  H12  1  0.34794243  0.38948915  0.32624279  1  0  0.445761  0  0.831675  0  0  0.418029  0  0.899284  0  0  0.429838  0  0.88202  0  0  0.305485  0.410022  0  0.91107  0
H  H13  1  0.65205162  0.61050855  0.67374798  1  0  0.445757  0  0.831681  0  0  0.418024  0  0.8993  0  0  0.429838  0  0.882026  0  0  0.305458  0.410019  0  0.911085  0
H  H14  1  0.48006510  0.29189981  0.37551865  1  0  0.445612  0  0.851611  0  0  0.417154  0  0.911973  0  0  0.427887  0  0.896471  0  0  0.30419  0.409626  0  0.923023  0
H  H15  1  0.51992859  0.70810192  0.62447733  1  0  0.445667  0  0.851542  0  0  0.417206  0  0.911903  0  0  0.42794  0  0.896399  0  0  0.304218  0.409674  0  0.922958  0
C  C16  1  0.40096563  0.67148656  0.26610990  1  0  0.645814  0  3.936151  0  0  0.592452  0  4.231455  0  0  0.626727  0  4.229381  0  0  0.218988  0.568856  0  4.238552  0
C  C17  1  0.59903697  0.32851941  0.73389780  1  0  0.645788  0  3.936144  0  0  0.592449  0  4.2314  0  0  0.62672  0  4.229339  0  0  0.218965  0.568854  0  4.238499  0
C  C18  1  0.27599682  0.78761786  0.25933656  1  0  0.071324  0  3.732975  0  0  0.078572  0  3.978792  0  0  0.076336  0  3.998717  0  0  0.127968  0.079773  0  3.967581  0
C  C19  1  0.72400514  0.21238537  0.74066396  1  0  0.071289  0  3.732977  0  0  0.078557  0  3.978764  0  0  0.076316  0  3.998693  0  0  0.127986  0.079759  0  3.96755  0
C  C20  1  0.25318739  0.91837961  0.41864458  1  0  0.103844  0  3.60351  0  0  0.064325  0  3.858175  0  0  0.068695  0  3.870894  0  0  0.071147  0.061809  0  3.848505  0
C  C21  1  0.74680995  0.08162087  0.58135389  1  0  0.103877  0  3.603573  0  0  0.06433  0  3.858249  0  0  0.068703  0  3.870964  0  0  0.071149  0.061813  0  3.848579  0
C  C22  1  0.05550014  0.99854104  0.24741189  1  0  0.098352  0  3.615622  0  0  0.066687  0  3.875164  0  0  0.071355  0  3.886063  0  0  0.065647  0.063946  0  3.866729  0
C  C23  1  0.94449587  0.00145943  0.75258750  1  0  0.098251  0  3.615886  0  0  0.066639  0  3.875351  0  0  0.071303  0  3.88625  0  0  0.065675  0.0639  0  3.866917  0
C  C24  1  0.07703432  0.86620708  0.08786181  1  0  0.115103  0  3.64112  0  0  0.089961  0  3.898567  0  0  0.092704  0  3.916008  0  0  0.070042  0.08806  0  3.888827  0
C  C25  1  0.92296072  0.13378933  0.91213211  1  0  0.115084  0  3.641173  0  0  0.089936  0  3.898616  0  0  0.092678  0  3.916054  0  0  0.069967  0.088033  0  3.888874  0
C  C26  1  0.57435808  0.99942173  0.07610829  1  0  0.578115  0  3.879085  0  0  0.534406  0  4.172694  0  0  0.56558  0  4.169705  0  0  0.21943  0.513121  0  4.17957  0
C  C27  1  0.42564587  0.00057890  0.92389499  1  0  0.578029  0  3.879289  0  0  0.534337  0  4.172856  0  0  0.565515  0  4.169861  0  0  0.219404  0.513044  0  4.179746  0
C  C28  1  0.05985834  0.47705652  0.43545474  1  0  0.56284  0  3.922436  0  0  0.521296  0  4.215917  0  0  0.551503  0  4.21341  0  0  0.210135  0.500848  0  4.222116  0
C  C29  1  0.94013538  0.52293995  0.56454718  1  0  0.562732  0  3.922408  0  0  0.521151  0  4.215933  0  0  0.551361  0  4.213426  0  0  0.210069  0.500708  0  4.222129  0
N  N30  1  0.19234926  0.76504642  0.09402409  1  0  -0.329377  0  3.205131  0  0  -0.286701  0  3.461171  0  0  -0.305584  0  3.480571  0  0  -0.326508  -0.280483  0  3.449657  0
N  N31  1  0.80765302  0.23495815  0.90597707  1  0  -0.3293  0  3.205027  0  0  -0.286645  0  3.461067  0  0  -0.305522  0  3.480465  0  0  -0.326479  -0.280424  0  3.449551  0
N  N32  1  0.14647844  0.02684449  0.41251353  1  0  -0.234649  0  3.157336  0  0  -0.175522  0  3.405483  0  0  -0.184661  0  3.417947  0  0  -0.281461  -0.168958  0  3.396015  0
N  N33  1  0.85351725  0.97315461  0.58748285  1  0  -0.234686  0  3.157462  0  0  -0.175551  0  3.405571  0  0  -0.184684  0  3.418027  0  0  -0.281511  -0.16899  0  3.396104  0
O  O34  1  0.40797915  0.54976765  0.11135705  1  0  -0.774558  0  2.120784  0  0  -0.708551  0  2.370505  0  0  -0.756771  0  2.362564  0  0  -0.394633  -0.688871  0  2.375506  0
O  O35  1  0.59202245  0.45023961  0.88864749  1  0  -0.774561  0  2.120874  0  0  -0.708472  0  2.370415  0  0  -0.756697  0  2.362478  0  0  -0.39463  -0.688806  0  2.375424  0
O  O36  1  0.49544428  0.69982394  0.41781946  1  0  -0.615511  0  2.060831  0  0  -0.56617  0  2.296266  0  0  -0.593311  0  2.29125  0  0  -0.289646  -0.549435  0  2.301551  0
O  O37  1  0.50455599  0.30018330  0.58218601  1  0  -0.615536  0  2.060689  0  0  -0.566219  0  2.29612  0  0  -0.593364  0  2.291106  0  0  -0.289671  -0.549487  0  2.301406  0
O  O38  1  0.69619156  0.14386008  0.18200000  1  0  -0.660676  0  2.086275  0  0  -0.614208  0  2.337358  0  0  -0.650316  0  2.327656  0  0  -0.357551  -0.596354  0  2.341103  0
O  O39  1  0.30381271  0.85614195  0.81800981  1  0  -0.660635  0  2.086391  0  0  -0.614179  0  2.337495  0  0  -0.650286  0  2.327778  0  0  -0.35753  -0.596329  0  2.341244  0
O  O40  1  0.56112257  0.85351684  0.08296489  1  0  -0.667995  0  2.108814  0  0  -0.612527  0  2.349178  0  0  -0.648205  0  2.338969  0  0  -0.347455  -0.594298  0  2.353487  0
O  O41  1  0.43889196  0.14648394  0.91703808  1  0  -0.667941  0  2.108883  0  0  -0.612487  0  2.349245  0  0  -0.64816  0  2.339032  0  0  -0.347439  -0.594245  0  2.353557  0
O  O42  1  0.98792729  0.44239702  0.27314302  1  0  -0.644573  0  2.055862  0  0  -0.60119  0  2.304522  0  0  -0.635722  0  2.294506  0  0  -0.352412  -0.584586  0  2.309153  0
O  O43  1  0.01207171  0.55759956  0.72686228  1  0  -0.64445  0  2.055728  0  0  -0.601054  0  2.304395  0  0  -0.635604  0  2.294404  0  0  -0.352325  -0.584462  0  2.309031  0
O  O44  1  0.22158988  0.47720642  0.50410552  1  0  -0.667908  0  2.090252  0  0  -0.612003  0  2.331575  0  0  -0.647595  0  2.320487  0  0  -0.345577  -0.594544  0  2.336448  0
O  O45  1  0.77840516  0.52279003  0.49589193  1  0  -0.667836  0  2.090343  0  0  -0.611928  0  2.331681  0  0  -0.647515  0  2.320595  0  0  -0.345548  -0.594466  0  2.336552  0
O  O46  1  0.79822935  0.70396697  0.24895188  1  0  -0.914598  0  1.957713  0  0  -0.866527  0  2.178104  0  0  -0.900681  0  2.142599  0  0  -0.654974  -0.851381  0  2.197948  0
O  O47  1  0.20177495  0.29602964  0.75104854  1  0  -0.914667  0  1.957617  0  0  -0.866575  0  2.177985  0  0  -0.900739  0  2.14248  0  0  -0.655034  -0.851436  0  2.197826  0
O  O48  1  0.42754718  0.31320772  0.27278245  1  0  -0.90833  0  1.886054  0  0  -0.863977  0  2.087167  0  0  -0.894883  0  2.050162  0  0  -0.643914  -0.849399  0  2.107862  0
O  O49  1  0.57244983  0.68679139  0.72721183  1  0  -0.908361  0  1.886016  0  0  -0.864019  0  2.08713  0  0  -0.894937  0  2.050125  0  0  -0.643904  -0.849443  0  2.107826  0
