# generated using pymatgen
data_ZnH20C28(N3O2)2
_symmetry_space_group_name_H-M   'P 1'
_cell_length_a   14.18249976
_cell_length_b   13.85340132
_cell_length_c   24.10007994
_cell_angle_alpha   103.11608938
_cell_angle_beta   90.00100011
_cell_angle_gamma   120.78880895
_symmetry_Int_Tables_number   1
_chemical_formula_structural   ZnH20C28(N3O2)2
_chemical_formula_sum   'Zn4 H80 C112 N24 O16'
_cell_volume   3923.22487869
_cell_formula_units_Z   4
loop_
 _symmetry_equiv_pos_site_id
 _symmetry_equiv_pos_as_xyz
  1  'x, y, z'
loop_
 _atom_site_type_symbol
 _atom_site_label
 _atom_site_symmetry_multiplicity
 _atom_site_fract_x
 _atom_site_fract_y
 _atom_site_fract_z
 _atom_site_occupancy
 _atom_site_pbe_bader_charge
 _atom_site_pbe_bader_spin_density
 _atom_site_pbe_cm5_charge
 _atom_site_pbe_ddec_charge
 _atom_site_pbe_ddec_spin_density
 _atom_site_pbe_ddec_sum_bond_order
 _atom_site_pbe_magmom
Zn  Zn0  1  0.96847370  0.70083380  0.88896872  1  1.280757  0  0.686492  0.759802  0  2.375298  0
Zn  Zn1  1  0.26765331  0.29915356  0.61102826  1  1.282824  0  0.686466  0.759815  0  2.375224  0
Zn  Zn2  1  0.03152413  0.29916298  0.11102264  1  1.280978  0  0.686545  0.759906  0  2.37507  0
Zn  Zn3  1  0.73235138  0.70083580  0.38897176  1  1.28264  0  0.686501  0.759922  0  2.375023  0
H  H4  1  0.23627860  0.20327287  0.86305960  1  0.080766  0  0.111336  0.121874  0  0.996417  0
H  H5  1  0.03300714  0.79673338  0.63693977  1  0.079755  0  0.111317  0.121804  0  0.996451  0
H  H6  1  0.76372686  0.79673777  0.13693177  1  0.080721  0  0.111303  0.121814  0  0.99646  0
H  H7  1  0.96699036  0.20326134  0.36306379  1  0.079755  0  0.111303  0.121815  0  0.996469  0
H  H8  1  0.13853760  0.42390614  0.81438954  1  0.062281  0  0.118644  0.135579  0  0.998851  0
H  H9  1  0.71463895  0.57609325  0.68560322  1  0.067143  0  0.118684  0.135621  0  0.999004  0
H  H10  1  0.86146540  0.57610663  0.18561080  1  0.062335  0  0.118674  0.135634  0  0.99882  0
H  H11  1  0.28535837  0.42392508  0.31440526  1  0.075272  0  0.118718  0.135681  0  0.998879  0
H  H12  1  0.04296234  0.30817076  0.96865386  1  0.176388  0  0.116406  0.148636  0  1.039429  0
H  H13  1  0.73480064  0.69181551  0.53132781  1  0.169988  0  0.116459  0.148766  0  1.039251  0
H  H14  1  0.95702796  0.69182085  0.03133812  1  0.176189  0  0.116389  0.148605  0  1.039491  0
H  H15  1  0.26519474  0.30816932  0.46866792  1  0.170136  0  0.116419  0.148612  0  1.039335  0
H  H16  1  0.15565870  0.33669348  0.72278110  1  0.210115  0  0.13633  0.121163  0  1.033251  0
H  H17  1  0.81894570  0.66329468  0.77721424  1  0.221657  0  0.13638  0.121224  0  1.03347  0
H  H18  1  0.84436885  0.66333735  0.27721643  1  0.210349  0  0.136327  0.121128  0  1.033137  0
H  H19  1  0.18104993  0.33669631  0.22278348  1  0.221712  0  0.136348  0.12114  0  1.033494  0
H  H20  1  0.43449952  0.30463438  0.70724015  1  0.109983  0  0.123394  0.12007  0  0.993547  0
H  H21  1  0.12985634  0.69538202  0.79276898  1  0.107589  0  0.123394  0.120145  0  0.99353  0
H  H22  1  0.56552681  0.69539261  0.29276854  1  0.110216  0  0.123384  0.120103  0  0.993598  0
H  H23  1  0.87013504  0.30460609  0.20722258  1  0.107276  0  0.123385  0.120096  0  0.993376  0
H  H24  1  0.38768506  0.30720228  0.81946417  1  0.129595  0  0.128562  0.130678  0  1.002465  0
H  H25  1  0.08048728  0.69283347  0.68054598  1  0.123611  0  0.128579  0.130779  0  1.002092  0
H  H26  1  0.61233326  0.69283689  0.18054557  1  0.129986  0  0.128593  0.130714  0  1.002292  0
H  H27  1  0.91951462  0.30718415  0.31944665  1  0.123509  0  0.128603  0.130653  0  1.002616  0
H  H28  1  0.11664717  0.57536026  0.86654580  1  0.113178  0  0.137801  0.103892  0  0.99608  0
H  H29  1  0.54127996  0.42465393  0.63345814  1  0.11131  0  0.137867  0.104025  0  0.996058  0
H  H30  1  0.88335882  0.42464580  0.13345955  1  0.113137  0  0.137824  0.103973  0  0.995982  0
H  H31  1  0.45870968  0.57534058  0.36654083  1  0.111211  0  0.137818  0.103909  0  0.996113  0
H  H32  1  0.82412810  0.47091237  0.94191383  1  0.135809  0  0.119433  0.118648  0  1.013763  0
H  H33  1  0.35320361  0.52908567  0.55807874  1  0.12308  0  0.11942  0.118636  0  1.013535  0
H  H34  1  0.17586802  0.52907677  0.05808117  1  0.135778  0  0.11948  0.118698  0  1.013698  0
H  H35  1  0.64679076  0.47090984  0.44192326  1  0.123095  0  0.119398  0.118681  0  1.013547  0
H  H36  1  0.89483643  0.31709013  0.94664644  1  0.175485  0  0.122997  0.133897  0  1.042098  0
H  H37  1  0.57773437  0.68290344  0.55333836  1  0.171455  0  0.122996  0.134035  0  1.042059  0
H  H38  1  0.10515289  0.68289104  0.05334470  1  0.17593  0  0.123003  0.133895  0  1.042162  0
H  H39  1  0.42226225  0.31710786  0.44666803  1  0.171453  0  0.123042  0.134054  0  1.042107  0
H  H40  1  0.21810293  0.18817251  0.96789350  1  0.085907  0  0.119031  0.105749  0  0.958664  0
H  H41  1  0.02993684  0.81184206  0.53210137  1  0.083684  0  0.119031  0.105849  0  0.958543  0
H  H42  1  0.78189883  0.81183636  0.03209724  1  0.085929  0  0.119018  0.105728  0  0.958544  0
H  H43  1  0.97005797  0.18814726  0.46789781  1  0.083478  0  0.119007  0.105768  0  0.958465  0
H  H44  1  0.11944491  0.21292479  0.00274930  1  0.132058  0  0.116534  0.114942  0  1.021953  0
H  H45  1  0.90651095  0.78709154  0.49725061  1  0.140601  0  0.116545  0.115058  0  1.021935  0
H  H46  1  0.88057717  0.78709652  0.99724834  1  0.132175  0  0.116538  0.115059  0  1.02183  0
H  H47  1  0.09349028  0.21290217  0.50274993  1  0.140625  0  0.116505  0.1149  0  1.02186  0
H  H48  1  0.15758478  0.98264181  0.92773018  1  0.15848  0  0.133722  0.103042  0  1.008482  0
H  H49  1  0.17493460  0.01735614  0.57226810  1  0.142346  0  0.133731  0.10292  0  1.008494  0
H  H50  1  0.84242274  0.01737435  0.07226850  1  0.158561  0  0.133749  0.103003  0  1.008509  0
H  H51  1  0.82507028  0.98264065  0.42772368  1  0.142339  0  0.133746  0.102999  0  1.00836  0
H  H52  1  0.81098914  0.81987535  0.89305172  1  0.123823  0  0.116323  0.116713  0  1.025178  0
H  H53  1  0.99112599  0.18014252  0.60694389  1  0.12306  0  0.116353  0.116732  0  1.025058  0
H  H54  1  0.18901820  0.18013621  0.10694101  1  0.123661  0  0.116341  0.11674  0  1.025099  0
H  H55  1  0.00888546  0.81985894  0.39305551  1  0.12254  0  0.116288  0.116586  0  1.02507  0
H  H56  1  0.90481308  0.06044515  0.93788884  1  0.176779  0  0.1196  0.132578  0  1.039171  0
H  H57  1  0.84435874  0.93957152  0.56210719  1  0.179626  0  0.119625  0.132566  0  1.039124  0
H  H58  1  0.09519521  0.93956269  0.06209804  1  0.176787  0  0.119608  0.132617  0  1.039145  0
H  H59  1  0.15565018  0.06042910  0.43789294  1  0.179466  0  0.119648  0.132582  0  1.039206  0
H  H60  1  0.34206093  0.88650381  0.90179799  1  0.078108  0  0.100515  0.107068  0  1.012385  0
H  H61  1  0.45556930  0.11350183  0.59820728  1  0.076484  0  0.100525  0.107031  0  1.012071  0
H  H62  1  0.65793069  0.11350173  0.09821518  1  0.077848  0  0.10042  0.107017  0  1.011722  0
H  H63  1  0.54443102  0.88649711  0.40179389  1  0.076395  0  0.100539  0.107065  0  1.012254  0
H  H64  1  0.54083493  0.98372685  0.88609578  1  0.062574  0  0.100901  0.101839  0  0.995303  0
H  H65  1  0.55711551  0.01625358  0.61390215  1  0.078613  0  0.100926  0.10185  0  0.995626  0
H  H66  1  0.45913058  0.01624618  0.11390725  1  0.062788  0  0.100912  0.101761  0  0.995563  0
H  H67  1  0.44288004  0.98373019  0.38608889  1  0.078368  0  0.100856  0.101691  0  0.995435  0
H  H68  1  0.74115127  0.10029171  0.92660588  1  0.08202  0  0.100551  0.102447  0  1.014214  0
H  H69  1  0.64084824  0.89967827  0.57338807  1  0.090074  0  0.100558  0.102368  0  1.014012  0
H  H70  1  0.25881766  0.89967689  0.07339495  1  0.082271  0  0.100548  0.10244  0  1.014067  0
H  H71  1  0.35914633  0.10030918  0.42660798  1  0.090184  0  0.100523  0.10237  0  1.014118  0
H  H72  1  0.71566607  0.54951236  0.99259883  1  0.070787  0  0.097267  0.09961  0  1.046007  0
H  H73  1  0.16614576  0.45049265  0.50739932  1  0.070821  0  0.097253  0.099525  0  1.04637  0
H  H74  1  0.28434646  0.45050113  0.00739828  1  0.070923  0  0.097269  0.099581  0  1.046114  0
H  H75  1  0.83384024  0.54950588  0.49261217  1  0.070817  0  0.09723  0.099524  0  1.045988  0
H  H76  1  0.63446777  0.48893480  0.07944806  1  0.040888  0  0.092308  0.094226  0  1.025078  0
H  H77  1  0.14551085  0.51106292  0.42055916  1  0.035993  0  0.092245  0.09409  0  1.025093  0
H  H78  1  0.36554323  0.51107706  0.92055134  1  0.041217  0  0.092318  0.094269  0  1.024828  0
H  H79  1  0.85448350  0.48892129  0.57946140  1  0.036002  0  0.09235  0.094206  0  1.025148  0
H  H80  1  0.47605208  0.43099474  0.13708657  1  0.081578  0  0.098746  0.10487  0  1.013724  0
H  H81  1  0.04504356  0.56901880  0.36292499  1  0.10334  0  0.098768  0.104977  0  1.013796  0
H  H82  1  0.52395148  0.56901352  0.86290991  1  0.081842  0  0.098786  0.104961  0  1.013573  0
H  H83  1  0.95496668  0.43098872  0.63709381  1  0.102785  0  0.098749  0.104895  0  1.013838  0
C  C84  1  0.19521902  0.25239316  0.87210884  1  -0.003848  0  -0.089382  -0.232363  0  3.947993  0
C  C85  1  0.94282411  0.74761753  0.62788173  1  0.017202  0  -0.089278  -0.232093  0  3.947909  0
C  C86  1  0.80479357  0.74762187  0.12788388  1  -0.003787  0  -0.089226  -0.23212  0  3.94785  0
C  C87  1  0.05717211  0.25238310  0.37211839  1  0.017205  0  -0.089238  -0.232085  0  3.94813  0
C  C88  1  0.19602629  0.31682921  0.83497896  1  0.274666  0  0.101329  0.196719  0  4.047561  0
C  C89  1  0.87920318  0.68317941  0.66501354  1  0.234128  0  0.101183  0.196432  0  4.047304  0
C  C90  1  0.80398806  0.68319217  0.16502034  1  0.274596  0  0.101223  0.196792  0  4.047602  0
C  C91  1  0.12079092  0.31681415  0.33498366  1  0.234054  0  0.101223  0.196578  0  4.047335  0
C  C92  1  0.13966124  0.37621438  0.84438161  1  0.053818  0  -0.090318  -0.267713  0  3.94333  0
C  C93  1  0.76344922  0.62378891  0.65561353  1  0.089673  0  -0.090297  -0.26768  0  3.943308  0
C  C94  1  0.86034418  0.62380182  0.15561790  1  0.054279  0  -0.090315  -0.267826  0  3.943428  0
C  C95  1  0.23654943  0.37621800  0.34439150  1  0.081654  0  -0.090428  -0.26794  0  3.943415  0
C  C96  1  0.08374251  0.37153281  0.89240830  1  0.304553  0  0.101366  0.198691  0  4.034151  0
C  C97  1  0.71220834  0.62845479  0.60758110  1  0.363526  0  0.101406  0.198846  0  4.0342  0
C  C98  1  0.91625291  0.62846761  0.10758724  1  0.304349  0  0.10136  0.198629  0  4.034346  0
C  C99  1  0.28778642  0.37154148  0.39241850  1  0.363319  0  0.101392  0.198829  0  4.034393  0
C  C100  1  0.08545128  0.31051136  0.93087384  1  -0.012099  0  -0.085245  -0.223953  0  3.892454  0
C  C101  1  0.77492926  0.68947683  0.56911927  1  -0.049025  0  -0.085328  -0.224115  0  3.892556  0
C  C102  1  0.91454934  0.68947691  0.06912107  1  -0.012048  0  -0.085262  -0.223797  0  3.892864  0
C  C103  1  0.22506738  0.31051337  0.43088001  1  -0.048877  0  -0.085205  -0.223738  0  3.89259  0
C  C104  1  0.14037303  0.24998400  0.92030900  1  0.004625  0  0.000103  0.137597  0  3.985619  0
C  C105  1  0.89038172  0.75001013  0.57967572  1  -0.003466  0  7e-06  0.137463  0  3.985452  0
C  C106  1  0.85963948  0.75002241  0.07968476  1  0.004537  0  3.9e-05  0.13734  0  3.985487  0
C  C107  1  0.10961490  0.24997720  0.42031741  1  -0.003552  0  -6e-05  0.13723  0  3.985824  0
C  C108  1  0.22509870  0.32876536  0.73448816  1  0.945983  0  0.149482  0.104204  0  3.858018  0
C  C109  1  0.89632875  0.67123802  0.76551598  1  0.939926  0  0.149408  0.103974  0  3.858196  0
C  C110  1  0.77491421  0.67125172  0.26551187  1  0.94666  0  0.149477  0.104313  0  3.858069  0
C  C111  1  0.10366846  0.32875047  0.23448393  1  0.940018  0  0.149428  0.104109  0  3.858219  0
C  C112  1  0.36979814  0.31210397  0.72784733  1  0.434407  0  0.003389  -0.02121  0  3.996968  0
C  C113  1  0.05768996  0.68791143  0.77215934  1  0.431226  0  0.003311  -0.021461  0  3.997616  0
C  C114  1  0.63021859  0.68791934  0.27215636  1  0.434853  0  0.003294  -0.02148  0  3.997246  0
C  C115  1  0.94230688  0.31207772  0.22783609  1  0.43124  0  0.003309  -0.02152  0  3.997501  0
C  C116  1  0.34602426  0.31001474  0.78278638  1  0.259699  0  0.000614  -0.111112  0  3.928978  0
C  C117  1  0.03601024  0.69000831  0.71722388  1  0.280751  0  0.000663  -0.111171  0  3.929034  0
C  C118  1  0.65399789  0.69000953  0.21721949  1  0.258803  0  0.000676  -0.110917  0  3.929015  0
C  C119  1  0.96398361  0.30999320  0.28277677  1  0.281124  0  0.000703  -0.110767  0  3.929052  0
C  C120  1  0.04440386  0.52498568  0.88601900  1  0.992645  0  0.142016  0.096147  0  3.904501  0
C  C121  1  0.51942642  0.47502732  0.61397187  1  0.984633  0  0.142085  0.096089  0  3.905311  0
C  C122  1  0.95559819  0.47502095  0.11397977  1  0.993325  0  0.141982  0.09597  0  3.904848  0
C  C123  1  0.48056604  0.52496719  0.38602710  1  0.984688  0  0.142152  0.096192  0  3.905351  0
C  C124  1  0.89481209  0.46828501  0.92665318  1  0.421668  0  -0.000384  -0.023965  0  3.988762  0
C  C125  1  0.42652307  0.53171147  0.57334159  1  0.472425  0  -0.000375  -0.023838  0  3.988697  0
C  C126  1  0.10517854  0.53170583  0.07334121  1  0.421709  0  -0.000418  -0.024077  0  3.989085  0
C  C127  1  0.57346970  0.46828930  0.42666187  1  0.471768  0  -0.000337  -0.023965  0  3.988844  0
C  C128  1  0.92776397  0.39168973  0.92878584  1  0.251716  0  0.000233  -0.104577  0  3.893886  0
C  C129  1  0.53606154  0.60830383  0.57120015  1  0.208453  0  5.5e-05  -0.105  0  3.894185  0
C  C130  1  0.07222943  0.60830102  0.07120645  1  0.25123  0  0.000188  -0.104541  0  3.894061  0
C  C131  1  0.46393068  0.39169867  0.42880310  1  0.209231  0  -2.7e-05  -0.105029  0  3.894215  0
C  C132  1  0.13769830  0.18029694  0.96087045  1  0.265568  0  -0.044215  -0.120748  0  3.8743  0
C  C133  1  0.95740803  0.81972065  0.53912572  1  0.253819  0  -0.044212  -0.120995  0  3.874298  0
C  C134  1  0.86230507  0.81970953  0.03912457  1  0.264799  0  -0.044158  -0.120702  0  3.873935  0
C  C135  1  0.04259342  0.18027633  0.46087023  1  0.253978  0  -0.044081  -0.120538  0  3.873865  0
C  C136  1  0.07520266  0.96895669  0.92379257  1  0.951592  0  0.135306  0.080628  0  3.938414  0
C  C137  1  0.10624128  0.03105149  0.57620493  1  0.975331  0  0.13537  0.080824  0  3.938576  0
C  C138  1  0.92480605  0.03105480  0.07619849  1  0.951649  0  0.135306  0.080739  0  3.938414  0
C  C139  1  0.89376599  0.96894445  0.42378716  1  0.974709  0  0.135508  0.081012  0  3.93837  0
C  C140  1  0.89682550  0.88932946  0.90711084  1  0.294878  0  -0.008516  -0.04072  0  4.009715  0
C  C141  1  0.00749533  0.11068174  0.59288692  1  0.371182  0  -0.008604  -0.040759  0  4.009317  0
C  C142  1  0.10318171  0.11067763  0.09287886  1  0.294847  0  -0.008651  -0.040858  0  4.009752  0
C  C143  1  0.99251250  0.88931531  0.40711069  1  0.372124  0  -0.008466  -0.040299  0  4.00899  0
C  C144  1  0.94127569  0.00720054  0.92781444  1  0.364398  0  -0.006058  -0.114092  0  3.908729  0
C  C145  1  0.93406841  0.99281167  0.57217960  1  0.282208  0  -0.005928  -0.113885  0  3.908514  0
C  C146  1  0.05873190  0.99280732  0.07217285  1  0.364074  0  -0.006009  -0.114019  0  3.908692  0
C  C147  1  0.06594236  0.00718984  0.42782104  1  0.2823  0  -0.006031  -0.114114  0  3.908361  0
C  C148  1  0.16859729  0.81799455  0.96157011  1  1.547818  0  0.190835  0.547507  0  4.259095  0
C  C149  1  0.35059657  0.18199081  0.53842925  1  1.548102  0  0.190724  0.547339  0  4.259084  0
C  C150  1  0.83138107  0.18198445  0.03843073  1  1.526554  0  0.190723  0.547276  0  4.259144  0
C  C151  1  0.64939536  0.81799840  0.46156743  1  1.548308  0  0.190799  0.5473  0  4.259102  0
C  C152  1  0.28964509  0.88646774  0.98494372  1  -0.106227  0  -0.027195  -0.037811  0  4.008669  0
C  C153  1  0.40318476  0.11352783  0.51506479  1  -0.078466  0  -0.027169  -0.03776  0  4.008643  0
C  C154  1  0.71032509  0.11351888  0.01507256  1  -0.084896  0  -0.026983  -0.037619  0  4.008644  0
C  C155  1  0.59681060  0.88645979  0.48493501  1  -0.079439  0  -0.027208  -0.037802  0  4.0085  0
C  C156  1  0.36898237  0.91530061  0.94805805  1  -0.084328  0  -0.086853  -0.148389  0  3.950763  0
C  C157  1  0.45369042  0.08469178  0.55193787  1  -0.034277  0  -0.086947  -0.148368  0  3.951096  0
C  C158  1  0.63098340  0.08467718  0.05193518  1  -0.083513  0  -0.087006  -0.148615  0  3.951426  0
C  C159  1  0.54630275  0.91529993  0.44805662  1  -0.03383  0  -0.086911  -0.14837  0  3.950872  0
C  C160  1  0.48334927  0.98134242  0.96944734  1  0.05369  0  -0.007426  0.078779  0  4.006291  0
C  C161  1  0.50200463  0.01864784  0.53055453  1  -0.01044  0  -0.007277  0.078909  0  4.006124  0
C  C162  1  0.51663307  0.01864878  0.03055497  1  0.010029  0  -0.007159  0.07905  0  4.006026  0
C  C163  1  0.49798490  0.98133800  0.46944422  1  0.014031  0  -0.007369  0.07878  0  4.006142  0
C  C164  1  0.56641651  0.01219388  0.93252066  1  -0.015058  0  -0.092538  -0.134361  0  4.0083  0
C  C165  1  0.55422516  0.98779055  0.56748617  1  -0.073565  0  -0.092637  -0.134504  0  4.00807  0
C  C166  1  0.43355660  0.98779436  0.06749333  1  0.000711  0  -0.092628  -0.134372  0  4.007344  0
C  C167  1  0.44577176  0.01219173  0.43251050  1  -0.073728  0  -0.092476  -0.134143  0  4.007502  0
C  C168  1  0.67701355  0.07657500  0.95467833  1  -0.023628  0  -0.093508  -0.104967  0  4.017408  0
C  C169  1  0.60043590  0.92340467  0.54531502  1  -0.036215  0  -0.093497  -0.10484  0  4.017493  0
C  C170  1  0.32295080  0.92340137  0.04532178  1  -0.039848  0  -0.093439  -0.104853  0  4.017579  0
C  C171  1  0.39955320  0.07657746  0.45467831  1  -0.036659  0  -0.093438  -0.104911  0  4.017078  0
C  C172  1  0.72581869  0.60450349  0.89081739  1  1.575481  0  0.195333  0.563278  0  4.240615  0
C  C173  1  0.12132099  0.39550324  0.60918577  1  1.577673  0  0.195488  0.563569  0  4.240287  0
C  C174  1  0.27419577  0.39549271  0.10918054  1  1.575671  0  0.195206  0.563054  0  4.240581  0
C  C175  1  0.87868207  0.60450683  0.39083209  1  1.57978  0  0.195342  0.563206  0  4.240365  0
C  C176  1  0.62926203  0.56293461  0.92484246  1  0.048043  0  -0.024971  -0.032903  0  3.984084  0
C  C177  1  0.06631501  0.43705985  0.57516012  1  0.012986  0  -0.024951  -0.033052  0  3.984512  0
C  C178  1  0.37076014  0.43708689  0.07515934  1  0.048848  0  -0.025049  -0.033038  0  3.984148  0
C  C179  1  0.93366884  0.56293295  0.42485898  1  0.013462  0  -0.025149  -0.033295  0  3.984658  0
C  C180  1  0.63827901  0.53944511  0.97680640  1  -0.069156  0  -0.089622  -0.152001  0  3.954795  0
C  C181  1  0.09883415  0.46053748  0.52319621  1  -0.061274  0  -0.089571  -0.151723  0  3.954618  0
C  C182  1  0.36172011  0.46055707  0.02318976  1  -0.069585  0  -0.08944  -0.151725  0  3.954175  0
C  C183  1  0.90116940  0.53944819  0.47681830  1  -0.06015  0  -0.089409  -0.151604  0  3.955011  0
C  C184  1  0.55019125  0.50497210  0.01028780  1  -0.080605  0  -0.013747  0.072585  0  4.00857  0
C  C185  1  0.04522387  0.49504086  0.48971908  1  -0.053379  0  -0.013626  0.072595  0  4.008515  0
C  C186  1  0.44982369  0.49504480  0.98970805  1  -0.034013  0  -0.013896  0.072492  0  4.008577  0
C  C187  1  0.95476772  0.50494909  0.51029429  1  -0.010983  0  -0.01381  0.07254  0  4.008374  0
C  C188  1  0.55792452  0.48121092  0.06396424  1  -0.028256  0  -0.098184  -0.140039  0  4.007198  0
C  C189  1  0.07669431  0.51879733  0.43604808  1  -0.02489  0  -0.098157  -0.139782  0  4.008278  0
C  C190  1  0.44210225  0.51881413  0.93603966  1  -0.028368  0  -0.098123  -0.139864  0  4.007579  0
C  C191  1  0.92329399  0.48120155  0.56397134  1  -0.02531  0  -0.098144  -0.13974  0  4.007195  0
C  C192  1  0.47102206  0.44906519  0.09580200  1  -0.087575  0  -0.095838  -0.112219  0  4.020537  0
C  C193  1  0.02196798  0.55096135  0.40421389  1  -0.107473  0  -0.095887  -0.112406  0  4.020817  0
C  C194  1  0.52898553  0.55095536  0.90419804  1  -0.087259  0  -0.095975  -0.112545  0  4.020401  0
C  C195  1  0.97803978  0.44904541  0.59580731  1  -0.106313  0  -0.096008  -0.112557  0  4.020747  0
N  N196  1  0.29406667  0.32378254  0.69850920  1  -1.205549  0  -0.346289  -0.264401  0  3.577398  0
N  N197  1  0.97027803  0.67620868  0.80149253  1  -1.222286  0  -0.346194  -0.264195  0  3.577793  0
N  N198  1  0.70595105  0.67623288  0.30149229  1  -1.20702  0  -0.346332  -0.2645  0  3.5776  0
N  N199  1  0.02971794  0.32377451  0.19850508  1  -1.222648  0  -0.346301  -0.264323  0  3.577879  0
N  N200  1  0.25363907  0.32051319  0.78663010  1  -1.256662  0  -0.22392  0.010079  0  3.784737  0
N  N201  1  0.93312314  0.67948457  0.71337451  1  -1.258055  0  -0.2239  0.010343  0  3.784176  0
N  N202  1  0.74638036  0.67951269  0.21337306  1  -1.256195  0  -0.223791  0.010097  0  3.784679  0
N  N203  1  0.06687518  0.32051179  0.28662717  1  -1.25807  0  -0.223857  0.010098  0  3.78435  0
N  N204  1  0.96831958  0.55093785  0.90023087  1  -1.214016  0  -0.337674  -0.26198  0  3.532176  0
N  N205  1  0.41738597  0.44906187  0.59976876  1  -1.201941  0  -0.337606  -0.261848  0  3.532128  0
N  N206  1  0.03167134  0.44905922  0.09976717  1  -1.214557  0  -0.33764  -0.261881  0  3.532466  0
N  N207  1  0.58260354  0.55092816  0.40022677  1  -1.201723  0  -0.337634  -0.261822  0  3.532094  0
N  N208  1  0.02299706  0.42795443  0.90225069  1  -1.249236  0  -0.224312  0.007026  0  3.791172  0
N  N209  1  0.59504204  0.57203976  0.59773777  1  -1.260128  0  -0.224349  0.006917  0  3.791602  0
N  N210  1  0.97700046  0.57204173  0.09774641  1  -1.249167  0  -0.224332  0.00701  0  3.791148  0
N  N211  1  0.40495043  0.42796183  0.40226454  1  -1.260418  0  -0.224336  0.007006  0  3.791215  0
N  N212  1  0.98116468  0.86641235  0.90519021  1  -1.228133  0  -0.348767  -0.287235  0  3.545779  0
N  N213  1  0.11475744  0.13359677  0.59481034  1  -1.20687  0  -0.348793  -0.287329  0  3.545695  0
N  N214  1  0.01884539  0.13360186  0.09480367  1  -1.228153  0  -0.348742  -0.28718  0  3.545654  0
N  N215  1  0.88525279  0.86639663  0.40518310  1  -1.207427  0  -0.34896  -0.287719  0  3.54593  0
N  N216  1  0.05464479  0.05630597  0.93814175  1  -1.209256  0  -0.242776  0.049893  0  3.778081  0
N  N217  1  0.99833550  0.94370983  0.56185938  1  -1.237043  0  -0.24286  0.049793  0  3.778206  0
N  N218  1  0.94535937  0.94370630  0.06184732  1  -1.208471  0  -0.242796  0.049697  0  3.778145  0
N  N219  1  0.00166936  0.05628550  0.43813844  1  -1.236258  0  -0.242918  0.049616  0  3.778167  0
O  O220  1  0.09823467  0.79345764  0.99632912  1  -1.18824  0  -0.326315  -0.574688  0  2.209843  0
O  O221  1  0.30477736  0.20654340  0.50366988  1  -1.187977  0  -0.326255  -0.57458  0  2.209711  0
O  O222  1  0.90176003  0.20653007  0.00367277  1  -1.187814  0  -0.326296  -0.574649  0  2.209344  0
O  O223  1  0.69521865  0.79344834  0.49632503  1  -1.188089  0  -0.326278  -0.574545  0  2.20973  0
O  O224  1  0.14307503  0.78984723  0.90666472  1  -1.182049  0  -0.335825  -0.571917  0  2.296576  0
O  O225  1  0.35324014  0.21013291  0.59333763  1  -1.180008  0  -0.335781  -0.57186  0  2.296211  0
O  O226  1  0.85691393  0.21014028  0.09333258  1  -1.181877  0  -0.335907  -0.571895  0  2.296844  0
O  O227  1  0.64675242  0.78985193  0.40665811  1  -1.180202  0  -0.335839  -0.57187  0  2.296183  0
O  O228  1  0.81821737  0.63071191  0.91776246  1  -1.184165  0  -0.331641  -0.563974  0  2.37207  0
O  O229  1  0.18751450  0.36929254  0.58224371  1  -1.188085  0  -0.331758  -0.564163  0  2.371873  0
O  O230  1  0.18179615  0.36929934  0.08224267  1  -1.184119  0  -0.331558  -0.563874  0  2.371883  0
O  O231  1  0.81247699  0.63070427  0.41776799  1  -1.188324  0  -0.331552  -0.563897  0  2.371992  0
O  O232  1  0.71182864  0.61370463  0.84134340  1  -1.187785  0  -0.34536  -0.573172  0  2.100884  0
O  O233  1  0.09813217  0.38629656  0.65865724  1  -1.184865  0  -0.34551  -0.573349  0  2.100939  0
O  O234  1  0.28819487  0.38628006  0.15864899  1  -1.187724  0  -0.345353  -0.573074  0  2.100978  0
O  O235  1  0.90188419  0.61372742  0.34136146  1  -1.186087  0  -0.345481  -0.573231  0  2.100852  0
