# generated using pymatgen
data_AlH12C33(O2F)3
_symmetry_space_group_name_H-M   'P 1'
_cell_length_a   3.96853586
_cell_length_b   20.47644001
_cell_length_c   20.47825492
_cell_angle_alpha   60.02023546
_cell_angle_beta   87.65369337
_cell_angle_gamma   87.82103210
_symmetry_Int_Tables_number   1
_chemical_formula_structural   AlH12C33(O2F)3
_chemical_formula_sum   'Al1 H12 C33 O6 F3'
_cell_volume   1439.93589956
_cell_formula_units_Z   1
loop_
 _symmetry_equiv_pos_site_id
 _symmetry_equiv_pos_as_xyz
  1  'x, y, z'
loop_
 _atom_site_type_symbol
 _atom_site_label
 _atom_site_symmetry_multiplicity
 _atom_site_fract_x
 _atom_site_fract_y
 _atom_site_fract_z
 _atom_site_occupancy
 _atom_site_pbe_bader_charge
 _atom_site_pbe_bader_spin_density
 _atom_site_pbe_cm5_charge
 _atom_site_pbe_ddec_charge
 _atom_site_pbe_ddec_spin_density
 _atom_site_pbe_ddec_sum_bond_order
 _atom_site_pbe_magmom
Al  Al0  1  0.03139042  0.49982749  0.49944352  1  2.504074  0  0.425226  1.593067  0  2.576987  0
H  H1  1  0.79976841  0.30560443  0.70620719  1  0.094797  0  0.110488  0.115268  0  0.984959  0
H  H2  1  0.78063560  0.23274816  0.84712129  1  0.083005  0  0.108677  0.113304  0  0.983237  0
H  H3  1  0.22666897  0.70885064  0.30824720  1  0.091818  0  0.110904  0.115909  0  0.985796  0
H  H4  1  0.22773974  0.84975826  0.23675809  1  0.094788  0  0.108937  0.114529  0  0.982184  0
H  H5  1  0.25918084  0.30949688  0.48404359  1  0.096703  0  0.110623  0.115744  0  0.986133  0
H  H6  1  0.27155870  0.23731744  0.41522955  1  0.096545  0  0.108473  0.113911  0  0.983  0
H  H7  1  0.79386682  0.70707464  0.48343101  1  0.126399  0  0.110741  0.115653  0  0.986007  0
H  H8  1  0.77448168  0.84796627  0.41558004  1  0.078796  0  0.108732  0.11403  0  0.983029  0
H  H9  1  0.22259270  0.48609450  0.70903452  1  0.104802  0  0.110787  0.115274  0  0.985327  0
H  H10  1  0.22857553  0.41704436  0.84992326  1  0.055938  0  0.108937  0.113534  0  0.982871  0
H  H11  1  0.87084890  0.48032228  0.30791315  1  0.107456  0  0.110616  0.115238  0  0.985624  0
H  H12  1  0.86358058  0.41184724  0.23549386  1  0.120937  0  0.108508  0.114067  0  0.98277  0
C  C13  1  0.51877621  0.44212224  0.61562031  1  1.592596  0  0.274142  0.647519  0  4.066237  0
C  C14  1  0.55428135  0.44133405  0.44164152  1  1.533968  0  0.274031  0.647634  0  4.068689  0
C  C15  1  0.52002766  0.61597207  0.44122558  1  1.594701  0  0.272843  0.645171  0  4.069345  0
C  C16  1  0.67056969  0.32875197  0.73836433  1  -0.112322  0  -0.076875  -0.085355  0  3.984353  0
C  C17  1  0.66156506  0.28850964  0.81659267  1  0.058881  0  -0.078867  -0.125273  0  3.950035  0
C  C18  1  0.35068001  0.73996914  0.33046062  1  -0.020636  0  -0.075981  -0.083591  0  3.981384  0
C  C19  1  0.35022564  0.81821091  0.29091387  1  -0.026874  0  -0.080167  -0.127769  0  3.948339  0
C  C20  1  0.39592927  0.33047254  0.43030355  1  -0.065255  0  -0.076716  -0.083269  0  3.984626  0
C  C21  1  0.40205815  0.29056408  0.39194367  1  0.007959  0  -0.079343  -0.125943  0  3.949409  0
C  C22  1  0.66549406  0.73902039  0.43008904  1  -0.117998  0  -0.076965  -0.08502  0  3.983689  0
C  C23  1  0.65558439  0.81723812  0.39226318  1  0.105071  0  -0.079517  -0.126619  0  3.950119  0
C  C24  1  0.34853187  0.43116018  0.73990139  1  -0.061238  0  -0.077497  -0.086176  0  3.983753  0
C  C25  1  0.35014408  0.39261676  0.81814250  1  0.040528  0  -0.078213  -0.124328  0  3.946104  0
C  C26  1  0.73558405  0.42778575  0.33011699  1  0.005597  0  -0.075973  -0.081179  0  3.980678  0
C  C27  1  0.73275392  0.38958237  0.29005906  1  -0.125197  0  -0.079121  -0.126599  0  3.946864  0
C  C28  1  0.51183122  0.39997619  0.69941989  1  -0.038592  0  -0.008014  -0.036839  0  3.959214  0
C  C29  1  0.50447680  0.32035201  0.85764816  1  0.040073  0  0.004731  0.13567  0  4.108725  0
C  C30  1  0.50394760  0.28040944  0.93737315  1  -0.033889  0  -0.026697  -0.076649  0  4.074395  0
C  C31  1  0.50653425  0.24599840  0.00606425  1  -0.154744  0  -0.049194  -0.073477  0  4.148506  0
C  C32  1  0.51160064  0.20656942  0.08545169  1  0.155581  0  -0.023697  -0.101328  0  4.208151  0
C  C33  1  0.51145526  0.69975228  0.39986226  1  -0.075732  0  -0.009205  -0.037947  0  3.956336  0
C  C34  1  0.50099107  0.85801481  0.32156242  1  0.097151  0  0.005553  0.1352  0  4.110208  0
C  C35  1  0.49975010  0.93772305  0.28172325  1  -0.310018  0  -0.02644  -0.076543  0  4.075943  0
C  C36  1  0.50252446  0.00642025  0.24721511  1  -0.057493  0  -0.049295  -0.072837  0  4.149854  0
C  C37  1  0.50895830  0.08579489  0.20708705  1  0.24824  0  -0.023469  -0.101544  0  4.208426  0
C  C38  1  0.56369177  0.39912081  0.39998828  1  -0.001643  0  -0.009842  -0.043599  0  3.96296  0
C  C39  1  0.56669679  0.32018422  0.32061540  1  0.09799  0  0.004543  0.133168  0  4.112978  0
C  C40  1  0.56070253  0.28100577  0.28013086  1  0.024034  0  -0.026803  -0.076294  0  4.074376  0
C  C41  1  0.54892434  0.24707534  0.24549006  1  -0.302355  0  -0.04834  -0.072399  0  4.147261  0
C  C42  1  0.53392878  0.20723978  0.20608242  1  0.130698  0  -0.024346  -0.102055  0  4.209543  0
C  C43  1  0.50272296  0.12739020  0.12785061  1  0.450882  0  0.120091  0.241929  0  3.981349  0
C  C44  1  0.52420833  0.12804364  0.24388169  1  0.450654  0  0.119929  0.241585  0  3.983459  0
C  C45  1  0.52729441  0.24419177  0.12688996  1  0.589019  0  0.119926  0.240534  0  3.98343  0
O  O46  1  0.29541404  0.58247794  0.42644413  1  -1.253918  0  -0.238752  -0.596996  0  2.365078  0
O  O47  1  0.28113494  0.49015463  0.58247208  1  -1.254796  0  -0.238801  -0.595399  0  2.359397  0
O  O48  1  0.31401457  0.42711709  0.49010774  1  -1.254884  0  -0.239428  -0.599575  0  2.375789  0
O  O49  1  0.75188502  0.58257496  0.48914249  1  -1.257151  0  -0.23789  -0.597518  0  2.371923  0
O  O50  1  0.78496187  0.48904999  0.42659182  1  -1.250659  0  -0.238477  -0.595001  0  2.360764  0
O  O51  1  0.76305481  0.42743512  0.58202661  1  -1.261031  0  -0.239025  -0.598443  0  2.369818  0
F  F52  1  0.53046024  0.09042287  0.31976587  1  -0.608688  0  -0.08133  -0.10727  0  1.352938  0
F  F53  1  0.53663924  0.32006725  0.08849593  1  -0.615146  0  -0.081319  -0.107068  0  1.352068  0
F  F54  1  0.48805344  0.08908580  0.09038548  1  -0.619423  0  -0.081839  -0.108036  0  1.351189  0
