# generated using pymatgen
data_CdH14(C9N2)2
_symmetry_space_group_name_H-M   'P 1'
_cell_length_a   10.54388751
_cell_length_b   10.54386597
_cell_length_c   10.51022388
_cell_angle_alpha   120.10619530
_cell_angle_beta   120.10609365
_cell_angle_gamma   89.99984386
_symmetry_Int_Tables_number   1
_chemical_formula_structural   CdH14(C9N2)2
_chemical_formula_sum   'Cd2 H28 C36 N8'
_cell_volume   823.56651540
_cell_formula_units_Z   2
loop_
 _symmetry_equiv_pos_site_id
 _symmetry_equiv_pos_as_xyz
  1  'x, y, z'
loop_
 _atom_site_type_symbol
 _atom_site_label
 _atom_site_symmetry_multiplicity
 _atom_site_fract_x
 _atom_site_fract_y
 _atom_site_fract_z
 _atom_site_occupancy
 _atom_site_hle17_bader_spin_density
 _atom_site_hle17_ddec_charge
 _atom_site_hle17_ddec_spin_density
 _atom_site_hle17_ddec_sum_bond_order
 _atom_site_hle17_magmom
 _atom_site_hse06_10hf_bader_spin_density
 _atom_site_hse06_10hf_ddec_charge
 _atom_site_hse06_10hf_ddec_spin_density
 _atom_site_hse06_10hf_ddec_sum_bond_order
 _atom_site_hse06_10hf_magmom
 _atom_site_hse06_bader_spin_density
 _atom_site_hse06_ddec_charge
 _atom_site_hse06_ddec_spin_density
 _atom_site_hse06_ddec_sum_bond_order
 _atom_site_hse06_magmom
 _atom_site_pbe_bader_spin_density
 _atom_site_pbe_cm5_charge
 _atom_site_pbe_ddec_charge
 _atom_site_pbe_ddec_spin_density
 _atom_site_pbe_ddec_sum_bond_order
 _atom_site_pbe_magmom
Cd  Cd0  1  0.00000078  0.00000234  0.00000251  1  0  0.977133  0  1.928334  0  0  0.759079  0  2.401195  0  0  0.802614  0  2.366737  0  0  0.803372  0.72782  0  2.4216  0
Cd  Cd1  1  0.74999988  0.25000035  0.49999960  1  0  0.977083  0  1.928535  0  0  0.759001  0  2.401444  0  0  0.802541  0  2.366981  0  0  0.803334  0.727755  0  2.421834  0
H  H2  1  0.37500524  0.64463639  0.25000590  1  0  0.085218  0  0.955066  0  0  0.099304  0  1.011249  0  0  0.101733  0  1.010627  0  0  0.098579  0.096896  0  1.012711  0
H  H3  1  0.87500187  0.60537040  0.25000672  1  0  0.085216  0  0.955024  0  0  0.099307  0  1.011204  0  0  0.101737  0  1.010578  0  0  0.09858  0.096899  0  1.012667  0
H  H4  1  0.35536132  0.12499721  0.74999284  1  0  0.08521  0  0.955031  0  0  0.099306  0  1.011201  0  0  0.101734  0  1.010583  0  0  0.098588  0.096897  0  1.012667  0
H  H5  1  0.39463189  0.62499420  0.74999203  1  0  0.085219  0  0.955034  0  0  0.099309  0  1.011209  0  0  0.101733  0  1.010599  0  0  0.098594  0.0969  0  1.012672  0
H  H6  1  0.53826040  0.48972630  0.17969705  1  0  0.075635  0  0.962269  0  0  0.088264  0  1.021827  0  0  0.091022  0  1.020514  0  0  0.095625  0.086821  0  1.021994  0
H  H7  1  0.64143882  0.68996905  0.17969710  1  0  0.075696  0  0.962255  0  0  0.088294  0  1.021843  0  0  0.091053  0  1.020529  0  0  0.095635  0.086852  0  1.022009  0
H  H8  1  0.10856227  0.76027105  0.32030585  1  0  0.07572  0  0.962176  0  0  0.088302  0  1.021782  0  0  0.09106  0  1.02047  0  0  0.095664  0.08686  0  1.021948  0
H  H9  1  0.21174492  0.56003682  0.32030778  1  0  0.07572  0  0.962137  0  0  0.088302  0  1.021746  0  0  0.091063  0  1.02043  0  0  0.095657  0.08686  0  1.02191  0
H  H10  1  0.43996386  0.89143767  0.67969169  1  0  0.075713  0  0.962172  0  0  0.088291  0  1.021782  0  0  0.091048  0  1.020472  0  0  0.09565  0.086847  0  1.021949  0
H  H11  1  0.23972831  0.78825408  0.67969077  1  0  0.07572  0  0.962125  0  0  0.088304  0  1.021734  0  0  0.091062  0  1.020419  0  0  0.095662  0.08686  0  1.021902  0
H  H12  1  0.31003278  0.46173874  0.82030131  1  0  0.075667  0  0.962224  0  0  0.088279  0  1.021804  0  0  0.091041  0  1.020486  0  0  0.095637  0.086836  0  1.02197  0
H  H13  1  0.51026863  0.35856178  0.82030007  1  0  0.075675  0  0.962198  0  0  0.088294  0  1.02177  0  0  0.091056  0  1.02045  0  0  0.095629  0.086851  0  1.021934  0
H  H14  1  0.53585560  0.25371703  0.17593017  1  0  0.089443  0  0.974626  0  0  0.09792  0  1.040862  0  0  0.10112  0  1.039306  0  0  0.097714  0.095912  0  1.041835  0
H  H15  1  0.64007309  0.92220867  0.17592709  1  0  0.089449  0  0.974653  0  0  0.097914  0  1.040902  0  0  0.101115  0  1.039343  0  0  0.097714  0.095909  0  1.041872  0
H  H16  1  0.10991677  0.99628148  0.32407146  1  0  0.089524  0  0.974685  0  0  0.097985  0  1.040948  0  0  0.101186  0  1.039394  0  0  0.097752  0.095988  0  1.041892  0
H  H17  1  0.21415392  0.32779138  0.32407417  1  0  0.089523  0  0.974667  0  0  0.097994  0  1.04091  0  0  0.101192  0  1.039361  0  0  0.097743  0.095989  0  1.041876  0
H  H18  1  0.67220906  0.89007937  0.67592811  1  0  0.08956  0  0.974671  0  0  0.098023  0  1.040914  0  0  0.101223  0  1.039362  0  0  0.097744  0.096014  0  1.041889  0
H  H19  1  0.00372038  0.78584632  0.67593077  1  0  0.089542  0  0.974689  0  0  0.098012  0  1.040934  0  0  0.101213  0  1.039382  0  0  0.097758  0.096011  0  1.041884  0
H  H20  1  0.07779261  0.46414601  0.82407333  1  0  0.089481  0  0.974616  0  0  0.097932  0  1.040881  0  0  0.101128  0  1.039328  0  0  0.097719  0.095923  0  1.041856  0
H  H21  1  0.74627938  0.35992419  0.82406974  1  0  0.089499  0  0.974626  0  0  0.097948  0  1.040888  0  0  0.101147  0  1.039331  0  0  0.097721  0.095941  0  1.041862  0
H  H22  1  0.21371807  0.80955590  0.15054069  1  0  0.087945  0  0.971151  0  0  0.10054  0  1.030891  0  0  0.102052  0  1.03131  0  0  0.108173  0.099346  0  1.030999  0
H  H23  1  0.93682444  0.34098828  0.15054340  1  0  0.087931  0  0.971155  0  0  0.10054  0  1.030888  0  0  0.102049  0  1.031312  0  0  0.108172  0.099347  0  1.030995  0
H  H24  1  0.81317811  0.44045156  0.34945448  1  0  0.087891  0  0.971114  0  0  0.100509  0  1.030836  0  0  0.102024  0  1.031248  0  0  0.10815  0.099318  0  1.030941  0
H  H25  1  0.53627521  0.90899901  0.34945191  1  0  0.087916  0  0.971099  0  0  0.100562  0  1.030789  0  0  0.102074  0  1.031211  0  0  0.10816  0.09937  0  1.030893  0
H  H26  1  0.09099710  0.18682328  0.65055076  1  0  0.087909  0  0.971197  0  0  0.100546  0  1.030888  0  0  0.102055  0  1.031326  0  0  0.108164  0.099352  0  1.030996  0
H  H27  1  0.55955035  0.46372556  0.65054782  1  0  0.087942  0  0.971103  0  0  0.100557  0  1.030828  0  0  0.102069  0  1.031251  0  0  0.108161  0.099363  0  1.030935  0
H  H28  1  0.65901441  0.78628577  0.84946062  1  0  0.087919  0  0.971087  0  0  0.1005  0  1.030855  0  0  0.102013  0  1.031271  0  0  0.108164  0.099308  0  1.030958  0
H  H29  1  0.19044180  0.06317988  0.84945968  1  0  0.087903  0  0.971209  0  0  0.10048  0  1.030976  0  0  0.101984  0  1.031415  0  0  0.108134  0.099288  0  1.03108  0
C  C30  1  0.37500447  0.54114412  0.25000707  1  0  -0.075665  0  3.775833  0  0  -0.088887  0  4.020913  0  0  -0.090233  0  4.042792  0  0  -0.094364  -0.087764  0  4.00679  0
C  C31  1  0.87500264  0.70886266  0.25000458  1  0  -0.075627  0  3.775825  0  0  -0.088854  0  4.020903  0  0  -0.090199  0  4.04278  0  0  -0.094373  -0.087733  0  4.006783  0
C  C32  1  0.45885745  0.12500033  0.74999569  1  0  -0.075661  0  3.775923  0  0  -0.088886  0  4.02099  0  0  -0.090234  0  4.04287  0  0  -0.094401  -0.087765  0  4.00687  0
C  C33  1  0.29113958  0.62499925  0.74999707  1  0  -0.075599  0  3.77585  0  0  -0.088816  0  4.020907  0  0  -0.090165  0  4.042785  0  0  -0.094343  -0.087693  0  4.006783  0
C  C34  1  0.46708830  0.45498268  0.21183775  1  0  -0.063664  0  3.788156  0  0  -0.075879  0  4.035205  0  0  -0.078125  0  4.057206  0  0  -0.093972  -0.074674  0  4.020314  0
C  C35  1  0.74475106  0.75685198  0.21183738  1  0  -0.063735  0  3.788163  0  0  -0.075924  0  4.035213  0  0  -0.07817  0  4.05721  0  0  -0.093966  -0.074719  0  4.020321  0
C  C36  1  0.00524867  0.79501884  0.28817240  1  0  -0.063699  0  3.788306  0  0  -0.075867  0  4.035336  0  0  -0.078112  0  4.057335  0  0  -0.093958  -0.074662  0  4.020445  0
C  C37  1  0.28292510  0.49315330  0.28817396  1  0  -0.063657  0  3.788367  0  0  -0.075823  0  4.035397  0  0  -0.07807  0  4.057395  0  0  -0.093931  -0.074619  0  4.020503  0
C  C38  1  0.50684212  0.99474957  0.71182472  1  0  -0.06366  0  3.788111  0  0  -0.075825  0  4.035139  0  0  -0.078069  0  4.057139  0  0  -0.093944  -0.074619  0  4.020247  0
C  C39  1  0.20498196  0.71707330  0.71182671  1  0  -0.063703  0  3.788385  0  0  -0.075877  0  4.035419  0  0  -0.078122  0  4.05742  0  0  -0.093958  -0.074671  0  4.020527  0
C  C40  1  0.24314995  0.53291178  0.78816335  1  0  -0.063688  0  3.788006  0  0  -0.075889  0  4.035045  0  0  -0.078134  0  4.057041  0  0  -0.093967  -0.074682  0  4.020152  0
C  C41  1  0.54500948  0.25524713  0.78815880  1  0  -0.063662  0  3.788166  0  0  -0.07587  0  4.035201  0  0  -0.078117  0  4.057199  0  0  -0.093918  -0.074663  0  4.020307  0
C  C42  1  0.46687493  0.32234526  0.21104874  1  0  -0.113455  0  3.75166  0  0  -0.134016  0  4.000843  0  0  -0.135634  0  4.02059  0  0  -0.094371  -0.13319  0  3.987945  0
C  C43  1  0.74417351  0.88870317  0.21104760  1  0  -0.1135  0  3.751737  0  0  -0.134055  0  4.000912  0  0  -0.135673  0  4.020657  0  0  -0.094405  -0.133229  0  3.988012  0
C  C44  1  0.00582498  0.92765623  0.28895699  1  0  -0.113627  0  3.751644  0  0  -0.134195  0  4.000801  0  0  -0.135814  0  4.020547  0  0  -0.094498  -0.133366  0  3.987911  0
C  C45  1  0.28313087  0.36130205  0.28895609  1  0  -0.11368  0  3.751775  0  0  -0.134246  0  4.000937  0  0  -0.135864  0  4.020685  0  0  -0.094529  -0.133418  0  3.988044  0
C  C46  1  0.63869701  0.99417539  0.71103938  1  0  -0.11374  0  3.751694  0  0  -0.134294  0  4.000867  0  0  -0.135914  0  4.020614  0  0  -0.094493  -0.133465  0  3.987966  0
C  C47  1  0.07234318  0.71686592  0.71103911  1  0  -0.113687  0  3.751653  0  0  -0.134248  0  4.000811  0  0  -0.135873  0  4.020556  0  0  -0.094502  -0.133417  0  3.987918  0
C  C48  1  0.11129583  0.53312592  0.78895016  1  0  -0.113581  0  3.751698  0  0  -0.13412  0  4.00089  0  0  -0.135737  0  4.020632  0  0  -0.094436  -0.133294  0  3.987994  0
C  C49  1  0.67765164  0.25582381  0.78894592  1  0  -0.113541  0  3.751598  0  0  -0.134073  0  4.000781  0  0  -0.135689  0  4.020523  0  0  -0.094396  -0.133249  0  3.987883  0
C  C50  1  0.37500236  0.27371364  0.24999617  1  0  -0.002492  0  3.812443  0  0  0.01598  0  4.047675  0  0  0.014563  0  4.069197  0  0  -0.010532  0.016979  0  4.03258  0
C  C51  1  0.87499542  0.97628493  0.25000197  1  0  -0.002491  0  3.812481  0  0  0.016  0  4.047712  0  0  0.014581  0  4.069238  0  0  -0.010532  0.016999  0  4.03262  0
C  C52  1  0.72627981  0.12500166  0.74999637  1  0  -0.002383  0  3.812499  0  0  0.016079  0  4.047715  0  0  0.014667  0  4.069224  0  0  -0.010508  0.017079  0  4.032618  0
C  C53  1  0.02371675  0.62498982  0.74999687  1  0  -0.002334  0  3.812476  0  0  0.016113  0  4.047697  0  0  0.014707  0  4.069197  0  0  -0.010487  0.017112  0  4.032604  0
C  C54  1  0.37500158  0.13440609  0.24999950  1  0  0.30035  0  3.806288  0  0  0.274374  0  4.058453  0  0  0.288021  0  4.076291  0  0  0.188233  0.266043  0  4.044914  0
C  C55  1  0.87499805  0.11559358  0.25000002  1  0  0.3004  0  3.806199  0  0  0.274381  0  4.058415  0  0  0.288028  0  4.076256  0  0  0.188238  0.26605  0  4.04488  0
C  C56  1  0.86559243  0.12500351  0.75000178  1  0  0.300287  0  3.806342  0  0  0.274307  0  4.058497  0  0  0.287955  0  4.076334  0  0  0.188146  0.265979  0  4.044957  0
C  C57  1  0.88440860  0.62499826  0.75000151  1  0  0.300187  0  3.806388  0  0  0.274248  0  4.058495  0  0  0.287893  0  4.076333  0  0  0.188141  0.265918  0  4.044959  0
C  C58  1  0.29510039  0.91406703  0.20252942  1  0  -0.018081  0  3.808193  0  0  -0.050953  0  4.069879  0  0  -0.050338  0  4.094085  0  0  -0.022396  -0.051549  0  4.054598  0
C  C59  1  0.90742872  0.28846169  0.20252793  1  0  -0.018069  0  3.808171  0  0  -0.050952  0  4.069853  0  0  -0.050335  0  4.094058  0  0  -0.022381  -0.051548  0  4.054572  0
C  C60  1  0.84257368  0.33593777  0.29747296  1  0  -0.017822  0  3.807893  0  0  -0.0507  0  4.069543  0  0  -0.050081  0  4.093745  0  0  -0.022293  -0.051296  0  4.054262  0
C  C61  1  0.45489760  0.96153531  0.29747167  1  0  -0.017906  0  3.808019  0  0  -0.050811  0  4.069669  0  0  -0.050194  0  4.09387  0  0  -0.022319  -0.051406  0  4.054384  0
C  C62  1  0.03846063  0.15742447  0.70252026  1  0  -0.017902  0  3.807802  0  0  -0.050799  0  4.069446  0  0  -0.050186  0  4.093644  0  0  -0.022333  -0.051395  0  4.054169  0
C  C63  1  0.66406555  0.54510526  0.70253061  1  0  -0.018025  0  3.808116  0  0  -0.050917  0  4.069791  0  0  -0.0503  0  4.093993  0  0  -0.02237  -0.051511  0  4.05451  0
C  C64  1  0.71154265  0.70490315  0.79747478  1  0  -0.017966  0  3.808114  0  0  -0.050822  0  4.069791  0  0  -0.050204  0  4.093995  0  0  -0.022358  -0.051415  0  4.054506  0
C  C65  1  0.08593597  0.09256873  0.79747596  1  0  -0.017958  0  3.80781  0  0  -0.050816  0  4.069506  0  0  -0.050198  0  4.093695  0  0  -0.022357  -0.051411  0  4.054225  0
N  N66  1  0.24539397  0.02361467  0.17362072  1  0  -0.455814  0  3.279974  0  0  -0.366029  0  3.553657  0  0  -0.38779  0  3.570883  0  0  -0.382579  -0.350709  0  3.540105  0
N  N67  1  0.92822674  0.15000650  0.17362129  1  0  -0.455831  0  3.279983  0  0  -0.366034  0  3.553681  0  0  -0.387796  0  3.570912  0  0  -0.382564  -0.350715  0  3.540132  0
N  N68  1  0.82176816  0.22639262  0.32638027  1  0  -0.455972  0  3.279761  0  0  -0.366183  0  3.553489  0  0  -0.387946  0  3.570711  0  0  -0.382612  -0.350855  0  3.53992  0
N  N69  1  0.50461156  0.09998904  0.32638100  1  0  -0.455877  0  3.279798  0  0  -0.366093  0  3.553501  0  0  -0.387856  0  3.570725  0  0  -0.382555  -0.350769  0  3.539938  0
N  N70  1  0.90000780  0.17822946  0.67361910  1  0  -0.455904  0  3.27996  0  0  -0.366106  0  3.553646  0  0  -0.387871  0  3.570877  0  0  -0.382527  -0.350781  0  3.540076  0
N  N71  1  0.77360985  0.49539031  0.67362175  1  0  -0.45581  0  3.279852  0  0  -0.366026  0  3.553526  0  0  -0.387791  0  3.570756  0  0  -0.382524  -0.350703  0  3.539959  0
N  N72  1  0.84999640  0.75460791  0.82638150  1  0  -0.455842  0  3.27997  0  0  -0.366061  0  3.553633  0  0  -0.387824  0  3.570859  0  0  -0.382573  -0.350734  0  3.540061  0
N  N73  1  0.97638433  0.07177468  0.82638084  1  0  -0.455914  0  3.279939  0  0  -0.366133  0  3.553642  0  0  -0.387897  0  3.570864  0  0  -0.382582  -0.350805  0  3.540068  0
