# generated using pymatgen
data_Gd2Co3H30C42(NO5)6
_symmetry_space_group_name_H-M   'P 1'
_cell_length_a   15.23961557
_cell_length_b   15.23962500
_cell_length_c   15.44137826
_cell_angle_alpha   90.00003111
_cell_angle_beta   89.99995609
_cell_angle_gamma   120.00008836
_symmetry_Int_Tables_number   1
_chemical_formula_structural   Gd2Co3H30C42(NO5)6
_chemical_formula_sum   'Gd4 Co6 H60 C84 N12 O60'
_cell_volume   3105.73645090
_cell_formula_units_Z   2
loop_
 _symmetry_equiv_pos_site_id
 _symmetry_equiv_pos_as_xyz
  1  'x, y, z'
loop_
 _atom_site_type_symbol
 _atom_site_label
 _atom_site_symmetry_multiplicity
 _atom_site_fract_x
 _atom_site_fract_y
 _atom_site_fract_z
 _atom_site_occupancy
 _atom_site_pbe_bader_charge
 _atom_site_pbe_bader_spin_density
 _atom_site_pbe_cm5_charge
 _atom_site_pbe_ddec_charge
 _atom_site_pbe_ddec_spin_density
 _atom_site_pbe_ddec_sum_bond_order
 _atom_site_pbe_magmom
Gd  Gd0  1  0.33333330  0.66666644  0.24999976  1  2.153497  -0.000514  1.485715  1.801959  -0.00085  2.381397  0.0
Gd  Gd1  1  0.66666674  0.33333342  0.24999954  1  2.153467  -0.000514  1.485709  1.80194  -0.00085  2.381441  0.0
Gd  Gd2  1  0.66666695  0.33333309  0.75000025  1  2.153494  -0.000514  1.48571  1.801937  -0.00085  2.381421  0.0
Gd  Gd3  1  0.33333314  0.66666649  0.75000046  1  2.153486  -0.000514  1.485709  1.801967  -0.000849  2.381451  0.0
Co  Co4  1  0.49999970  0.99999999  0.00000008  1  1.358207  2.678096  0.66399  1.080978  2.887908  2.316025  2.664
Co  Co5  1  0.00000023  0.50000008  0.00000040  1  1.363061  2.67818  0.66401  1.081053  2.887911  2.31597  2.664
Co  Co6  1  0.50000015  0.49999963  0.00000006  1  1.360841  2.678197  0.664074  1.081265  2.887961  2.316091  2.664
Co  Co7  1  0.99999981  0.49999977  0.50000019  1  1.358208  2.678091  0.663965  1.080887  2.8879  2.316104  2.664
Co  Co8  1  0.49999996  0.00000024  0.49999987  1  1.36307  2.678181  0.663981  1.081003  2.88791  2.31604  2.664
Co  Co9  1  0.49999994  0.49999995  0.50000000  1  1.360845  2.678184  0.663983  1.080991  2.887941  2.316217  2.664
H  H10  1  0.46854967  0.82958896  0.94806244  1  0.654439  0.000149  0.293667  0.384943  4.8e-05  0.948187  0.0
H  H11  1  0.17041037  0.63896077  0.94806250  1  0.637901  0.000159  0.29368  0.384949  4.8e-05  0.948169  0.0
H  H12  1  0.36103956  0.53144943  0.94806175  1  0.629145  0.000153  0.293688  0.384957  4.8e-05  0.94816  0.0
H  H13  1  0.82958959  0.36103885  0.94806153  1  0.637902  0.000159  0.293684  0.384951  4.8e-05  0.948165  0.0
H  H14  1  0.63896039  0.46855020  0.94806163  1  0.629141  0.000153  0.293686  0.384956  4.7e-05  0.94816  0.0
H  H15  1  0.82958851  0.46854934  0.55193824  1  0.654433  0.000149  0.293676  0.38493  4.8e-05  0.948206  0.0
H  H16  1  0.36103890  0.82958905  0.55193786  1  0.637901  0.000159  0.293665  0.384945  4.8e-05  0.948176  0.0
H  H17  1  0.46854900  0.63896016  0.55193842  1  0.629246  0.000153  0.293664  0.384938  4.8e-05  0.948186  0.0
H  H18  1  0.53145029  0.17041066  0.94806224  1  0.654436  0.000149  0.293678  0.384936  4.8e-05  0.948191  0.0
H  H19  1  0.63896132  0.17041049  0.55193823  1  0.637903  0.000159  0.293677  0.384942  4.8e-05  0.94818  0.0
H  H20  1  0.53145019  0.36103910  0.55193832  1  0.629249  0.000153  0.293675  0.384951  4.8e-05  0.948171  0.0
H  H21  1  0.17041030  0.53145030  0.55193786  1  0.654437  0.000149  0.293683  0.384938  4.8e-05  0.948194  0.0
H  H22  1  0.53145021  0.17041095  0.05193757  1  0.654439  0.000149  0.29368  0.384938  4.8e-05  0.948188  0.0
H  H23  1  0.82958951  0.36103914  0.05193750  1  0.637901  0.000159  0.293673  0.38494  4.8e-05  0.948183  0.0
H  H24  1  0.63896069  0.46855010  0.05193761  1  0.629257  0.000153  0.293688  0.384962  4.8e-05  0.948151  0.0
H  H25  1  0.17041067  0.63896067  0.05193848  1  0.637901  0.000159  0.293673  0.384943  4.8e-05  0.948179  0.0
H  H26  1  0.36103948  0.53144971  0.05193837  1  0.629142  0.000153  0.293684  0.384953  4.8e-05  0.948164  0.0
H  H27  1  0.17041099  0.53145094  0.44806241  1  0.654419  0.000149  0.293683  0.384944  4.8e-05  0.948184  0.0
H  H28  1  0.63896135  0.17041048  0.44806214  1  0.637905  0.000159  0.293675  0.384937  4.8e-05  0.948187  0.0
H  H29  1  0.53144984  0.36103947  0.44806223  1  0.629255  0.000153  0.29368  0.384959  4.8e-05  0.948159  0.0
H  H30  1  0.46854959  0.82958924  0.05193777  1  0.654438  0.000149  0.293664  0.38494  4.8e-05  0.948191  0.0
H  H31  1  0.36103856  0.82958942  0.44806242  1  0.637905  0.000159  0.293673  0.38496  4.8e-05  0.948153  0.0
H  H32  1  0.46854903  0.63896015  0.44806168  1  0.629246  0.000153  0.293668  0.38494  4.8e-05  0.948182  0.0
H  H33  1  0.82958920  0.46854999  0.44806279  1  0.654441  0.000149  0.293684  0.384938  4.8e-05  0.948192  0.0
H  H34  1  0.23934036  0.95672075  0.14743454  1  0.119978  0.000143  0.116339  0.128171  1e-05  0.989667  0.0
H  H35  1  0.04327883  0.28262062  0.14743444  1  0.137967  0.000141  0.116345  0.128175  9e-06  0.989655  0.0
H  H36  1  0.71738035  0.76065971  0.14743431  1  0.123914  0.000143  0.116339  0.128184  1e-05  0.989594  0.0
H  H37  1  0.95672014  0.71738035  0.14743421  1  0.137972  0.000141  0.11635  0.128201  9e-06  0.989635  0.0
H  H38  1  0.28261939  0.23934050  0.14743498  1  0.123861  0.000143  0.116353  0.128208  1e-05  0.989593  0.0
H  H39  1  0.95672065  0.23933999  0.35256603  1  0.119982  0.000143  0.116352  0.128199  1e-05  0.989628  0.0
H  H40  1  0.71737965  0.95672050  0.35256502  1  0.137972  0.000141  0.116335  0.128176  9e-06  0.989687  0.0
H  H41  1  0.23934111  0.28262000  0.35256437  1  0.123865  0.000143  0.11635  0.128203  1e-05  0.989618  0.0
H  H42  1  0.76066041  0.04327974  0.14743410  1  0.119985  0.000143  0.116344  0.128191  1e-05  0.989661  0.0
H  H43  1  0.28262070  0.04327900  0.35256558  1  0.13797  0.000141  0.11634  0.128181  9e-06  0.989658  0.0
H  H44  1  0.76065887  0.71737988  0.35256494  1  0.123852  0.000143  0.116351  0.12821  1e-05  0.989618  0.0
H  H45  1  0.04327829  0.76065961  0.35256522  1  0.119983  0.000143  0.116342  0.128195  1e-05  0.989632  0.0
H  H46  1  0.76066017  0.04327982  0.85256546  1  0.119991  0.000143  0.116343  0.128188  1e-05  0.989682  0.0
H  H47  1  0.95672104  0.71737929  0.85256492  1  0.137977  0.000141  0.116343  0.128171  9e-06  0.989658  0.0
H  H48  1  0.28262019  0.23934086  0.85256569  1  0.123915  0.000143  0.116338  0.128186  1e-05  0.989583  0.0
H  H49  1  0.04327935  0.28261994  0.85256644  1  0.137957  0.000141  0.116343  0.128189  9e-06  0.98963  0.0
H  H50  1  0.71738011  0.76065978  0.85256502  1  0.123859  0.000143  0.11634  0.128192  1e-05  0.989645  0.0
H  H51  1  0.04327923  0.76065992  0.64743462  1  0.119984  0.000143  0.116346  0.128193  1e-05  0.989655  0.0
H  H52  1  0.28262060  0.04327903  0.64743499  1  0.137968  0.000141  0.116338  0.128165  9e-06  0.98967  0.0
H  H53  1  0.76065915  0.71737953  0.64743499  1  0.123868  0.000143  0.116354  0.128204  1e-05  0.9896  0.0
H  H54  1  0.23934012  0.95672082  0.85256525  1  0.119983  0.000143  0.116343  0.128182  1e-05  0.989664  0.0
H  H55  1  0.71737955  0.95672053  0.64743442  1  0.137975  0.000141  0.116346  0.128195  9e-06  0.989634  0.0
H  H56  1  0.23934035  0.28261937  0.64743507  1  0.123858  0.000143  0.116346  0.128193  1e-05  0.98962  0.0
H  H57  1  0.95672120  0.23934068  0.64743478  1  0.119988  0.000143  0.116339  0.12818  1e-05  0.989649  0.0
H  H58  1  0.09209296  0.90790648  0.24999926  1  0.033303  -5.7e-05  0.101612  0.085138  -1.6e-05  1.008229  0.0
H  H59  1  0.09209425  0.18418848  0.24999907  1  0.075101  -5.2e-05  0.10162  0.085188  -1.6e-05  1.008228  0.0
H  H60  1  0.81581250  0.90790718  0.24999964  1  0.02744  -5.7e-05  0.101619  0.085152  -1.6e-05  1.00826  0.0
H  H61  1  0.90790541  0.81581176  0.24999958  1  0.075101  -5.2e-05  0.101626  0.085158  -1.6e-05  1.008257  0.0
H  H62  1  0.18418820  0.09209333  0.25000031  1  0.027445  -5.7e-05  0.10162  0.085153  -1.6e-05  1.008261  0.0
H  H63  1  0.90790643  0.09209271  0.25000003  1  0.0333  -5.7e-05  0.101619  0.085151  -1.6e-05  1.008241  0.0
H  H64  1  0.90790692  0.09209342  0.75000009  1  0.033327  -5.7e-05  0.101637  0.085156  -1.6e-05  1.008203  0.0
H  H65  1  0.90790628  0.81581209  0.75000028  1  0.027455  -5.7e-05  0.101622  0.085176  -1.6e-05  1.00827  0.0
H  H66  1  0.18418803  0.09209338  0.74999972  1  0.027449  -5.7e-05  0.101616  0.085153  -1.6e-05  1.008267  0.0
H  H67  1  0.09209381  0.18418749  0.75000042  1  0.026015  -5.8e-05  0.101628  0.085151  -1.6e-05  1.008255  0.0
H  H68  1  0.81581205  0.90790620  0.74999970  1  0.026015  -5.8e-05  0.101616  0.085166  -1.6e-05  1.008274  0.0
H  H69  1  0.09209383  0.90790682  0.74999997  1  0.033322  -5.7e-05  0.101622  0.085162  -1.6e-05  1.008239  0.0
C  C70  1  0.35456933  0.86370377  0.13886529  1  1.608199  -0.007376  0.228034  0.570239  -0.008964  4.186721  -0.005
C  C71  1  0.13629929  0.49086915  0.13886722  1  1.606338  -0.007398  0.228036  0.570191  -0.008966  4.186734  -0.005
C  C72  1  0.50912893  0.64543145  0.13886906  1  1.593983  -0.007385  0.228074  0.570217  -0.008971  4.18649  -0.005
C  C73  1  0.86370504  0.50913565  0.13886371  1  1.606645  -0.007395  0.228074  0.570275  -0.008962  4.186668  -0.005
C  C74  1  0.49087081  0.35456876  0.13886834  1  1.593975  -0.007385  0.228031  0.570144  -0.008971  4.186604  -0.005
C  C75  1  0.86370561  0.35456938  0.36113528  1  1.608071  -0.007375  0.228037  0.570267  -0.008961  4.186699  -0.005
C  C76  1  0.50913285  0.86370341  0.36113425  1  1.606565  -0.007397  0.228091  0.570281  -0.008963  4.186657  -0.005
C  C77  1  0.35456947  0.49086988  0.36113227  1  1.594185  -0.007381  0.228048  0.570213  -0.008968  4.18666  -0.005
C  C78  1  0.64543106  0.13629709  0.13886564  1  1.608192  -0.007375  0.228016  0.570186  -0.008962  4.186724  -0.005
C  C79  1  0.49086843  0.13629777  0.36113342  1  1.606538  -0.007398  0.228045  0.570234  -0.008964  4.186679  -0.005
C  C80  1  0.64543088  0.50912962  0.36113152  1  1.594157  -0.007381  0.22798  0.570105  -0.008968  4.186727  -0.005
C  C81  1  0.13629577  0.64543039  0.36113369  1  1.60819  -0.007375  0.228054  0.570208  -0.008962  4.186747  -0.005
C  C82  1  0.64543082  0.13629717  0.86113406  1  1.608187  -0.007376  0.228101  0.570307  -0.008964  4.186614  -0.005
C  C83  1  0.86370124  0.50913141  0.86113278  1  1.606334  -0.007398  0.228044  0.570211  -0.008965  4.186715  -0.005
C  C84  1  0.49087095  0.35456846  0.86113094  1  1.593978  -0.007385  0.228046  0.570228  -0.008971  4.186436  -0.005
C  C85  1  0.13629511  0.49086530  0.86113629  1  1.606667  -0.007395  0.228098  0.570297  -0.008961  4.186621  -0.005
C  C86  1  0.50912972  0.64543181  0.86113101  1  1.593955  -0.007384  0.228053  0.570191  -0.008971  4.186436  -0.005
C  C87  1  0.13629426  0.64543052  0.63886472  1  1.608069  -0.007375  0.228047  0.570261  -0.008961  4.186726  -0.005
C  C88  1  0.49086768  0.13629715  0.63886575  1  1.606566  -0.007398  0.228069  0.570222  -0.008964  4.186693  -0.005
C  C89  1  0.64543079  0.50912965  0.63886773  1  1.594136  -0.007382  0.228007  0.570139  -0.008969  4.186697  -0.005
C  C90  1  0.35456909  0.86370385  0.86113501  1  1.608197  -0.007376  0.228034  0.570225  -0.008963  4.186715  -0.005
C  C91  1  0.50913182  0.86370175  0.63886594  1  1.606562  -0.007397  0.228077  0.570276  -0.008963  4.186732  -0.005
C  C92  1  0.35456872  0.49086926  0.63886784  1  1.594221  -0.007381  0.227997  0.570155  -0.008967  4.186652  -0.005
C  C93  1  0.86370373  0.35456989  0.63886631  1  1.608198  -0.007376  0.228016  0.570195  -0.008964  4.186704  -0.005
C  C94  1  0.26533220  0.83971871  0.19577539  1  0.562221  0.003769  0.129898  0.137613  0.001674  3.951561  0.004
C  C95  1  0.16028175  0.42561400  0.19577532  1  0.458633  0.003733  0.129832  0.137503  0.001674  3.951664  0.004
C  C96  1  0.57438695  0.73466827  0.19577525  1  0.568157  0.00375  0.129839  0.137491  0.001671  3.951674  0.004
C  C97  1  0.83971860  0.57438688  0.19577446  1  0.458446  0.003735  0.129886  0.137597  0.001675  3.951552  0.004
C  C98  1  0.42561379  0.26533222  0.19577518  1  0.568119  0.00375  0.129825  0.137514  0.001671  3.951678  0.004
C  C99  1  0.83971852  0.26533177  0.30422454  1  0.56222  0.003771  0.129864  0.137536  0.001675  3.951618  0.004
C  C100  1  0.57438547  0.83971835  0.30422415  1  0.458458  0.003735  0.129831  0.137542  0.001674  3.951649  0.004
C  C101  1  0.26533280  0.42561430  0.30422415  1  0.568144  0.003751  0.129833  0.137516  0.001672  3.951666  0.004
C  C102  1  0.73466853  0.16028178  0.19577504  1  0.562198  0.00377  0.129871  0.137597  0.001675  3.951589  0.004
C  C103  1  0.42561454  0.16028152  0.30422467  1  0.458472  0.003734  0.129858  0.137569  0.001674  3.951635  0.004
C  C104  1  0.73466786  0.57438622  0.30422337  1  0.568178  0.003752  0.129786  0.137453  0.001672  3.951751  0.004
C  C105  1  0.16028083  0.73466743  0.30422427  1  0.56214  0.00377  0.129851  0.137631  0.001674  3.951662  0.004
C  C106  1  0.73466767  0.16028119  0.80422461  1  0.562286  0.003769  0.129892  0.137586  0.001674  3.951593  0.004
C  C107  1  0.83971916  0.57438619  0.80422468  1  0.458619  0.003733  0.129817  0.137439  0.001674  3.951667  0.004
C  C108  1  0.42561293  0.26533163  0.80422411  1  0.568162  0.00375  0.129897  0.137546  0.001671  3.951635  0.004
C  C109  1  0.16028193  0.42561368  0.80422554  1  0.458442  0.003736  0.129895  0.137591  0.001675  3.951593  0.004
C  C110  1  0.57438712  0.73466796  0.80422482  1  0.56814  0.00375  0.129879  0.137568  0.001671  3.951625  0.004
C  C111  1  0.16028174  0.73466775  0.69577546  1  0.562221  0.003771  0.129862  0.13757  0.001675  3.95159  0.004
C  C112  1  0.42561441  0.16028156  0.69577521  1  0.458459  0.003734  0.129868  0.137577  0.001674  3.951587  0.004
C  C113  1  0.73466773  0.57438626  0.69577585  1  0.568177  0.003751  0.129856  0.137503  0.001672  3.95165  0.004
C  C114  1  0.26533238  0.83971840  0.80422497  1  0.562214  0.00377  0.129888  0.137621  0.001674  3.95154  0.004
C  C115  1  0.57438599  0.83971905  0.69577533  1  0.458426  0.003734  0.129875  0.137572  0.001674  3.951635  0.004
C  C116  1  0.26533229  0.42561472  0.69577664  1  0.568179  0.003752  0.129851  0.137534  0.001673  3.951715  0.004
C  C117  1  0.83971904  0.26533247  0.69577573  1  0.562149  0.003769  0.129836  0.137523  0.001674  3.951661  0.004
C  C118  1  0.21413673  0.89424230  0.19305676  1  -0.00869  -0.005702  -0.065958  -0.118846  -0.00615  3.915691  -0.003
C  C119  1  0.10575841  0.31989695  0.19305729  1  0.050187  -0.005686  -0.065953  -0.11878  -0.006153  3.915661  -0.003
C  C120  1  0.68010360  0.78586260  0.19305785  1  -0.06894  -0.005718  -0.06598  -0.118863  -0.006151  3.91576  -0.003
C  C121  1  0.89424054  0.68010403  0.19305709  1  0.050171  -0.005685  -0.065979  -0.118898  -0.006152  3.915773  -0.003
C  C122  1  0.31989714  0.21413790  0.19305783  1  -0.068869  -0.005719  -0.065979  -0.118878  -0.006152  3.915713  -0.003
C  C123  1  0.89424179  0.21413674  0.30694253  1  -0.008668  -0.005702  -0.065976  -0.118859  -0.006149  3.915732  -0.003
C  C124  1  0.68010362  0.89424197  0.30694214  1  0.050167  -0.005688  -0.065955  -0.118857  -0.006155  3.915761  -0.003
C  C125  1  0.21413885  0.31989734  0.30694152  1  -0.069195  -0.00572  -0.065955  -0.118825  -0.006152  3.915714  -0.003
C  C126  1  0.78586259  0.10575830  0.19305698  1  -0.008663  -0.005701  -0.065973  -0.118877  -0.006149  3.91577  -0.003
C  C127  1  0.31989705  0.10575855  0.30694207  1  0.050198  -0.005687  -0.065969  -0.118865  -0.006155  3.915765  -0.003
C  C128  1  0.78586143  0.68010356  0.30694205  1  -0.069198  -0.005719  -0.065955  -0.118868  -0.00615  3.915694  -0.003
C  C129  1  0.10575756  0.78586247  0.30694168  1  -0.009032  -0.005703  -0.065975  -0.118927  -0.00615  3.915749  -0.003
C  C130  1  0.78586277  0.10575799  0.80694260  1  -0.008658  -0.005703  -0.065966  -0.118858  -0.006151  3.915763  -0.003
C  C131  1  0.89424147  0.68010296  0.80694206  1  0.050173  -0.005686  -0.065948  -0.118779  -0.006154  3.915756  -0.003
C  C132  1  0.31989628  0.21413731  0.80694215  1  -0.068941  -0.005719  -0.065974  -0.118864  -0.006152  3.915719  -0.003
C  C133  1  0.10575896  0.31989626  0.80694291  1  0.050177  -0.005685  -0.065978  -0.118894  -0.006152  3.915737  -0.003
C  C134  1  0.68010312  0.78586163  0.80694217  1  -0.068889  -0.005718  -0.065984  -0.118889  -0.006151  3.915777  -0.003
C  C135  1  0.10575809  0.78586316  0.69305747  1  -0.008655  -0.005702  -0.065977  -0.118875  -0.00615  3.915761  -0.003
C  C136  1  0.31989626  0.10575793  0.69305786  1  0.050154  -0.005688  -0.065955  -0.118819  -0.006155  3.915682  -0.003
C  C137  1  0.78586168  0.68010322  0.69305849  1  -0.069196  -0.005721  -0.065968  -0.118846  -0.006152  3.915669  -0.003
C  C138  1  0.21413690  0.89424198  0.80694302  1  -0.008662  -0.005701  -0.065967  -0.118855  -0.006149  3.915724  -0.003
C  C139  1  0.68010321  0.89424098  0.69305793  1  0.050193  -0.005687  -0.065972  -0.118868  -0.006155  3.915759  -0.003
C  C140  1  0.21413807  0.31989672  0.69305796  1  -0.06917  -0.005719  -0.065956  -0.118855  -0.00615  3.9157  -0.003
C  C141  1  0.89424231  0.21413744  0.69305832  1  -0.009051  -0.005703  -0.065957  -0.118825  -0.00615  3.915709  -0.003
C  C142  1  0.13343099  0.86656851  0.24999924  1  -0.111425  -0.001358  -0.070065  -0.042524  -0.001458  4.004281  0.0
C  C143  1  0.13343232  0.26686414  0.24999908  1  -0.070661  -0.001342  -0.070047  -0.042617  -0.00146  4.004164  0.0
C  C144  1  0.73313678  0.86656911  0.24999966  1  -0.0216  -0.001337  -0.070025  -0.042496  -0.00146  4.00426  0.0
C  C145  1  0.86656800  0.73313675  0.24999893  1  -0.070693  -0.001342  -0.070057  -0.042516  -0.001459  4.004253  0.0
C  C146  1  0.26686288  0.13343112  0.25000029  1  -0.021625  -0.001337  -0.070031  -0.042507  -0.001461  4.004214  0.0
C  C147  1  0.86656868  0.13343172  0.25000006  1  -0.111879  -0.001357  -0.070041  -0.042541  -0.001458  4.004343  0.0
C  C148  1  0.86656917  0.13343243  0.75000012  1  -0.111444  -0.001358  -0.070057  -0.042551  -0.001459  4.004282  0.0
C  C149  1  0.86656794  0.73313539  0.75000092  1  -0.021616  -0.001336  -0.070071  -0.042587  -0.00146  4.00425  0.0
C  C150  1  0.26686375  0.13343145  0.74999970  1  -0.021597  -0.001337  -0.070034  -0.042526  -0.00146  4.004238  0.0
C  C151  1  0.13343084  0.26686288  0.75000108  1  -0.021624  -0.001335  -0.070056  -0.042523  -0.001459  4.004226  0.0
C  C152  1  0.73313699  0.86656879  0.74999972  1  -0.021626  -0.001337  -0.07003  -0.042526  -0.00146  4.004239  0.0
C  C153  1  0.13343186  0.86656884  0.74999994  1  -0.1119  -0.001357  -0.070053  -0.042573  -0.001458  4.004373  0.0
N  N154  1  0.23820488  0.76179474  0.24999982  1  -1.262379  -0.005744  -0.377932  -0.340426  -0.00657  3.528671  -0.005
N  N155  1  0.23820616  0.47641213  0.24999974  1  -1.259332  -0.00575  -0.377937  -0.340377  -0.006575  3.528625  -0.005
N  N156  1  0.52358839  0.76179423  0.24999971  1  -1.259286  -0.005751  -0.377914  -0.340348  -0.006575  3.528643  -0.005
N  N157  1  0.76179312  0.52358848  0.25000020  1  -1.259276  -0.005748  -0.377896  -0.340338  -0.006573  3.528675  -0.005
N  N158  1  0.47641231  0.23820627  0.24999959  1  -1.259274  -0.005751  -0.377923  -0.340358  -0.006576  3.528622  -0.005
N  N159  1  0.76179516  0.23820511  0.24999948  1  -1.262381  -0.005742  -0.377918  -0.340355  -0.006568  3.528632  -0.005
N  N160  1  0.76179499  0.23820517  0.75000083  1  -1.262471  -0.005744  -0.377922  -0.340377  -0.006571  3.528699  -0.005
N  N161  1  0.76179437  0.52358843  0.75000026  1  -1.259297  -0.00575  -0.3779  -0.340272  -0.006575  3.528585  -0.005
N  N162  1  0.47641111  0.23820605  0.75000029  1  -1.259282  -0.005751  -0.377976  -0.340403  -0.006575  3.528643  -0.005
N  N163  1  0.23820610  0.47641077  0.75000045  1  -1.259313  -0.005747  -0.37795  -0.340362  -0.006571  3.528696  -0.005
N  N164  1  0.52358860  0.76179391  0.75000041  1  -1.259253  -0.005751  -0.377975  -0.340414  -0.006576  3.528567  -0.005
N  N165  1  0.23820510  0.76179441  0.75000052  1  -1.262388  -0.005743  -0.377919  -0.340381  -0.006569  3.528661  -0.005
O  O166  1  0.38864103  0.80186631  0.14257413  1  -1.190477  -0.003539  -0.36014  -0.617039  -0.004266  2.285715  -0.003
O  O167  1  0.19813382  0.58677497  0.14257350  1  -1.191091  -0.003541  -0.360163  -0.616979  -0.004267  2.285852  -0.003
O  O168  1  0.41322752  0.61135959  0.14257277  1  -1.184911  -0.003542  -0.360151  -0.616941  -0.004272  2.286065  -0.003
O  O169  1  0.80186564  0.41322420  0.14257322  1  -1.191016  -0.003538  -0.360202  -0.617074  -0.004265  2.285615  -0.003
O  O170  1  0.58677363  0.38864052  0.14257330  1  -1.184908  -0.003542  -0.360128  -0.616909  -0.004271  2.28602  -0.003
O  O171  1  0.80186564  0.38864085  0.35742580  1  -1.190447  -0.003537  -0.360156  -0.617056  -0.004265  2.285567  -0.003
O  O172  1  0.41322436  0.80186627  0.35742670  1  -1.191064  -0.003539  -0.360206  -0.617083  -0.004266  2.285726  -0.003
O  O173  1  0.38864074  0.58677443  0.35742665  1  -1.184921  -0.00354  -0.360135  -0.616944  -0.00427  2.285947  -0.003
O  O174  1  0.61135908  0.19813352  0.14257388  1  -1.190484  -0.003539  -0.360135  -0.617004  -0.004266  2.285713  -0.003
O  O175  1  0.58677561  0.19813360  0.35742583  1  -1.191089  -0.00354  -0.360159  -0.617031  -0.004267  2.285761  -0.003
O  O176  1  0.61135923  0.41322545  0.35742652  1  -1.184911  -0.00354  -0.360123  -0.616912  -0.00427  2.285943  -0.003
O  O177  1  0.19813395  0.61135940  0.35742608  1  -1.190467  -0.003538  -0.360125  -0.616994  -0.004266  2.285698  -0.003
O  O178  1  0.61135922  0.19813322  0.85742652  1  -1.190487  -0.003539  -0.360202  -0.617066  -0.004266  2.285723  -0.003
O  O179  1  0.80186606  0.41322494  0.85742651  1  -1.191088  -0.003541  -0.360157  -0.616978  -0.004267  2.285836  -0.003
O  O180  1  0.58677236  0.38864032  0.85742658  1  -1.184908  -0.003542  -0.36015  -0.616955  -0.004272  2.28607  -0.003
O  O181  1  0.19813423  0.58677570  0.85742678  1  -1.191032  -0.003538  -0.360201  -0.61707  -0.004265  2.285638  -0.003
O  O182  1  0.41322700  0.61135863  0.85742671  1  -1.184884  -0.003542  -0.360144  -0.616935  -0.004272  2.286017  -0.003
O  O183  1  0.19813461  0.61135868  0.64257421  1  -1.190465  -0.003537  -0.36018  -0.617074  -0.004264  2.285571  -0.003
O  O184  1  0.58677552  0.19813363  0.64257395  1  -1.191073  -0.00354  -0.360169  -0.61704  -0.004266  2.285765  -0.003
O  O185  1  0.61135914  0.41322548  0.64257335  1  -1.184907  -0.00354  -0.360122  -0.616914  -0.00427  2.285934  -0.003
O  O186  1  0.38864052  0.80186535  0.85742612  1  -1.190475  -0.003539  -0.360156  -0.617036  -0.004266  2.285708  -0.003
O  O187  1  0.41322464  0.80186593  0.64257418  1  -1.19108  -0.00354  -0.360152  -0.617039  -0.004266  2.285787  -0.003
O  O188  1  0.38863999  0.58677380  0.64257413  1  -1.184889  -0.003539  -0.360145  -0.616976  -0.004269  2.285882  -0.003
O  O189  1  0.80186658  0.38864116  0.64257392  1  -1.190483  -0.003539  -0.360153  -0.617023  -0.004266  2.28574  -0.003
O  O190  1  0.38810951  0.94212452  0.09275672  1  -1.140547  0.060956  -0.293827  -0.530845  0.031498  2.345791  0.054
O  O191  1  0.05787328  0.44598483  0.09275671  1  -1.138782  0.060966  -0.293819  -0.530872  0.031504  2.345652  0.054
O  O192  1  0.55401842  0.61188877  0.09275333  1  -1.138644  0.061001  -0.293871  -0.530935  0.031511  2.345194  0.054
O  O193  1  0.94212235  0.55401425  0.09275641  1  -1.138957  0.060949  -0.293821  -0.530856  0.031494  2.345885  0.054
O  O194  1  0.44598380  0.38811160  0.09275396  1  -1.138628  0.060996  -0.293872  -0.530938  0.031509  2.345351  0.054
O  O195  1  0.94212330  0.38810872  0.40724319  1  -1.140443  0.060951  -0.293809  -0.530819  0.031495  2.345936  0.054
O  O196  1  0.55401435  0.94212433  0.40724283  1  -1.138843  0.060955  -0.293822  -0.530854  0.031497  2.345781  0.054
O  O197  1  0.38811149  0.44598508  0.40724471  1  -1.138788  0.060986  -0.293846  -0.530882  0.031504  2.345499  0.054
O  O198  1  0.61189026  0.05787568  0.09275640  1  -1.140526  0.060957  -0.293832  -0.530847  0.031499  2.345814  0.054
O  O199  1  0.44598597  0.05787518  0.40724329  1  -1.138819  0.060961  -0.293842  -0.53088  0.031501  2.345713  0.054
O  O200  1  0.61188807  0.55401518  0.40724530  1  -1.13883  0.060992  -0.293815  -0.530828  0.031507  2.345567  0.054
O  O201  1  0.05787495  0.61189023  0.40724293  1  -1.140539  0.060956  -0.293832  -0.530834  0.031498  2.345816  0.054
O  O202  1  0.61188971  0.05787473  0.90724328  1  -1.140525  0.060959  -0.293816  -0.530849  0.031499  2.345722  0.054
O  O203  1  0.94212698  0.55401469  0.90724329  1  -1.138786  0.060964  -0.293819  -0.530866  0.031502  2.345624  0.054
O  O204  1  0.44598184  0.38811076  0.90724602  1  -1.138592  0.060997  -0.293884  -0.530979  0.03151  2.345203  0.054
O  O205  1  0.05787752  0.44598565  0.90724424  1  -1.138964  0.06095  -0.293844  -0.530883  0.031495  2.345817  0.054
O  O206  1  0.55401815  0.61188886  0.90724669  1  -1.138646  0.061  -0.293883  -0.530959  0.031511  2.345208  0.054
O  O207  1  0.05787761  0.61189146  0.59275681  1  -1.140436  0.060949  -0.293814  -0.530827  0.031494  2.346001  0.054
O  O208  1  0.44598590  0.05787520  0.59275652  1  -1.138838  0.060958  -0.293825  -0.530836  0.031499  2.345742  0.054
O  O209  1  0.61188904  0.55401548  0.59275465  1  -1.138824  0.06099  -0.293851  -0.530873  0.031505  2.345522  0.054
O  O210  1  0.38810962  0.94212423  0.90724360  1  -1.140549  0.060954  -0.293845  -0.530873  0.031497  2.34582  0.054
O  O211  1  0.55401429  0.94212435  0.59275672  1  -1.138807  0.060959  -0.293842  -0.530874  0.0315  2.345739  0.054
O  O212  1  0.38811077  0.44598445  0.59275535  1  -1.138877  0.060985  -0.293801  -0.530824  0.031504  2.345568  0.054
O  O213  1  0.94212558  0.38811033  0.59275642  1  -1.140538  0.060959  -0.293801  -0.530812  0.031499  2.345755  0.054
O  O214  1  0.50939384  0.86564860  0.00000004  1  -1.26777  0.071481  -0.576795  -0.751751  0.036676  2.060698  0.057
O  O215  1  0.13435028  0.64374463  0.99999947  1  -1.237801  0.071474  -0.576818  -0.751772  0.036676  2.060677  0.057
O  O216  1  0.35625474  0.49060468  1.00000000  1  -1.217442  0.07144  -0.576828  -0.751803  0.036676  2.06068  0.057
O  O217  1  0.86564955  0.35625554  0.00000042  1  -1.237801  0.071474  -0.576826  -0.751774  0.036676  2.060696  0.057
O  O218  1  0.64374547  0.50939512  0.99999989  1  -1.217499  0.07144  -0.576834  -0.751814  0.036677  2.060673  0.057
O  O219  1  0.86564790  0.50939355  0.49999987  1  -1.267768  0.07148  -0.576824  -0.751728  0.036676  2.060734  0.057
O  O220  1  0.35625531  0.86564904  0.50000015  1  -1.237804  0.071473  -0.576802  -0.751771  0.036676  2.060656  0.057
O  O221  1  0.50939407  0.64374493  0.50000004  1  -1.217643  0.071441  -0.576789  -0.751749  0.036677  2.060685  0.057
O  O222  1  0.49060665  0.13435223  0.99999985  1  -1.267773  0.07148  -0.576826  -0.751744  0.036676  2.060718  0.057
O  O223  1  0.64374494  0.13435049  0.49999985  1  -1.237806  0.071473  -0.576827  -0.751764  0.036676  2.060706  0.057
O  O224  1  0.49060515  0.35625432  0.49999997  1  -1.217607  0.071439  -0.576795  -0.75177  0.036676  2.060683  0.057
O  O225  1  0.13435197  0.49060636  0.50000014  1  -1.267749  0.071481  -0.576828  -0.751736  0.036676  2.060711  0.057
