# generated using pymatgen
data_CuH9C11N4
_symmetry_space_group_name_H-M   'P 1'
_cell_length_a   9.23688396
_cell_length_b   11.21999226
_cell_length_c   14.46923714
_cell_angle_alpha   89.99988849
_cell_angle_beta   90.00058716
_cell_angle_gamma   101.57770756
_symmetry_Int_Tables_number   1
_chemical_formula_structural   CuH9C11N4
_chemical_formula_sum   'Cu4 H36 C44 N16'
_cell_volume   1469.04850033
_cell_formula_units_Z   4
loop_
 _symmetry_equiv_pos_site_id
 _symmetry_equiv_pos_as_xyz
  1  'x, y, z'
loop_
 _atom_site_type_symbol
 _atom_site_label
 _atom_site_symmetry_multiplicity
 _atom_site_fract_x
 _atom_site_fract_y
 _atom_site_fract_z
 _atom_site_occupancy
 _atom_site_hle17_bader_spin_density
 _atom_site_hle17_ddec_charge
 _atom_site_hle17_ddec_spin_density
 _atom_site_hle17_ddec_sum_bond_order
 _atom_site_hle17_magmom
 _atom_site_hse06_10hf_bader_spin_density
 _atom_site_hse06_10hf_ddec_charge
 _atom_site_hse06_10hf_ddec_spin_density
 _atom_site_hse06_10hf_ddec_sum_bond_order
 _atom_site_hse06_10hf_magmom
 _atom_site_hse06_bader_spin_density
 _atom_site_hse06_ddec_charge
 _atom_site_hse06_ddec_spin_density
 _atom_site_hse06_ddec_sum_bond_order
 _atom_site_hse06_magmom
 _atom_site_pbe_bader_spin_density
 _atom_site_pbe_cm5_charge
 _atom_site_pbe_ddec_charge
 _atom_site_pbe_ddec_spin_density
 _atom_site_pbe_ddec_sum_bond_order
 _atom_site_pbe_magmom
Cu  Cu0  1  0.45806328  0.99297956  0.91650463  1  0  0.384254  0  1.947076  0  0  0.252595  0  2.449151  0  0  0.264397  0  2.391423  0  0  0.507544  0.248555  0  2.485009  0
Cu  Cu1  1  0.54193461  0.50702200  0.41650443  1  0  0.384206  0  1.947144  0  0  0.252529  0  2.449184  0  0  0.264374  0  2.391491  0  0  0.507526  0.248503  0  2.485079  0
Cu  Cu2  1  0.54194025  0.00702095  0.08349618  1  0  0.384174  0  1.947171  0  0  0.252513  0  2.449228  0  0  0.264396  0  2.39152  0  0  0.507541  0.248468  0  2.485178  0
Cu  Cu3  1  0.45806091  0.49297664  0.58349500  1  0  0.384113  0  1.947121  0  0  0.25246  0  2.449162  0  0  0.264295  0  2.391468  0  0  0.507517  0.248436  0  2.485072  0
H  H4  1  0.37201689  0.72817926  0.63440740  1  0  0.068709  0  0.952026  0  0  0.079254  0  1.011476  0  0  0.081162  0  1.009886  0  0  0.107384  0.077848  0  1.01265  0
H  H5  1  0.62798265  0.77182061  0.13441297  1  0  0.068656  0  0.952067  0  0  0.079214  0  1.011519  0  0  0.081121  0  1.009927  0  0  0.107337  0.077813  0  1.012689  0
H  H6  1  0.62798556  0.27182124  0.36559479  1  0  0.068677  0  0.952038  0  0  0.079251  0  1.011461  0  0  0.081159  0  1.009871  0  0  0.107393  0.077847  0  1.012633  0
H  H7  1  0.37202347  0.22818173  0.86558785  1  0  0.068649  0  0.952053  0  0  0.079232  0  1.01148  0  0  0.081139  0  1.009888  0  0  0.107356  0.07783  0  1.01265  0
H  H8  1  0.41784063  0.88346953  0.75861857  1  0  0.104712  0  0.975318  0  0  0.11534  0  1.037733  0  0  0.119353  0  1.035787  0  0  0.100216  0.111985  0  1.040007  0
H  H9  1  0.58215414  0.61652935  0.25862195  1  0  0.104763  0  0.975322  0  0  0.115371  0  1.037744  0  0  0.119393  0  1.035788  0  0  0.100236  0.112017  0  1.04002  0
H  H10  1  0.58216333  0.11653279  0.24138156  1  0  0.104782  0  0.975241  0  0  0.115391  0  1.03768  0  0  0.119384  0  1.03576  0  0  0.100236  0.112042  0  1.039958  0
H  H11  1  0.41784592  0.38347023  0.74137610  1  0  0.104749  0  0.975372  0  0  0.115346  0  1.037809  0  0  0.119373  0  1.03585  0  0  0.100224  0.11199  0  1.040088  0
H  H12  1  0.72757647  0.68258648  0.87702196  1  0  0.107395  0  0.950988  0  0  0.120337  0  1.005043  0  0  0.123623  0  1.004262  0  0  0.105453  0.11802  0  1.005762  0
H  H13  1  0.27241625  0.81741416  0.37701473  1  0  0.107324  0  0.951089  0  0  0.120292  0  1.005115  0  0  0.123576  0  1.004333  0  0  0.105445  0.117979  0  1.005829  0
H  H14  1  0.27241970  0.31741035  0.12298300  1  0  0.107399  0  0.951057  0  0  0.120363  0  1.005088  0  0  0.123645  0  1.004307  0  0  0.105472  0.118048  0  1.005802  0
H  H15  1  0.72758576  0.18258907  0.62298194  1  0  0.107407  0  0.951119  0  0  0.120377  0  1.005125  0  0  0.123662  0  1.004342  0  0  0.105484  0.118062  0  1.005842  0
H  H16  1  0.67255626  0.53968554  0.74833851  1  0  0.077615  0  0.975618  0  0  0.079182  0  1.052222  0  0  0.082113  0  1.049197  0  0  0.10801  0.07685  0  1.054845  0
H  H17  1  0.32744679  0.96031703  0.24833699  1  0  0.077596  0  0.975609  0  0  0.079167  0  1.052194  0  0  0.082101  0  1.049167  0  0  0.107997  0.076839  0  1.054817  0
H  H18  1  0.32744250  0.46031312  0.25166437  1  0  0.077674  0  0.975595  0  0  0.079232  0  1.052174  0  0  0.082165  0  1.049148  0  0  0.10801  0.076901  0  1.0548  0
H  H19  1  0.67256280  0.03968624  0.75166106  1  0  0.077666  0  0.97559  0  0  0.079252  0  1.052162  0  0  0.082189  0  1.049128  0  0  0.108  0.076914  0  1.054783  0
H  H20  1  0.80564971  0.85502374  0.93731762  1  0  0.039979  0  0.961661  0  0  0.056519  0  1.026609  0  0  0.056649  0  1.024445  0  0  0.118819  0.056448  0  1.027976  0
H  H21  1  0.19434613  0.64497236  0.43731838  1  0  0.040002  0  0.961618  0  0  0.056547  0  1.026561  0  0  0.056675  0  1.024404  0  0  0.118813  0.056477  0  1.027931  0
H  H22  1  0.19435209  0.14497404  0.06268250  1  0  0.040005  0  0.961687  0  0  0.056529  0  1.02665  0  0  0.056665  0  1.024468  0  0  0.118832  0.056456  0  1.028022  0
H  H23  1  0.80564852  0.35502719  0.56267967  1  0  0.040001  0  0.961668  0  0  0.05653  0  1.026616  0  0  0.056654  0  1.024467  0  0  0.118817  0.056456  0  1.027988  0
H  H24  1  0.12181820  0.84164187  0.16665343  1  0  0.061322  0  0.944218  0  0  0.072371  0  1.005069  0  0  0.074733  0  1.002912  0  0  0.106041  0.070637  0  1.006691  0
H  H25  1  0.87818749  0.65835439  0.66665203  1  0  0.061267  0  0.944272  0  0  0.072312  0  1.005137  0  0  0.074677  0  1.002978  0  0  0.105994  0.07058  0  1.00676  0
H  H26  1  0.87817884  0.15835405  0.83334807  1  0  0.06133  0  0.944264  0  0  0.072386  0  1.005097  0  0  0.074749  0  1.002938  0  0  0.106055  0.070656  0  1.006722  0
H  H27  1  0.12180996  0.34164790  0.33334188  1  0  0.061281  0  0.944299  0  0  0.072319  0  1.005167  0  0  0.074685  0  1.003004  0  0  0.105997  0.070584  0  1.006787  0
H  H28  1  0.91679688  0.80713928  0.05482644  1  0  0.106123  0  0.948432  0  0  0.119363  0  1.00213  0  0  0.122793  0  1.001231  0  0  0.10444  0.116877  0  1.003016  0
H  H29  1  0.08320251  0.69285607  0.55482452  1  0  0.106116  0  0.948377  0  0  0.11935  0  1.002087  0  0  0.122781  0  1.001186  0  0  0.10442  0.116865  0  1.002977  0
H  H30  1  0.08319863  0.19285936  0.94517576  1  0  0.106086  0  0.94847  0  0  0.119285  0  1.002209  0  0  0.122712  0  1.001314  0  0  0.104395  0.116797  0  1.003103  0
H  H31  1  0.91679193  0.30713802  0.44516731  1  0  0.106118  0  0.948524  0  0  0.119349  0  1.00223  0  0  0.122781  0  1.001327  0  0  0.104435  0.116864  0  1.003119  0
H  H32  1  0.80846188  0.14521212  0.14757984  1  0  0.106791  0  0.957421  0  0  0.117003  0  1.019532  0  0  0.122065  0  1.015896  0  0  0.100874  0.11347  0  1.022067  0
H  H33  1  0.19153769  0.35478361  0.64757913  1  0  0.10672  0  0.95749  0  0  0.116928  0  1.019608  0  0  0.121989  0  1.015973  0  0  0.100842  0.113395  0  1.02213  0
H  H34  1  0.19154229  0.85479112  0.85242167  1  0  0.106778  0  0.957455  0  0  0.116998  0  1.019557  0  0  0.122063  0  1.015916  0  0  0.100878  0.113462  0  1.022077  0
H  H35  1  0.80845653  0.64521412  0.35242376  1  0  0.106751  0  0.957496  0  0  0.116945  0  1.019631  0  0  0.122006  0  1.015995  0  0  0.100851  0.113413  0  1.022153  0
H  H36  1  0.01658599  0.16242099  0.25983258  1  0  0.062037  0  0.950145  0  0  0.070672  0  1.013477  0  0  0.072901  0  1.011648  0  0  0.103734  0.069018  0  1.014825  0
H  H37  1  0.98342422  0.33757568  0.75983372  1  0  0.061977  0  0.950214  0  0  0.070612  0  1.013539  0  0  0.072839  0  1.011714  0  0  0.103718  0.068962  0  1.014891  0
H  H38  1  0.98341971  0.83757954  0.74016754  1  0  0.062003  0  0.95017  0  0  0.070664  0  1.013478  0  0  0.072893  0  1.01165  0  0  0.103715  0.06901  0  1.014832  0
H  H39  1  0.01657517  0.66243026  0.24016986  1  0  0.062052  0  0.950183  0  0  0.070657  0  1.013549  0  0  0.072886  0  1.011721  0  0  0.103731  0.069008  0  1.014899  0
C  C40  1  0.45053623  0.72158834  0.68955847  1  0  0.130483  0  3.757319  0  0  0.105787  0  3.995963  0  0  0.113824  0  4.01557  0  0  0.029445  0.100626  0  3.982722  0
C  C41  1  0.54946526  0.77841152  0.18956074  1  0  0.130512  0  3.7575  0  0  0.105795  0  3.996139  0  0  0.113835  0  4.015747  0  0  0.02941  0.100634  0  3.982902  0
C  C42  1  0.54946470  0.27841034  0.31044373  1  0  0.130539  0  3.757203  0  0  0.105811  0  3.99584  0  0  0.113851  0  4.015442  0  0  0.029437  0.100656  0  3.982596  0
C  C43  1  0.45053978  0.22159082  0.81043870  1  0  0.130553  0  3.757352  0  0  0.105813  0  3.995992  0  0  0.113852  0  4.015599  0  0  0.029417  0.100648  0  3.982746  0
C  C44  1  0.47605810  0.80793641  0.75891392  1  0  -0.229656  0  3.736553  0  0  -0.242109  0  3.977908  0  0  -0.253613  0  3.998609  0  0  -0.102179  -0.234564  0  3.964687  0
C  C45  1  0.52393884  0.69206249  0.25891405  1  0  -0.229749  0  3.736464  0  0  -0.242171  0  3.977828  0  0  -0.253684  0  3.998523  0  0  -0.102147  -0.234623  0  3.964626  0
C  C46  1  0.52394521  0.19206320  0.24108759  1  0  -0.229672  0  3.736477  0  0  -0.242123  0  3.977863  0  0  -0.253611  0  3.99857  0  0  -0.102178  -0.234588  0  3.964659  0
C  C47  1  0.47606165  0.30793891  0.74108538  1  0  -0.229749  0  3.736506  0  0  -0.242177  0  3.977856  0  0  -0.253695  0  3.99855  0  0  -0.102134  -0.234629  0  3.964636  0
C  C48  1  0.57717705  0.79864965  0.83049647  1  0  0.288049  0  3.821578  0  0  0.281988  0  4.061726  0  0  0.296463  0  4.083201  0  0  0.103773  0.272322  0  4.047225  0
C  C49  1  0.42281494  0.70135101  0.33049523  1  0  0.28818  0  3.821463  0  0  0.282086  0  4.061613  0  0  0.296562  0  4.083085  0  0  0.10374  0.272405  0  4.047143  0
C  C50  1  0.42282367  0.20134812  0.16950711  1  0  0.288086  0  3.821606  0  0  0.282026  0  4.061731  0  0  0.296505  0  4.083204  0  0  0.103834  0.27236  0  4.04723  0
C  C51  1  0.57718490  0.29865220  0.66950213  1  0  0.288213  0  3.821336  0  0  0.282168  0  4.061436  0  0  0.296644  0  4.08291  0  0  0.103789  0.272495  0  4.04694  0
C  C52  1  0.64930516  0.69904658  0.82460220  1  0  -0.228357  0  3.720016  0  0  -0.242207  0  3.961168  0  0  -0.255101  0  3.985226  0  0  -0.101063  -0.234068  0  3.945288  0
C  C53  1  0.35068870  0.80094864  0.32460035  1  0  -0.228278  0  3.719993  0  0  -0.242154  0  3.961165  0  0  -0.255042  0  3.985212  0  0  -0.101022  -0.23401  0  3.945299  0
C  C54  1  0.35069275  0.30094844  0.17540138  1  0  -0.228364  0  3.720066  0  0  -0.242253  0  3.961202  0  0  -0.255139  0  3.985253  0  0  -0.101112  -0.234108  0  3.945315  0
C  C55  1  0.64931439  0.19905460  0.67539839  1  0  -0.22838  0  3.720128  0  0  -0.242276  0  3.961285  0  0  -0.255165  0  3.985336  0  0  -0.101113  -0.234136  0  3.945399  0
C  C56  1  0.61673716  0.61671125  0.75246704  1  0  0.122834  0  3.741421  0  0  0.097471  0  3.988894  0  0  0.105636  0  4.007503  0  0  0.031551  0.092086  0  3.97695  0
C  C57  1  0.38326206  0.88328858  0.25246668  1  0  0.122945  0  3.741252  0  0  0.097585  0  3.988731  0  0  0.105752  0  4.007337  0  0  0.031622  0.092199  0  3.976797  0
C  C58  1  0.38326031  0.38328650  0.24753654  1  0  0.122764  0  3.741416  0  0  0.097445  0  3.988823  0  0  0.105609  0  4.007432  0  0  0.031605  0.092058  0  3.976885  0
C  C59  1  0.61674211  0.11671466  0.74753206  1  0  0.122727  0  3.741344  0  0  0.097371  0  3.988761  0  0  0.105534  0  4.00737  0  0  0.0316  0.091995  0  3.976807  0
C  C60  1  0.71155547  0.89536595  0.95733838  1  0  0.307138  0  3.780029  0  0  0.244471  0  4.046173  0  0  0.270594  0  4.053674  0  0  0.153609  0.227281  0  4.040976  0
C  C61  1  0.28844047  0.60462924  0.45733844  1  0  0.306919  0  3.779743  0  0  0.244246  0  4.045915  0  0  0.270356  0  4.053406  0  0  0.153538  0.227046  0  4.040722  0
C  C62  1  0.28844502  0.10463545  0.04266313  1  0  0.307062  0  3.780037  0  0  0.244389  0  4.046175  0  0  0.27052  0  4.05368  0  0  0.153609  0.227199  0  4.040968  0
C  C63  1  0.71155679  0.39536760  0.54266031  1  0  0.306907  0  3.779911  0  0  0.244251  0  4.046085  0  0  0.270365  0  4.053577  0  0  0.15356  0.227061  0  4.040885  0
C  C64  1  0.04921108  0.90739287  0.16180631  1  0  0.122822  0  3.79056  0  0  0.09984  0  4.049754  0  0  0.106992  0  4.068061  0  0  0.031298  0.09528  0  4.03725  0
C  C65  1  0.95079129  0.59260337  0.66180617  1  0  0.12306  0  3.79032  0  0  0.100065  0  4.049511  0  0  0.107214  0  4.067817  0  0  0.031422  0.095506  0  4.037002  0
C  C66  1  0.95078790  0.09260671  0.83819450  1  0  0.122853  0  3.790573  0  0  0.099859  0  4.049769  0  0  0.107014  0  4.068073  0  0  0.031302  0.095295  0  4.037264  0
C  C67  1  0.04920465  0.40739709  0.33819050  1  0  0.123017  0  3.790237  0  0  0.100028  0  4.049415  0  0  0.107177  0  4.067719  0  0  0.031412  0.095475  0  4.036905  0
C  C68  1  0.93492650  0.88884401  0.09750389  1  0  -0.233643  0  3.735679  0  0  -0.247777  0  3.980901  0  0  -0.259333  0  4.004936  0  0  -0.103192  -0.240368  0  3.964844  0
C  C69  1  0.06507747  0.61114954  0.59750057  1  0  -0.233703  0  3.735706  0  0  -0.247857  0  3.980898  0  0  -0.259414  0  4.004941  0  0  -0.103179  -0.240443  0  3.964837  0
C  C70  1  0.06507225  0.11115920  0.90249831  1  0  -0.2336  0  3.735681  0  0  -0.247683  0  3.980893  0  0  -0.25924  0  4.00493  0  0  -0.103161  -0.240277  0  3.964846  0
C  C71  1  0.93491935  0.38884548  0.40249403  1  0  -0.233713  0  3.73583  0  0  -0.247876  0  3.981029  0  0  -0.25943  0  4.005071  0  0  -0.103178  -0.240466  0  3.964969  0
C  C72  1  0.84281002  0.97453936  0.09086323  1  0  0.270531  0  3.839353  0  0  0.265089  0  4.082481  0  0  0.276446  0  4.106436  0  0  0.096017  0.257786  0  4.066394  0
C  C73  1  0.15719145  0.52545781  0.59086064  1  0  0.2704  0  3.839649  0  0  0.265056  0  4.08267  0  0  0.276395  0  4.10662  0  0  0.096028  0.257746  0  4.066589  0
C  C74  1  0.15719220  0.02546477  0.90913828  1  0  0.270502  0  3.839356  0  0  0.265042  0  4.082499  0  0  0.276399  0  4.106451  0  0  0.096023  0.257731  0  4.066403  0
C  C75  1  0.84280581  0.47453903  0.40913672  1  0  0.270469  0  3.83953  0  0  0.265127  0  4.082542  0  0  0.276464  0  4.106501  0  0  0.09603  0.257818  0  4.066466  0
C  C76  1  0.87519973  0.07526215  0.15082769  1  0  -0.226209  0  3.730253  0  0  -0.240027  0  3.97258  0  0  -0.249807  0  3.992533  0  0  -0.103427  -0.233975  0  3.959466  0
C  C77  1  0.12480488  0.42473180  0.65082506  1  0  -0.226118  0  3.730141  0  0  -0.239954  0  3.972441  0  0  -0.249732  0  3.992393  0  0  -0.103441  -0.2339  0  3.959321  0
C  C78  1  0.12480380  0.92473836  0.84917313  1  0  -0.226104  0  3.730114  0  0  -0.239925  0  3.972454  0  0  -0.249704  0  3.992402  0  0  -0.103385  -0.233863  0  3.959315  0
C  C79  1  0.87519214  0.57526867  0.34917369  1  0  -0.226146  0  3.730065  0  0  -0.239965  0  3.972351  0  0  -0.249741  0  3.992305  0  0  -0.103431  -0.233908  0  3.959227  0
C  C80  1  0.99162624  0.08439708  0.21316653  1  0  0.114513  0  3.804091  0  0  0.093516  0  4.059699  0  0  0.100215  0  4.07838  0  0  0.028175  0.08939  0  4.046838  0
C  C81  1  0.00838195  0.41559869  0.71316521  1  0  0.114566  0  3.803913  0  0  0.093568  0  4.059522  0  0  0.100269  0  4.078198  0  0  0.028189  0.089436  0  4.04667  0
C  C82  1  0.00837817  0.91560253  0.78683359  1  0  0.114468  0  3.80399  0  0  0.093455  0  4.05962  0  0  0.100155  0  4.078301  0  0  0.028154  0.089326  0  4.046759  0
C  C83  1  0.99161551  0.58440360  0.28683492  1  0  0.114473  0  3.804014  0  0  0.093488  0  4.059616  0  0  0.100188  0  4.078292  0  0  0.028136  0.089357  0  4.046763  0
N  N84  1  0.51746431  0.62514250  0.68526896  1  0  -0.320122  0  3.31186  0  0  -0.247791  0  3.598522  0  0  -0.26265  0  3.607658  0  0  -0.365865  -0.238451  0  3.592424  0
N  N85  1  0.48253798  0.87485645  0.18527066  1  0  -0.320172  0  3.311913  0  0  -0.247842  0  3.598588  0  0  -0.262706  0  3.607729  0  0  -0.36583  -0.238488  0  3.592492  0
N  N86  1  0.48253511  0.37485435  0.31473392  1  0  -0.320183  0  3.311791  0  0  -0.247843  0  3.598427  0  0  -0.262704  0  3.607567  0  0  -0.365921  -0.238501  0  3.592325  0
N  N87  1  0.51746706  0.12514588  0.81473085  1  0  -0.320139  0  3.311697  0  0  -0.247814  0  3.598377  0  0  -0.262661  0  3.607491  0  0  -0.365888  -0.238473  0  3.592264  0
N  N88  1  0.59354087  0.88195983  0.90225147  1  0  -0.442826  0  3.387655  0  0  -0.36535  0  3.696277  0  0  -0.389328  0  3.699724  0  0  -0.407099  -0.349963  0  3.693156  0
N  N89  1  0.40645094  0.61803989  0.40224884  1  0  -0.442889  0  3.387748  0  0  -0.365335  0  3.696282  0  0  -0.389326  0  3.699757  0  0  -0.407115  -0.349951  0  3.693194  0
N  N90  1  0.40645745  0.11804156  0.09775073  1  0  -0.442869  0  3.38771  0  0  -0.365368  0  3.696314  0  0  -0.389372  0  3.699801  0  0  -0.407167  -0.349984  0  3.693237  0
N  N91  1  0.59354717  0.38196059  0.59774921  1  0  -0.442812  0  3.387709  0  0  -0.365325  0  3.696292  0  0  -0.389311  0  3.699759  0  0  -0.407132  -0.349941  0  3.693203  0
N  N92  1  0.71945721  0.96298964  0.03320533  1  0  -0.451375  0  3.395741  0  0  -0.374524  0  3.70644  0  0  -0.396736  0  3.709241  0  0  -0.410086  -0.360482  0  3.704123  0
N  N93  1  0.28053947  0.53700480  0.53320631  1  0  -0.451117  0  3.39539  0  0  -0.374355  0  3.706122  0  0  -0.396521  0  3.708885  0  0  -0.410032  -0.360305  0  3.703774  0
N  N94  1  0.28054935  0.03701453  0.96679411  1  0  -0.451349  0  3.395732  0  0  -0.374488  0  3.706429  0  0  -0.396691  0  3.70921  0  0  -0.410113  -0.360432  0  3.704033  0
N  N95  1  0.71945541  0.46299111  0.46679312  1  0  -0.4512  0  3.395579  0  0  -0.374411  0  3.706283  0  0  -0.396589  0  3.70906  0  0  -0.410067  -0.360368  0  3.703928  0
N  N96  1  0.07909001  0.00224635  0.22031112  1  0  -0.34307  0  3.079426  0  0  -0.310964  0  3.350689  0  0  -0.323391  0  3.365157  0  0  -0.34347  -0.302571  0  3.340607  0
N  N97  1  0.92091676  0.49775212  0.72031025  1  0  -0.343115  0  3.079247  0  0  -0.310994  0  3.350506  0  0  -0.323418  0  3.364968  0  0  -0.343479  -0.302603  0  3.340423  0
N  N98  1  0.92091157  0.99775505  0.77968970  1  0  -0.343055  0  3.079384  0  0  -0.310959  0  3.350681  0  0  -0.323387  0  3.365149  0  0  -0.34344  -0.302566  0  3.340593  0
N  N99  1  0.07907982  0.50225107  0.27968849  1  0  -0.343108  0  3.079262  0  0  -0.310978  0  3.3505  0  0  -0.323402  0  3.364963  0  0  -0.34346  -0.302593  0  3.340424  0
