# generated using pymatgen
data_CaH12C13N5ClO3
_symmetry_space_group_name_H-M   'P 1'
_cell_length_a   7.95976675
_cell_length_b   8.69596078
_cell_length_c   11.23588756
_cell_angle_alpha   95.73376195
_cell_angle_beta   94.15485826
_cell_angle_gamma   106.00059539
_symmetry_Int_Tables_number   1
_chemical_formula_structural   CaH12C13N5ClO3
_chemical_formula_sum   'Ca2 H24 C26 N10 Cl2 O6'
_cell_volume   739.77726856
_cell_formula_units_Z   2
loop_
 _symmetry_equiv_pos_site_id
 _symmetry_equiv_pos_as_xyz
  1  'x, y, z'
loop_
 _atom_site_type_symbol
 _atom_site_label
 _atom_site_symmetry_multiplicity
 _atom_site_fract_x
 _atom_site_fract_y
 _atom_site_fract_z
 _atom_site_occupancy
 _atom_site_hle17_bader_spin_density
 _atom_site_hle17_ddec_charge
 _atom_site_hle17_ddec_spin_density
 _atom_site_hle17_ddec_sum_bond_order
 _atom_site_hle17_magmom
 _atom_site_hse06_10hf_bader_spin_density
 _atom_site_hse06_10hf_ddec_charge
 _atom_site_hse06_10hf_ddec_spin_density
 _atom_site_hse06_10hf_ddec_sum_bond_order
 _atom_site_hse06_10hf_magmom
 _atom_site_hse06_bader_spin_density
 _atom_site_hse06_ddec_charge
 _atom_site_hse06_ddec_spin_density
 _atom_site_hse06_ddec_sum_bond_order
 _atom_site_hse06_magmom
 _atom_site_pbe_bader_spin_density
 _atom_site_pbe_cm5_charge
 _atom_site_pbe_ddec_charge
 _atom_site_pbe_ddec_spin_density
 _atom_site_pbe_ddec_sum_bond_order
 _atom_site_pbe_magmom
Ca  Ca0  1  0.47730026  0.85688344  0.24372162  1  0  1.422824  0  1.216105  0  0  1.270428  0  1.583174  0  0  1.311943  0  1.543606  0  0  0.778731  1.239381  0  1.611057  0
Ca  Ca1  1  0.52269793  0.14311986  0.75627818  1  0  1.422831  0  1.216097  0  0  1.270449  0  1.58315  0  0  1.311964  0  1.543581  0  0  0.77875  1.2394  0  1.611043  0
H  H2  1  0.58859705  0.18558445  0.34722082  1  0  0.393355  0  0.932767  0  0  0.352148  0  1.014898  0  0  0.364537  0  0.996996  0  0  0.282823  0.343439  0  1.027446  0
H  H3  1  0.41140296  0.81441649  0.65278067  1  0  0.393301  0  0.932833  0  0  0.352096  0  1.014962  0  0  0.364485  0  0.997061  0  0  0.282785  0.343385  0  1.027512  0
H  H4  1  0.66980361  0.12479554  0.46271680  1  0  0.403542  0  0.905605  0  0  0.373854  0  0.971034  0  0  0.384219  0  0.955741  0  0  0.272633  0.366446  0  0.981941  0
H  H5  1  0.33019513  0.87520537  0.53728463  1  0  0.403559  0  0.905548  0  0  0.373871  0  0.971003  0  0  0.384236  0  0.955709  0  0  0.272631  0.366465  0  0.981905  0
H  H6  1  0.83427720  0.87417435  0.18278176  1  0  0.4185  0  0.832721  0  0  0.39951  0  0.891618  0  0  0.408023  0  0.881559  0  0  0.322532  0.393377  0  0.898911  0
H  H7  1  0.16571893  0.12581334  0.81722209  1  0  0.418556  0  0.832665  0  0  0.399565  0  0.891561  0  0  0.408079  0  0.881501  0  0  0.32254  0.393429  0  0.898854  0
H  H8  1  0.72118266  0.82280789  0.05451884  1  0  0.403866  0  0.911224  0  0  0.35933  0  0.998447  0  0  0.372189  0  0.979748  0  0  0.287246  0.350246  0  1.011628  0
H  H9  1  0.27881896  0.17719428  0.94548283  1  0  0.403822  0  0.911277  0  0  0.359281  0  0.998508  0  0  0.37214  0  0.979809  0  0  0.28723  0.350195  0  1.011692  0
H  H10  1  0.26813998  0.90519521  0.98826768  1  0  0.090264  0  0.98074  0  0  0.093549  0  1.05001  0  0  0.097901  0  1.045265  0  0  0.121349  0.090347  0  1.053542  0
H  H11  1  0.73186221  0.09480455  0.01172761  1  0  0.090275  0  0.980639  0  0  0.093569  0  1.049918  0  0  0.097923  0  1.045171  0  0  0.121355  0.090372  0  1.05345  0
H  H12  1  0.07912295  0.76666695  0.80066059  1  0  0.101097  0  0.949811  0  0  0.112038  0  1.010119  0  0  0.11507  0  1.008788  0  0  0.109458  0.10981  0  1.011269  0
H  H13  1  0.92088613  0.23333053  0.19933666  1  0  0.101095  0  0.949794  0  0  0.112044  0  1.010091  0  0  0.115079  0  1.008758  0  0  0.109472  0.109819  0  1.011239  0
H  H14  1  0.99518189  0.45765939  0.76416194  1  0  0.098191  0  0.992392  0  0  0.104691  0  1.060611  0  0  0.108086  0  1.057945  0  0  0.093296  0.102172  0  1.062579  0
H  H15  1  0.00483007  0.54233933  0.23583378  1  0  0.098207  0  0.992457  0  0  0.104711  0  1.060699  0  0  0.108091  0  1.058046  0  0  0.093314  0.102195  0  1.062671  0
H  H16  1  0.11451316  0.31656900  0.91355643  1  0  0.091961  0  0.986177  0  0  0.103054  0  1.048547  0  0  0.106357  0  1.046525  0  0  0.11051  0.100645  0  1.05017  0
H  H17  1  0.88549662  0.68343089  0.08643926  1  0  0.091915  0  0.986156  0  0  0.103028  0  1.048515  0  0  0.106336  0  1.046488  0  0  0.110488  0.100621  0  1.050135  0
H  H18  1  0.71916008  0.38374007  0.46177158  1  0  0.103205  0  0.993789  0  0  0.111923  0  1.059152  0  0  0.115457  0  1.057034  0  0  0.106512  0.109344  0  1.060803  0
H  H19  1  0.28082565  0.61625944  0.53823351  1  0  0.103142  0  0.993893  0  0  0.111886  0  1.059221  0  0  0.11542  0  1.057102  0  0  0.106502  0.109312  0  1.060871  0
H  H20  1  0.92558740  0.56234423  0.62361563  1  0  0.091329  0  0.969003  0  0  0.102431  0  1.030309  0  0  0.104696  0  1.029298  0  0  0.103566  0.100785  0  1.031062  0
H  H21  1  0.07439798  0.43765407  0.37638936  1  0  0.091371  0  0.969019  0  0  0.102469  0  1.030331  0  0  0.104734  0  1.029319  0  0  0.103572  0.100827  0  1.031078  0
H  H22  1  0.96506130  0.86515150  0.63699123  1  0  0.099389  0  0.943741  0  0  0.110946  0  1.002972  0  0  0.114322  0  1.001019  0  0  0.109328  0.108467  0  1.004583  0
H  H23  1  0.03493709  0.13484821  0.36301186  1  0  0.099401  0  0.943706  0  0  0.110929  0  1.002972  0  0  0.114305  0  1.001017  0  0  0.109329  0.108454  0  1.004583  0
H  H24  1  0.79452977  0.96403563  0.48681695  1  0  0.071041  0  1.002572  0  0  0.078994  0  1.069534  0  0  0.081138  0  1.06793  0  0  0.109066  0.077393  0  1.070752  0
H  H25  1  0.20547094  0.03596773  0.51318565  1  0  0.071052  0  1.002575  0  0  0.07899  0  1.069551  0  0  0.081135  0  1.067946  0  0  0.109071  0.077392  0  1.070765  0
C  C26  1  0.23488597  0.77489336  0.96669888  1  0  0.135235  0  3.689272  0  0  0.106298  0  3.947163  0  0  0.112503  0  3.962263  0  0  0.05722  0.102259  0  3.936792  0
C  C27  1  0.76511889  0.22511124  0.03329691  1  0  0.135181  0  3.68908  0  0  0.106215  0  3.947011  0  0  0.112418  0  3.962114  0  0  0.057208  0.10217  0  3.936647  0
C  C28  1  0.12733576  0.69590952  0.86236503  1  0  -0.092554  0  3.691377  0  0  -0.109285  0  3.947797  0  0  -0.114212  0  3.967511  0  0  -0.075136  -0.106054  0  3.934462  0
C  C29  1  0.87266932  0.30409149  0.13763317  1  0  -0.092471  0  3.691325  0  0  -0.109203  0  3.947769  0  0  -0.114129  0  3.967481  0  0  -0.075111  -0.105973  0  3.934438  0
C  C30  1  0.08355959  0.52852551  0.84139203  1  0  -0.018083  0  3.715362  0  0  -0.036972  0  3.970273  0  0  -0.035606  0  3.989476  0  0  -0.07189  -0.037612  0  3.957194  0
C  C31  1  0.91645090  0.47147679  0.15860477  1  0  -0.018228  0  3.715427  0  0  -0.037127  0  3.97036  0  0  -0.035748  0  3.989573  0  0  -0.071958  -0.037773  0  3.957287  0
C  C32  1  0.15270131  0.44719810  0.92394749  1  0  -0.114033  0  3.709565  0  0  -0.139224  0  3.958687  0  0  -0.144179  0  3.980262  0  0  -0.076852  -0.135921  0  3.944189  0
C  C33  1  0.84730848  0.55280179  0.07604820  1  0  -0.113883  0  3.70938  0  0  -0.139112  0  3.958571  0  0  -0.144051  0  3.980104  0  0  -0.076809  -0.13583  0  3.944109  0
C  C34  1  0.26548021  0.53481765  0.02358777  1  0  0.133137  0  3.756755  0  0  0.137252  0  3.996408  0  0  0.139695  0  4.016315  0  0  0.121939  0.135501  0  3.982906  0
C  C35  1  0.73453063  0.46518585  0.97640913  1  0  0.13314  0  3.756539  0  0  0.137264  0  3.996219  0  0  0.139699  0  4.016125  0  0  0.121977  0.135522  0  3.982705  0
C  C36  1  0.34901934  0.45363237  0.11121232  1  0  0.413708  0  3.775529  0  0  0.383654  0  4.04207  0  0  0.405078  0  4.051569  0  0  0.261322  0.36946  0  4.035244  0
C  C37  1  0.65098285  0.54636739  0.88878563  1  0  0.413855  0  3.775375  0  0  0.383755  0  4.041964  0  0  0.405202  0  4.051438  0  0  0.261381  0.369562  0  4.035135  0
C  C38  1  0.40847087  0.22416792  0.17051060  1  0  0.724504  0  3.848054  0  0  0.670031  0  4.140198  0  0  0.703169  0  4.137643  0  0  0.330801  0.647796  0  4.141187  0
C  C39  1  0.59152752  0.77583178  0.82948804  1  0  0.72449  0  3.848055  0  0  0.670042  0  4.140197  0  0  0.703183  0  4.137641  0  0  0.330828  0.647817  0  4.141175  0
C  C40  1  0.52533776  0.47485849  0.28424596  1  0  0.414838  0  3.790425  0  0  0.383414  0  4.058016  0  0  0.40467  0  4.068361  0  0  0.262773  0.369442  0  4.050474  0
C  C41  1  0.47466168  0.52514484  0.71575569  1  0  0.414901  0  3.790288  0  0  0.383526  0  4.057849  0  0  0.404785  0  4.068196  0  0  0.262884  0.369546  0  4.050314  0
C  C42  1  0.64579505  0.57867445  0.38636803  1  0  0.137474  0  3.748824  0  0  0.139912  0  3.991147  0  0  0.142356  0  4.01085  0  0  0.123431  0.138159  0  3.977736  0
C  C43  1  0.35420045  0.42132401  0.61363215  1  0  0.13733  0  3.748902  0  0  0.139762  0  3.991217  0  0  0.142205  0  4.010923  0  0  0.123333  0.138012  0  3.977804  0
C  C44  1  0.73719014  0.51269076  0.46856491  1  0  -0.113056  0  3.683955  0  0  -0.136888  0  3.932231  0  0  -0.141747  0  3.952562  0  0  -0.075146  -0.133658  0  3.918624  0
C  C45  1  0.26280227  0.48731005  0.53143529  1  0  -0.11286  0  3.684035  0  0  -0.136699  0  3.932284  0  0  -0.141559  0  3.952616  0  0  -0.075064  -0.133474  0  3.918681  0
C  C46  1  0.85339207  0.61429467  0.56072535  1  0  0.002295  0  3.708904  0  0  -0.016778  0  3.961652  0  0  -0.014784  0  3.980623  0  0  -0.0664  -0.01789  0  3.948694  0
C  C47  1  0.14659640  0.38570128  0.43927784  1  0  0.002177  0  3.709013  0  0  -0.016914  0  3.961782  0  0  -0.014919  0  3.980749  0  0  -0.066432  -0.018032  0  3.948831  0
C  C48  1  0.87465784  0.77892790  0.56801142  1  0  -0.088024  0  3.699926  0  0  -0.106721  0  3.958248  0  0  -0.111362  0  3.977095  0  0  -0.074086  -0.103705  0  3.945573  0
C  C49  1  0.12533985  0.22106941  0.43199235  1  0  -0.08803  0  3.700222  0  0  -0.106694  0  3.95854  0  0  -0.111334  0  3.977389  0  0  -0.074115  -0.103678  0  3.945871  0
C  C50  1  0.77843977  0.83532386  0.48237696  1  0  0.141018  0  3.703885  0  0  0.111027  0  3.959373  0  0  0.117042  0  3.976486  0  0  0.055381  0.107061  0  3.947715  0
C  C51  1  0.22155447  0.16467458  0.51762405  1  0  0.140998  0  3.704184  0  0  0.111019  0  3.959655  0  0  0.117034  0  3.97677  0  0  0.055369  0.107055  0  3.947995  0
N  N52  1  0.30392306  0.69726920  0.04581039  1  0  -0.377919  0  3.145479  0  0  -0.324241  0  3.401804  0  0  -0.338972  0  3.420626  0  0  -0.345529  -0.313849  0  3.388712  0
N  N53  1  0.69608525  0.30273426  0.95418550  1  0  -0.377926  0  3.145269  0  0  -0.324242  0  3.401633  0  0  -0.338974  0  3.420457  0  0  -0.345566  -0.313848  0  3.388538  0
N  N54  1  0.44451887  0.54976412  0.20859099  1  0  -0.546374  0  3.10723  0  0  -0.502933  0  3.384509  0  0  -0.527464  0  3.397178  0  0  -0.361114  -0.486268  0  3.375436  0
N  N55  1  0.55547896  0.45023798  0.79140870  1  0  -0.546446  0  3.107267  0  0  -0.503014  0  3.384597  0  0  -0.527536  0  3.397211  0  0  -0.361153  -0.486344  0  3.375518  0
N  N56  1  0.32870538  0.29580994  0.08688789  1  0  -0.548512  0  2.983196  0  0  -0.491155  0  3.235607  0  0  -0.515699  0  3.242565  0  0  -0.314892  -0.47479  0  3.230782  0
N  N57  1  0.67129737  0.70418743  0.91310902  1  0  -0.548617  0  2.983133  0  0  -0.491239  0  3.235573  0  0  -0.515792  0  3.242523  0  0  -0.314937  -0.47488  0  3.230749  0
N  N58  1  0.50886719  0.31775643  0.27126277  1  0  -0.54635  0  3.029896  0  0  -0.484179  0  3.276752  0  0  -0.510093  0  3.287281  0  0  -0.312859  -0.466981  0  3.269471  0
N  N59  1  0.49113353  0.68224691  0.72873627  1  0  -0.546261  0  3.029798  0  0  -0.484197  0  3.276749  0  0  -0.510112  0  3.287275  0  0  -0.312914  -0.467008  0  3.269481  0
N  N60  1  0.66545633  0.73923546  0.39326262  1  0  -0.383139  0  3.139316  0  0  -0.327017  0  3.392262  0  0  -0.341431  0  3.410278  0  0  -0.336783  -0.316841  0  3.379758  0
N  N61  1  0.33454403  0.26076668  0.60673720  1  0  -0.383072  0  3.139273  0  0  -0.326941  0  3.392208  0  0  -0.341356  0  3.410226  0  0  -0.336739  -0.316766  0  3.379705  0
Cl  Cl62  1  0.18546343  0.79158082  0.35808723  1  0  -0.692966  0  0.727576  0  0  -0.637396  0  0.953115  0  0  -0.654562  0  0.936594  0  0  -0.336044  -0.624288  0  0.96444  0
Cl  Cl63  1  0.81453158  0.20841163  0.64190891  1  0  -0.692939  0  0.727554  0  0  -0.637391  0  0.953116  0  0  -0.65456  0  0.9366  0  0  -0.33604  -0.624286  0  0.964442  0
O  O64  1  0.39350821  0.07562240  0.15346349  1  0  -0.647224  0  1.922944  0  0  -0.58471  0  2.151716  0  0  -0.61128  0  2.143844  0  0  -0.328379  -0.56586  0  2.156368  0
O  O65  1  0.60648961  0.92437970  0.84653887  1  0  -0.647259  0  1.922949  0  0  -0.584737  0  2.15171  0  0  -0.611313  0  2.14384  0  0  -0.328413  -0.565892  0  2.156364  0
O  O66  1  0.62516367  0.09293885  0.37684227  1  0  -0.884814  0  1.882857  0  0  -0.824846  0  2.078749  0  0  -0.845246  0  2.04538  0  0  -0.63805  -0.809959  0  2.101944  0
O  O67  1  0.37483001  0.90706199  0.62316156  1  0  -0.884795  0  1.882826  0  0  -0.824823  0  2.078743  0  0  -0.845224  0  2.045376  0  0  -0.638003  -0.809938  0  2.101946  0
O  O68  1  0.73319343  0.88840682  0.13598904  1  0  -0.837756  0  1.841947  0  0  -0.782131  0  2.040668  0  0  -0.801823  0  2.011057  0  0  -0.606763  -0.767836  0  2.061317  0
O  O69  1  0.26680643  0.11158932  0.86401475  1  0  -0.837782  0  1.841937  0  0  -0.782145  0  2.040644  0  0  -0.801836  0  2.01103  0  0  -0.606758  -0.767847  0  2.06129  0
