# generated using pymatgen
data_MnH4CSeN
_symmetry_space_group_name_H-M   'P 1'
_cell_length_a   6.58002572
_cell_length_b   6.62349733
_cell_length_c   17.47625266
_cell_angle_alpha   90.00041909
_cell_angle_beta   90.00010965
_cell_angle_gamma   90.00010488
_symmetry_Int_Tables_number   1
_chemical_formula_structural   MnH4CSeN
_chemical_formula_sum   'Mn8 H32 C8 Se8 N8'
_cell_volume   761.66372298
_cell_formula_units_Z   8
loop_
 _symmetry_equiv_pos_site_id
 _symmetry_equiv_pos_as_xyz
  1  'x, y, z'
loop_
 _atom_site_type_symbol
 _atom_site_label
 _atom_site_symmetry_multiplicity
 _atom_site_fract_x
 _atom_site_fract_y
 _atom_site_fract_z
 _atom_site_occupancy
 _atom_site_hle17_ddec_charge
 _atom_site_hle17_ddec_spin_density
 _atom_site_hle17_ddec_sum_bond_order
 _atom_site_hle17_magmom
 _atom_site_hse06_10hf_ddec_charge
 _atom_site_hse06_10hf_ddec_spin_density
 _atom_site_hse06_10hf_ddec_sum_bond_order
 _atom_site_hse06_10hf_magmom
 _atom_site_hse06_ddec_charge
 _atom_site_hse06_ddec_spin_density
 _atom_site_hse06_ddec_sum_bond_order
 _atom_site_hse06_magmom
 _atom_site_pbe_cm5_charge
 _atom_site_pbe_ddec_charge
 _atom_site_pbe_ddec_spin_density
 _atom_site_pbe_ddec_sum_bond_order
 _atom_site_pbe_magmom
Mn  Mn0  1  0.81701870  0.40276620  0.70101007  1  0.786621  4.762112  2.209995  4.552  0.657117  4.713815  2.732331  4.425  0.723016  4.775112  2.680643  4.518  0.320355  0.603627  4.656156  2.769828  4.339
Mn  Mn1  1  0.81701467  0.90276436  0.79898827  1  0.786528  4.762109  2.210093  4.552  0.657048  4.713816  2.732389  4.425  0.722945  4.775112  2.680707  4.518  0.320324  0.603562  4.656162  2.769883  4.339
Mn  Mn2  1  0.68297956  0.40276714  0.20101206  1  0.78658  4.762125  2.209981  4.552  0.657064  4.713843  2.732328  4.425  0.722963  4.775136  2.680645  4.518  0.320343  0.60357  4.65618  2.76984  4.339
Mn  Mn3  1  0.31701579  0.09723082  0.70101104  1  0.786567  4.762101  2.210063  4.552  0.657093  4.713805  2.732356  4.425  0.722993  4.7751  2.680668  4.518  0.320345  0.603602  4.656145  2.769859  4.339
Mn  Mn4  1  0.18298325  0.59723294  0.29898893  1  0.786545  4.762106  2.210074  4.552  0.657052  4.71381  2.732396  4.425  0.72295  4.775105  2.680713  4.518  0.320335  0.603562  4.656155  2.769895  4.339
Mn  Mn5  1  0.18298121  0.09723327  0.20101017  1  0.78658  4.762116  2.210093  4.552  0.657078  4.713818  2.732423  4.425  0.722977  4.775113  2.680738  4.518  0.320343  0.603586  4.656164  2.769925  4.339
Mn  Mn6  1  0.31701936  0.59723049  0.79898866  1  0.786608  4.762096  2.21006  4.552  0.657091  4.713805  2.732412  4.425  0.72299  4.775101  2.680723  4.518  0.320343  0.603601  4.656149  2.769908  4.339
Mn  Mn7  1  0.68298008  0.90276530  0.29899140  1  0.786566  4.762143  2.210056  4.552  0.657147  4.713836  2.73225  4.425  0.723046  4.775131  2.680562  4.518  0.320344  0.603652  4.656178  2.769759  4.339
H  H8  1  0.93773431  0.70635120  0.60708997  1  0.275027  0.00142  0.937672  0.002  0.267019  0.003736  0.99561  0.003  0.274476  0.002525  0.99058  0.003  0.265967  0.261037  0.005014  1.000052  0.004
H  H9  1  0.93773086  0.20634026  0.89290972  1  0.275118  0.001421  0.937772  0.002  0.26711  0.003734  0.995698  0.003  0.274565  0.002523  0.990668  0.003  0.266058  0.261129  0.005012  1.000144  0.004
H  H10  1  0.56226298  0.70634741  0.10709293  1  0.275149  0.00142  0.937826  0.002  0.267147  0.003734  0.995718  0.003  0.274602  0.002523  0.990687  0.003  0.266065  0.261166  0.005011  1.000161  0.004
H  H11  1  0.43773635  0.79365511  0.60709146  1  0.275127  0.001421  0.937849  0.002  0.267123  0.003734  0.995746  0.003  0.274578  0.002523  0.990717  0.003  0.266077  0.261141  0.005011  1.000188  0.004
H  H12  1  0.06226005  0.29366152  0.39290847  1  0.275109  0.001421  0.937759  0.002  0.267094  0.003734  0.995684  0.003  0.274547  0.002523  0.990657  0.003  0.266077  0.261113  0.005011  1.000124  0.004
H  H13  1  0.06226654  0.79365736  0.10708985  1  0.275097  0.001421  0.937807  0.002  0.267086  0.003734  0.995724  0.003  0.27454  0.002524  0.990695  0.003  0.266064  0.261103  0.005012  1.000166  0.004
H  H14  1  0.43773594  0.29365776  0.89291179  1  0.275089  0.001421  0.937765  0.002  0.267086  0.003735  0.995671  0.003  0.274542  0.002524  0.990641  0.003  0.266031  0.261102  0.005012  1.00012  0.004
H  H15  1  0.56226409  0.20634251  0.39291040  1  0.27509  0.00142  0.937792  0.002  0.267076  0.003734  0.995719  0.003  0.274531  0.002524  0.99069  0.003  0.266051  0.261093  0.005012  1.000166  0.004
H  H16  1  0.11953673  0.53836235  0.61986710  1  0.26944  0.001653  0.962596  0.002  0.26126  0.003998  1.022096  0.003  0.268347  0.002784  1.018029  0.003  0.259661  0.255708  0.005189  1.025539  0.004
H  H17  1  0.11953935  0.03836173  0.88013161  1  0.269357  0.001653  0.96256  0.002  0.261215  0.004  1.022049  0.003  0.268306  0.002786  1.017973  0.003  0.25959  0.255664  0.005191  1.025494  0.004
H  H18  1  0.38045653  0.53836664  0.11986706  1  0.269415  0.001654  0.962448  0.002  0.261242  0.004  1.021967  0.003  0.268329  0.002785  1.017903  0.003  0.259619  0.255689  0.005191  1.02541  0.004
H  H19  1  0.61954280  0.96163614  0.61986858  1  0.269408  0.001656  0.962426  0.002  0.261247  0.004  1.021944  0.003  0.268335  0.002786  1.017876  0.003  0.259614  0.255695  0.005191  1.025388  0.004
H  H20  1  0.88045458  0.46164433  0.38013133  1  0.269346  0.001655  0.96252  0.002  0.261201  0.004  1.022014  0.003  0.268291  0.002786  1.017941  0.003  0.259595  0.255648  0.005191  1.025459  0.004
H  H21  1  0.88045348  0.96162986  0.11986854  1  0.269396  0.001655  0.962437  0.002  0.261228  0.004001  1.02196  0.003  0.268316  0.002786  1.017893  0.003  0.259591  0.255675  0.005192  1.025405  0.004
H  H22  1  0.61954542  0.46163702  0.88013194  1  0.269498  0.001654  0.962436  0.002  0.261292  0.003999  1.02198  0.003  0.268381  0.002785  1.01791  0.003  0.259631  0.25574  0.00519  1.025423  0.004
H  H23  1  0.38045155  0.03836451  0.38013157  1  0.269345  0.001656  0.962473  0.002  0.261186  0.004001  1.021991  0.003  0.268276  0.002786  1.017921  0.003  0.259585  0.255634  0.005192  1.025433  0.004
H  H24  1  0.76897181  0.49468704  0.51480892  1  0.055539  -0.000251  0.927077  0.0  0.071814  0.000661  0.993565  0.0  0.072958  0.00021  0.992401  0.0  0.097151  0.070657  0.001202  0.994977  0.001
H  H25  1  0.76895877  0.99468287  0.98518960  1  0.055491  -0.000251  0.926939  0.0  0.071782  0.000661  0.993466  0.0  0.072927  0.000211  0.992299  0.0  0.097133  0.070624  0.001202  0.994878  0.001
H  H26  1  0.73104475  0.49471221  0.01481040  1  0.055534  -0.00025  0.926945  0.0  0.071809  0.000661  0.993474  0.0  0.072956  0.00021  0.992306  0.0  0.097151  0.070651  0.001202  0.994885  0.001
H  H27  1  0.26895808  0.00529713  0.51480964  1  0.055529  -0.000253  0.926874  0.0  0.071794  0.000661  0.993411  0.0  0.07294  0.00021  0.992243  0.0  0.09714  0.070637  0.001202  0.994825  0.001
H  H28  1  0.23103774  0.50530606  0.48519123  1  0.055545  -0.000251  0.926838  0.0  0.071826  0.000661  0.993357  0.0  0.072972  0.00021  0.992189  0.0  0.097149  0.07067  0.001201  0.994762  0.001
H  H29  1  0.23104166  0.00530419  0.01480654  1  0.055533  -0.000254  0.926852  0.0  0.071798  0.000661  0.99339  0.0  0.072944  0.00021  0.992222  0.0  0.09715  0.070639  0.001202  0.994803  0.001
H  H30  1  0.26896480  0.50531259  0.98519261  1  0.055514  -0.000251  0.926914  0.0  0.071792  0.000661  0.993437  0.0  0.072935  0.00021  0.992274  0.0  0.097133  0.070636  0.001201  0.994843  0.001
H  H31  1  0.73104388  0.99469899  0.48519394  1  0.055545  -0.000253  0.926922  0.0  0.071804  0.000661  0.993455  0.0  0.07295  0.00021  0.992287  0.0  0.097147  0.070645  0.001202  0.994867  0.001
H  H32  1  0.94104693  0.29753627  0.53716596  1  0.055424  0.000247  0.945587  0.0  0.071675  0.001136  1.012154  0.001  0.072712  0.000545  1.011533  0.001  0.092562  0.070664  0.001778  1.013015  0.001
H  H33  1  0.94104300  0.79754374  0.96283226  1  0.055437  0.000246  0.945725  0.0  0.071713  0.001136  1.012275  0.001  0.072751  0.000546  1.011654  0.001  0.092598  0.070702  0.001778  1.013136  0.001
H  H34  1  0.55896925  0.29755361  0.03716550  1  0.05541  0.000249  0.945637  0.0  0.071715  0.001136  1.012169  0.001  0.072756  0.000545  1.011543  0.001  0.092574  0.070704  0.001778  1.01303  0.001
H  H35  1  0.44103512  0.20244863  0.53716721  1  0.055406  0.000246  0.945671  0.0  0.071706  0.001136  1.012198  0.001  0.072747  0.000546  1.01157  0.001  0.092571  0.070695  0.001778  1.01306  0.001
H  H36  1  0.05895806  0.70245683  0.46283418  1  0.055416  0.000247  0.945688  0.0  0.071696  0.001136  1.01223  0.001  0.072734  0.000546  1.011609  0.001  0.092585  0.070686  0.001778  1.013089  0.001
H  H37  1  0.05894983  0.20245087  0.03716503  1  0.055413  0.000244  0.945653  0.0  0.071704  0.001136  1.012178  0.001  0.072744  0.000546  1.011553  0.001  0.092581  0.070694  0.001778  1.013038  0.001
H  H38  1  0.44104790  0.70246062  0.96283236  1  0.055409  0.000245  0.945704  0.0  0.071687  0.001136  1.012247  0.001  0.072727  0.000546  1.011623  0.001  0.092589  0.070677  0.001778  1.013108  0.001
H  H39  1  0.55895772  0.79755051  0.46283408  1  0.055409  0.000244  0.945727  0.0  0.071719  0.001136  1.012231  0.001  0.07276  0.000546  1.011604  0.001  0.092574  0.070708  0.001778  1.013091  0.001
C  C40  1  0.92749092  0.46255325  0.53101669  1  0.049439  0.004442  3.651664  0.004  -0.005193  0.008401  3.913233  0.006  -0.001123  0.006356  3.925959  0.005  -0.077202  -0.008019  0.010379  3.904286  0.008
C  C41  1  0.92749459  0.96254121  0.96898253  1  0.049482  0.004441  3.651557  0.004  -0.005229  0.008401  3.913225  0.006  -0.001161  0.006355  3.925953  0.005  -0.077236  -0.00805  0.010379  3.904279  0.008
C  C42  1  0.57251039  0.46255551  0.03101452  1  0.049531  0.004435  3.651496  0.004  -0.005179  0.0084  3.913129  0.006  -0.001111  0.006353  3.925857  0.005  -0.077203  -0.008004  0.010377  3.904179  0.008
C  C43  1  0.42749397  0.03744509  0.53101578  1  0.049557  0.004448  3.651469  0.004  -0.005124  0.0084  3.913051  0.006  -0.001055  0.006356  3.925782  0.005  -0.077165  -0.007949  0.010379  3.904103  0.008
C  C44  1  0.07250343  0.53745192  0.46898232  1  0.04946  0.00444  3.651466  0.004  -0.00522  0.0084  3.913053  0.006  -0.001152  0.006356  3.92578  0.005  -0.07721  -0.00804  0.010378  3.904103  0.008
C  C45  1  0.07250584  0.03744886  0.03101647  1  0.049552  0.004451  3.651363  0.004  -0.005114  0.0084  3.912967  0.006  -0.001045  0.006354  3.925694  0.005  -0.077194  -0.007938  0.010378  3.904018  0.008
C  C46  1  0.42749764  0.53745419  0.96898219  1  0.049555  0.004445  3.651583  0.004  -0.005127  0.0084  3.913192  0.006  -0.001058  0.006355  3.925919  0.005  -0.077206  -0.007951  0.010378  3.904244  0.008
C  C47  1  0.57250798  0.96254952  0.46898380  1  0.049488  0.004456  3.651511  0.004  -0.005189  0.008401  3.913085  0.006  -0.001121  0.006355  3.925815  0.005  -0.077208  -0.008012  0.010379  3.904134  0.008
Se  Se48  1  0.94286739  0.04552425  0.67415438  1  -0.889584  0.191622  2.102885  0.065  -0.784282  0.224649  2.609107  0.065  -0.844704  0.176949  2.573888  0.039  -0.325538  -0.734274  0.2694  2.633001  0.09
Se  Se49  1  0.94286945  0.54552144  0.82584603  1  -0.889634  0.191623  2.102877  0.065  -0.784313  0.224652  2.609105  0.065  -0.844734  0.176952  2.573887  0.039  -0.325543  -0.734307  0.269403  2.632997  0.09
Se  Se50  1  0.55713318  0.04553253  0.17415448  1  -0.889579  0.191618  2.10284  0.065  -0.784289  0.224647  2.609074  0.065  -0.844712  0.17695  2.573858  0.039  -0.325529  -0.734273  0.2694  2.632971  0.09
Se  Se51  1  0.44286671  0.45447546  0.67415401  1  -0.889628  0.191627  2.102817  0.065  -0.784334  0.224658  2.609065  0.066  -0.844755  0.176957  2.573846  0.039  -0.325564  -0.734327  0.26941  2.632959  0.09
Se  Se52  1  0.05713001  0.95447941  0.32584577  1  -0.889609  0.191623  2.102882  0.065  -0.78433  0.224654  2.609103  0.065  -0.84475  0.176953  2.573885  0.039  -0.325542  -0.734316  0.269406  2.632998  0.09
Se  Se53  1  0.05713250  0.45447770  0.17415411  1  -0.889617  0.191622  2.102873  0.065  -0.784305  0.224652  2.609104  0.065  -0.844725  0.176954  2.573888  0.039  -0.325546  -0.734293  0.269405  2.633  0.09
Se  Se54  1  0.44286725  0.95447717  0.82584624  1  -0.889587  0.191621  2.102832  0.065  -0.784296  0.224649  2.60907  0.065  -0.844718  0.176949  2.573852  0.039  -0.325567  -0.73429  0.269402  2.632963  0.09
Se  Se55  1  0.55712765  0.54552217  0.32585357  1  -0.889577  0.191601  2.102783  0.065  -0.784304  0.224634  2.609018  0.065  -0.844724  0.176936  2.573803  0.039  -0.325545  -0.734292  0.269388  2.632913  0.09
N  N56  1  0.96702279  0.55333840  0.60643575  1  -0.601851  0.038757  3.156743  0.023  -0.539352  0.043598  3.39441  0.022  -0.565627  0.035513  3.395152  0.016  -0.632937  -0.519344  0.050873  3.393717  0.028
N  N57  1  0.96700566  0.05334861  0.89356471  1  -0.601881  0.038755  3.15673  0.023  -0.539417  0.043599  3.394391  0.022  -0.565691  0.035514  3.395137  0.016  -0.632946  -0.51942  0.050874  3.393704  0.028
N  N58  1  0.53299242  0.55335721  0.10643525  1  -0.602011  0.038753  3.156641  0.023  -0.539516  0.043599  3.394321  0.022  -0.565791  0.035515  3.395065  0.016  -0.633002  -0.519504  0.050875  3.393625  0.028
N  N59  1  0.46700994  0.94664229  0.60643537  1  -0.601978  0.038743  3.156649  0.023  -0.539514  0.043599  3.394337  0.022  -0.56579  0.035513  3.395081  0.016  -0.633016  -0.519508  0.050875  3.393644  0.028
N  N60  1  0.03298676  0.44665017  0.39356382  1  -0.60183  0.038748  3.156652  0.023  -0.539356  0.043598  3.394337  0.022  -0.565629  0.035512  3.39508  0.016  -0.632996  -0.519353  0.050873  3.393645  0.028
N  N61  1  0.03299173  0.94664448  0.10643601  1  -0.601933  0.038752  3.156573  0.023  -0.539434  0.043598  3.394231  0.022  -0.565709  0.035514  3.394976  0.016  -0.632964  -0.519424  0.050873  3.393534  0.028
N  N62  1  0.46701561  0.44665250  0.89356261  1  -0.602051  0.038754  3.156711  0.023  -0.539512  0.043601  3.394364  0.022  -0.565788  0.035517  3.395104  0.016  -0.632976  -0.519504  0.050876  3.39367  0.028
N  N63  1  0.53298593  0.05335232  0.39356364  1  -0.601872  0.038749  3.156569  0.023  -0.539406  0.0436  3.394219  0.022  -0.565683  0.035513  3.394965  0.016  -0.63296  -0.519394  0.050875  3.393521  0.028
