# generated using pymatgen
data_ZnH11C10SN3Cl2
_symmetry_space_group_name_H-M   'P 1'
_cell_length_a   9.13484769
_cell_length_b   9.89469086
_cell_length_c   17.63255947
_cell_angle_alpha   105.83648046
_cell_angle_beta   89.98939001
_cell_angle_gamma   117.52823770
_symmetry_Int_Tables_number   1
_chemical_formula_structural   ZnH11C10SN3Cl2
_chemical_formula_sum   'Zn4 H44 C40 S4 N12 Cl8'
_cell_volume   1344.76643515
_cell_formula_units_Z   4
loop_
 _symmetry_equiv_pos_site_id
 _symmetry_equiv_pos_as_xyz
  1  'x, y, z'
loop_
 _atom_site_type_symbol
 _atom_site_label
 _atom_site_symmetry_multiplicity
 _atom_site_fract_x
 _atom_site_fract_y
 _atom_site_fract_z
 _atom_site_occupancy
 _atom_site_hle17_bader_spin_density
 _atom_site_hle17_ddec_charge
 _atom_site_hle17_ddec_spin_density
 _atom_site_hle17_ddec_sum_bond_order
 _atom_site_hle17_magmom
 _atom_site_hse06_10hf_bader_spin_density
 _atom_site_hse06_10hf_ddec_charge
 _atom_site_hse06_10hf_ddec_spin_density
 _atom_site_hse06_10hf_ddec_sum_bond_order
 _atom_site_hse06_10hf_magmom
 _atom_site_hse06_bader_spin_density
 _atom_site_hse06_ddec_charge
 _atom_site_hse06_ddec_spin_density
 _atom_site_hse06_ddec_sum_bond_order
 _atom_site_hse06_magmom
 _atom_site_pbe_bader_spin_density
 _atom_site_pbe_cm5_charge
 _atom_site_pbe_ddec_charge
 _atom_site_pbe_ddec_spin_density
 _atom_site_pbe_ddec_sum_bond_order
 _atom_site_pbe_magmom
Zn  Zn0  1  0.57401874  0.57895398  0.37595069  1  0  0.836711  0  2.139711  0  0  0.658891  0  2.639941  0  0  0.69834  0  2.593291  0  0  0.562929  0.631641  0  2.671709  0
Zn  Zn1  1  0.99503422  0.42106196  0.12406671  1  0  0.836951  0  2.139037  0  0  0.65851  0  2.639787  0  0  0.69795  0  2.593155  0  0  0.562841  0.631315  0  2.671638  0
Zn  Zn2  1  0.42597832  0.42104496  0.62404815  1  0  0.836709  0  2.139757  0  0  0.658878  0  2.639975  0  0  0.698327  0  2.593327  0  0  0.562922  0.631626  0  2.671741  0
Zn  Zn3  1  0.00496562  0.57893816  0.87593345  1  0  0.836947  0  2.139062  0  0  0.658506  0  2.639802  0  0  0.697943  0  2.593171  0  0  0.562849  0.631301  0  2.671653  0
H  H4  1  0.20437739  0.52878027  0.36856069  1  0  0.114332  0  0.965119  0  0  0.13358  0  1.029863  0  0  0.134552  0  1.030618  0  0  0.088507  0.132817  0  1.029417  0
H  H5  1  0.67553649  0.47092274  0.13145267  1  0  0.115135  0  0.965179  0  0  0.134213  0  1.030104  0  0  0.135207  0  1.030826  0  0  0.088586  0.133449  0  1.029592  0
H  H6  1  0.79561904  0.47121742  0.63144136  1  0  0.114393  0  0.965045  0  0  0.133632  0  1.029797  0  0  0.134604  0  1.030552  0  0  0.088529  0.132868  0  1.029352  0
H  H7  1  0.32446287  0.52907861  0.86854541  1  0  0.115141  0  0.96511  0  0  0.134188  0  1.03007  0  0  0.135185  0  1.030788  0  0  0.088563  0.133424  0  1.02956  0
H  H8  1  0.10162615  0.62608327  0.42877134  1  0  0.124831  0  0.976046  0  0  0.140467  0  1.044291  0  0  0.142291  0  1.044172  0  0  0.082696  0.139108  0  1.044429  0
H  H9  1  0.47536335  0.37349986  0.07123752  1  0  0.12527  0  0.976709  0  0  0.141066  0  1.044648  0  0  0.142862  0  1.044564  0  0  0.082985  0.139755  0  1.044704  0
H  H10  1  0.89837137  0.37391442  0.57123071  1  0  0.124905  0  0.97593  0  0  0.140552  0  1.04417  0  0  0.14238  0  1.044048  0  0  0.082739  0.139191  0  1.044309  0
H  H11  1  0.52463650  0.62650030  0.92876038  1  0  0.125261  0  0.9767  0  0  0.141016  0  1.044682  0  0  0.142813  0  1.044598  0  0  0.082952  0.139707  0  1.044738  0
H  H12  1  0.13567283  0.48184998  0.45630853  1  0  0.136814  0  0.939454  0  0  0.155006  0  1.002303  0  0  0.156863  0  1.002153  0  0  0.091647  0.153567  0  1.002565  0
H  H13  1  0.65375930  0.51775961  0.04369390  1  0  0.137066  0  0.940434  0  0  0.155342  0  1.003015  0  0  0.157178  0  1.002906  0  0  0.091957  0.154128  0  1.002889  0
H  H14  1  0.86432191  0.51814652  0.54369276  1  0  0.136849  0  0.939378  0  0  0.155057  0  1.002213  0  0  0.156914  0  1.002064  0  0  0.091661  0.153618  0  1.002475  0
H  H15  1  0.34624017  0.48224414  0.95630456  1  0  0.137069  0  0.940412  0  0  0.155339  0  1.002994  0  0  0.157167  0  1.002892  0  0  0.091942  0.154134  0  1.002859  0
H  H16  1  0.69710225  0.01795559  0.68749877  1  0  0.132067  0  0.94251  0  0  0.150362  0  1.004817  0  0  0.152448  0  1.003966  0  0  0.092643  0.148776  0  1.005681  0
H  H17  1  0.67940645  0.98251752  0.81233463  1  0  0.132379  0  0.942785  0  0  0.150481  0  1.005266  0  0  0.152553  0  1.004431  0  0  0.0927  0.148833  0  1.006221  0
H  H18  1  0.30289967  0.98204215  0.31250045  1  0  0.132053  0  0.942523  0  0  0.150336  0  1.004855  0  0  0.152422  0  1.004005  0  0  0.092624  0.14875  0  1.005719  0
H  H19  1  0.32059377  0.01747899  0.18766553  1  0  0.132369  0  0.9428  0  0  0.150515  0  1.005225  0  0  0.152589  0  1.004389  0  0  0.092722  0.148867  0  1.006181  0
H  H20  1  0.60251483  0.12552331  0.66414365  1  0  0.120157  0  0.967687  0  0  0.136511  0  1.035707  0  0  0.137666  0  1.036881  0  0  0.09116  0.1357  0  1.034826  0
H  H21  1  0.47713042  0.87463857  0.83561872  1  0  0.120591  0  0.96764  0  0  0.137133  0  1.035277  0  0  0.138312  0  1.03643  0  0  0.091208  0.136312  0  1.03426  0
H  H22  1  0.39748870  0.87447325  0.33585425  1  0  0.120162  0  0.967623  0  0  0.136491  0  1.035667  0  0  0.137647  0  1.036841  0  0  0.091138  0.13568  0  1.034787  0
H  H23  1  0.52287159  0.12536152  0.16438370  1  0  0.120586  0  0.967628  0  0  0.137143  0  1.035236  0  0  0.13832  0  1.036391  0  0  0.091214  0.136321  0  1.034219  0
H  H24  1  0.78681352  0.13837859  0.62440944  1  0  0.132163  0  0.935553  0  0  0.152359  0  0.993988  0  0  0.154361  0  0.993207  0  0  0.096549  0.150887  0  0.994608  0
H  H25  1  0.64860784  0.86194310  0.87534872  1  0  0.132912  0  0.935348  0  0  0.153296  0  0.99347  0  0  0.155283  0  0.992703  0  0  0.097045  0.151826  0  0.99406  0
H  H26  1  0.21318672  0.86161796  0.37558846  1  0  0.132112  0  0.935567  0  0  0.152318  0  0.993988  0  0  0.154321  0  0.993206  0  0  0.096528  0.150846  0  0.994609  0
H  H27  1  0.35139428  0.13805939  0.12465351  1  0  0.132909  0  0.935316  0  0  0.153274  0  0.993469  0  0  0.155262  0  0.992702  0  0  0.097036  0.151806  0  0.994058  0
H  H28  1  0.98721678  0.87719860  0.68236879  1  0  0.117346  0  0.935222  0  0  0.129164  0  0.989405  0  0  0.132609  0  0.988118  0  0  0.106924  0.126528  0  0.990745  0
H  H29  1  0.10971464  0.12263441  0.81762487  1  0  0.116481  0  0.936304  0  0  0.128603  0  0.990213  0  0  0.132027  0  0.988997  0  0  0.106502  0.12582  0  0.991792  0
H  H30  1  0.01278703  0.12280509  0.31763363  1  0  0.117362  0  0.935178  0  0  0.129167  0  0.989371  0  0  0.132611  0  0.988085  0  0  0.106952  0.126532  0  0.990709  0
H  H31  1  0.89028589  0.87736930  0.18237585  1  0  0.11644  0  0.936308  0  0  0.128563  0  0.990223  0  0  0.131987  0  0.989007  0  0  0.106485  0.125781  0  0.991804  0
H  H32  1  0.90546873  0.76010682  0.79361664  1  0  0.07857  0  0.959957  0  0  0.083925  0  1.029987  0  0  0.086679  0  1.027154  0  0  0.104706  0.081807  0  1.032253  0
H  H33  1  0.14504353  0.23960324  0.70638605  1  0  0.078114  0  0.959592  0  0  0.083379  0  1.029872  0  0  0.086167  0  1.027011  0  0  0.104697  0.081298  0  1.031932  0
H  H34  1  0.09453389  0.23989448  0.20638483  1  0  0.078538  0  0.959968  0  0  0.083885  0  1.030009  0  0  0.086639  0  1.027177  0  0  0.104702  0.081769  0  1.032272  0
H  H35  1  0.85495701  0.76040048  0.29361410  1  0  0.078081  0  0.959562  0  0  0.08336  0  1.029838  0  0  0.08613  0  1.026993  0  0  0.104692  0.081276  0  1.031896  0
H  H36  1  0.34252959  0.69717514  0.64983646  1  0  0.105876  0  1.010333  0  0  0.111255  0  1.079142  0  0  0.114182  0  1.079296  0  0  0.092555  0.109143  0  1.079116  0
H  H37  1  0.64515968  0.30222443  0.84982058  1  0  0.105721  0  1.009996  0  0  0.110609  0  1.079318  0  0  0.113589  0  1.079417  0  0  0.092324  0.10846  0  1.079373  0
H  H38  1  0.65747013  0.30282257  0.35016389  1  0  0.105853  0  1.01034  0  0  0.111237  0  1.079145  0  0  0.114162  0  1.079302  0  0  0.092561  0.109127  0  1.079118  0
H  H39  1  0.35483669  0.69777094  0.15017600  1  0  0.105749  0  1.009931  0  0  0.110614  0  1.079276  0  0  0.113594  0  1.079372  0  0  0.09232  0.108464  0  1.079333  0
H  H40  1  0.23266286  0.57358297  0.75580786  1  0  0.073951  0  0.940799  0  0  0.082743  0  1.00776  0  0  0.084957  0  1.005235  0  0  0.112616  0.081362  0  1.009131  0
H  H41  1  0.65894345  0.42584875  0.74390071  1  0  0.073991  0  0.940783  0  0  0.083202  0  1.007127  0  0  0.085397  0  1.004643  0  0  0.112593  0.08149  0  1.009124  0
H  H42  1  0.76733578  0.42641475  0.24419192  1  0  0.073882  0  0.940779  0  0  0.0827  0  1.007721  0  0  0.084914  0  1.005194  0  0  0.112595  0.081319  0  1.009092  0
H  H43  1  0.34105501  0.57415736  0.25610039  1  0  0.074007  0  0.940736  0  0  0.083225  0  1.007074  0  0  0.08542  0  1.00459  0  0  0.112586  0.081512  0  1.00907  0
H  H44  1  0.73696005  0.84627800  0.51787511  1  0  0.295836  0  0.888919  0  0  0.277764  0  0.951087  0  0  0.285362  0  0.944726  0  0  0.3166  0.272284  0  0.955856  0
H  H45  1  0.89071019  0.15389589  0.98206467  1  0  0.295739  0  0.887176  0  0  0.277778  0  0.949408  0  0  0.285329  0  0.943101  0  0  0.316882  0.272322  0  0.954129  0
H  H46  1  0.26304008  0.15371615  0.48212298  1  0  0.295844  0  0.88894  0  0  0.277777  0  0.951098  0  0  0.285371  0  0.94474  0  0  0.316612  0.272289  0  0.955892  0
H  H47  1  0.10929074  0.84610422  0.01793605  1  0  0.295748  0  0.887184  0  0  0.277781  0  0.949413  0  0  0.28533  0  0.943108  0  0  0.316885  0.272325  0  0.954135  0
C  C48  1  0.18997397  0.58003734  0.42973488  1  0  -0.36828  0  3.708444  0  0  -0.444432  0  3.941631  0  0  -0.448892  0  3.950083  0  0  -0.243899  -0.441022  0  3.935737  0
C  C49  1  0.60982410  0.41959004  0.07027948  1  0  -0.369931  0  3.710535  0  0  -0.446147  0  3.944655  0  0  -0.450597  0  3.953232  0  0  -0.244252  -0.442918  0  3.938577  0
C  C50  1  0.81002186  0.41995915  0.57026698  1  0  -0.368435  0  3.708229  0  0  -0.444647  0  3.941462  0  0  -0.449113  0  3.949911  0  0  -0.243982  -0.441238  0  3.93557  0
C  C51  1  0.39017536  0.58041371  0.92971897  1  0  -0.369878  0  3.710451  0  0  -0.446008  0  3.944554  0  0  -0.450453  0  3.953139  0  0  -0.244148  -0.44279  0  3.938466  0
C  C52  1  0.35316242  0.70697004  0.47741241  1  0  0.270159  0  3.727153  0  0  0.260543  0  3.991284  0  0  0.272111  0  4.009238  0  0  0.11381  0.252952  0  3.978795  0
C  C53  1  0.64600060  0.29273136  0.02256615  1  0  0.271436  0  3.725687  0  0  0.260173  0  3.991233  0  0  0.271718  0  4.009205  0  0  0.113365  0.252622  0  3.978863  0
C  C54  1  0.64683719  0.29302527  0.52258869  1  0  0.270119  0  3.727194  0  0  0.260562  0  3.991237  0  0  0.272127  0  4.009202  0  0  0.113845  0.252971  0  3.978749  0
C  C55  1  0.35399996  0.70727239  0.97743231  1  0  0.271391  0  3.725715  0  0  0.26012  0  3.991267  0  0  0.271664  0  4.009239  0  0  0.11333  0.252568  0  3.978897  0
C  C56  1  0.38783530  0.83937386  0.54558691  1  0  -0.225979  0  3.776513  0  0  -0.207437  0  4.045468  0  0  -0.217987  0  4.068647  0  0  -0.038577  -0.200764  0  4.029898  0
C  C57  1  0.54833582  0.16046768  0.95430904  1  0  -0.22758  0  3.774972  0  0  -0.207901  0  4.043848  0  0  -0.218439  0  4.06696  0  0  -0.038443  -0.201227  0  4.028265  0
C  C58  1  0.61216274  0.16062266  0.45441325  1  0  -0.225994  0  3.776812  0  0  -0.207459  0  4.045723  0  0  -0.217996  0  4.068873  0  0  -0.038613  -0.200791  0  4.030149  0
C  C59  1  0.45166633  0.83953487  0.04568923  1  0  -0.227608  0  3.774965  0  0  -0.207949  0  4.043865  0  0  -0.218486  0  4.066974  0  0  -0.038458  -0.201274  0  4.028281  0
C  C60  1  0.56105062  0.91823012  0.57059618  1  0  0.273075  0  3.726731  0  0  0.251969  0  4.001245  0  0  0.264695  0  4.017332  0  0  0.116433  0.243708  0  3.990171  0
C  C61  1  0.64285875  0.08186043  0.92925126  1  0  0.274776  0  3.723834  0  0  0.253074  0  3.999432  0  0  0.265864  0  4.015371  0  0  0.116545  0.244745  0  3.988259  0
C  C62  1  0.43895309  0.08177119  0.42940473  1  0  0.273037  0  3.726894  0  0  0.251925  0  4.001381  0  0  0.26465  0  4.017474  0  0  0.116463  0.24368  0  3.990287  0
C  C63  1  0.35714447  0.91814208  0.07074927  1  0  0.274749  0  3.723858  0  0  0.253054  0  3.999443  0  0  0.265842  0  4.015383  0  0  0.116532  0.244723  0  3.988272  0
C  C64  1  0.66805496  0.05806803  0.63997339  1  0  -0.363155  0  3.714136  0  0  -0.439011  0  3.95068  0  0  -0.442791  0  3.957286  0  0  -0.236479  -0.436161  0  3.945981  0
C  C65  1  0.61018046  0.94221222  0.85981857  1  0  -0.365331  0  3.714479  0  0  -0.441013  0  3.951492  0  0  -0.444828  0  3.957977  0  0  -0.237246  -0.438096  0  3.946827  0
C  C66  1  0.33194696  0.94192970  0.36002639  1  0  -0.363079  0  3.714005  0  0  -0.438917  0  3.950561  0  0  -0.4427  0  3.957172  0  0  -0.236429  -0.436071  0  3.945854  0
C  C67  1  0.38982156  0.05778790  0.14018215  1  0  -0.36532  0  3.714424  0  0  -0.441023  0  3.951426  0  0  -0.444841  0  3.957911  0  0  -0.237269  -0.438107  0  3.946761  0
C  C68  1  0.17768312  0.80285872  0.65853928  1  0  0.095425  0  3.757097  0  0  0.112252  0  4.008479  0  0  0.119855  0  4.02805  0  0  0.013407  0.107236  0  3.994996  0
C  C69  1  0.37455845  0.19674919  0.84131493  1  0  0.095831  0  3.756987  0  0  0.112532  0  4.008505  0  0  0.120154  0  4.028156  0  0  0.013683  0.107404  0  3.995179  0
C  C70  1  0.82231612  0.19714021  0.34146013  1  0  0.095382  0  3.757145  0  0  0.112213  0  4.008518  0  0  0.119814  0  4.028092  0  0  0.013397  0.107197  0  3.995036  0
C  C71  1  0.62544080  0.80324977  0.15868278  1  0  0.095853  0  3.756999  0  0  0.112524  0  4.008558  0  0  0.120146  0  4.028212  0  0  0.013718  0.107411  0  3.995207  0
C  C72  1  0.05013539  0.81675044  0.69882325  1  0  -0.161934  0  3.734036  0  0  -0.179584  0  3.98606  0  0  -0.18761  0  4.006164  0  0  -0.088804  -0.17438  0  3.97248  0
C  C73  1  0.23310450  0.18299988  0.80112320  1  0  -0.162243  0  3.736166  0  0  -0.180015  0  3.98817  0  0  -0.188106  0  4.008399  0  0  -0.089103  -0.174865  0  3.974675  0
C  C74  1  0.94986613  0.18325086  0.30117823  1  0  -0.161939  0  3.733993  0  0  -0.17957  0  3.98601  0  0  -0.187596  0  4.006115  0  0  -0.088798  -0.174365  0  3.97243  0
C  C75  1  0.76689704  0.81700144  0.19887658  1  0  -0.162167  0  3.73616  0  0  -0.179933  0  3.988182  0  0  -0.188023  0  4.008405  0  0  -0.089092  -0.174793  0  3.974689  0
C  C76  1  0.00163459  0.74933202  0.75984851  1  0  0.122373  0  3.733444  0  0  0.088147  0  3.991533  0  0  0.096317  0  4.008341  0  0  0.036864  0.08283  0  3.980181  0
C  C77  1  0.25203767  0.25039735  0.74009605  1  0  0.1242  0  3.731809  0  0  0.089992  0  3.99013  0  0  0.09808  0  4.006988  0  0  0.037571  0.084837  0  3.978365  0
C  C78  1  0.99837092  0.25067288  0.24015353  1  0  0.122418  0  3.733358  0  0  0.088193  0  3.991462  0  0  0.096363  0  4.008271  0  0  0.036851  0.082885  0  3.980115  0
C  C79  1  0.74796298  0.74960878  0.25990391  1  0  0.124209  0  3.731823  0  0  0.089999  0  3.990163  0  0  0.098101  0  4.007031  0  0  0.037594  0.084847  0  3.978397  0
C  C80  1  0.24442046  0.71342741  0.67920396  1  0  -0.159044  0  3.723978  0  0  -0.173292  0  3.961878  0  0  -0.181911  0  3.98325  0  0  -0.091244  -0.167759  0  3.947607  0
C  C81  1  0.53074019  0.28597733  0.82050927  1  0  -0.157243  0  3.720925  0  0  -0.170891  0  3.958704  0  0  -0.179609  0  3.980091  0  0  -0.090263  -0.165364  0  3.944775  0
C  C82  1  0.75557867  0.28656910  0.32079677  1  0  -0.15902  0  3.72406  0  0  -0.173281  0  3.961981  0  0  -0.181901  0  3.983357  0  0  -0.091294  -0.16775  0  3.94771  0
C  C83  1  0.46925967  0.71402283  0.17948806  1  0  -0.157364  0  3.721054  0  0  -0.170984  0  3.958864  0  0  -0.179702  0  3.980252  0  0  -0.090318  -0.165461  0  3.944929  0
C  C84  1  0.18518535  0.64625240  0.73944999  1  0  0.13934  0  3.713904  0  0  0.108236  0  3.965175  0  0  0.116964  0  3.981696  0  0  0.043614  0.102551  0  3.953641  0
C  C85  1  0.53871475  0.35320985  0.76029393  1  0  0.137866  0  3.714706  0  0  0.106785  0  3.965558  0  0  0.115475  0  3.982082  0  0  0.042979  0.100912  0  3.954602  0
C  C86  1  0.81481497  0.35374651  0.26055111  1  0  0.139451  0  3.713728  0  0  0.10833  0  3.965007  0  0  0.11706  0  3.981526  0  0  0.043713  0.102654  0  3.953479  0
C  C87  1  0.46128411  0.64679271  0.23970377  1  0  0.137829  0  3.714727  0  0  0.106767  0  3.965535  0  0  0.115457  0  3.982064  0  0  0.043003  0.100897  0  3.954576  0
S  S88  1  0.24542283  0.89947741  0.58576752  1  0  0.073492  0  2.518875  0  0  0.062741  0  2.843409  0  0  0.059185  0  2.848813  0  0  0.048447  0.065651  0  2.839608  0
S  S89  1  0.34570054  0.10020694  0.91412405  1  0  0.073416  0  2.51901  0  0  0.062548  0  2.843486  0  0  0.059016  0  2.848885  0  0  0.048182  0.065391  0  2.839339  0
S  S90  1  0.75457808  0.10052268  0.41423490  1  0  0.073512  0  2.518799  0  0  0.062748  0  2.843337  0  0  0.059191  0  2.848738  0  0  0.048455  0.065658  0  2.839537  0
S  S91  1  0.65430101  0.89979440  0.08587460  1  0  0.073403  0  2.519023  0  0  0.062548  0  2.84352  0  0  0.059015  0  2.84892  0  0  0.048168  0.065385  0  2.839366  0
N  N92  1  0.49721539  0.70750733  0.46197370  1  0  -0.28448  0  3.183107  0  0  -0.22994  0  3.479886  0  0  -0.246542  0  3.494521  0  0  -0.258205  -0.21887  0  3.469919  0
N  N93  1  0.78956399  0.29233007  0.03802281  1  0  -0.285083  0  3.183258  0  0  -0.228959  0  3.47938  0  0  -0.245585  0  3.49403  0  0  -0.257522  -0.218109  0  3.469703  0
N  N94  1  0.50277985  0.29248798  0.53802684  1  0  -0.284366  0  3.183101  0  0  -0.229822  0  3.479824  0  0  -0.246423  0  3.494459  0  0  -0.258156  -0.218746  0  3.46985  0
N  N95  1  0.21043595  0.70767246  0.96197659  1  0  -0.285038  0  3.183254  0  0  -0.228904  0  3.47934  0  0  -0.24553  0  3.493989  0  0  -0.257488  -0.218056  0  3.469668  0
N  N96  1  0.61976449  0.83528911  0.51834712  1  0  -0.203095  0  3.496679  0  0  -0.15183  0  3.732553  0  0  -0.164748  0  3.75041  0  0  -0.283013  -0.143235  0  3.720566  0
N  N97  1  0.78445920  0.16476003  0.98157742  1  0  -0.203266  0  3.495362  0  0  -0.152426  0  3.73186  0  0  -0.165317  0  3.749626  0  0  -0.283946  -0.143865  0  3.719971  0
N  N98  1  0.38023186  0.16470623  0.48165115  1  0  -0.20316  0  3.496684  0  0  -0.151899  0  3.732533  0  0  -0.164815  0  3.750391  0  0  -0.283086  -0.143314  0  3.720541  0
N  N99  1  0.21554293  0.83524249  0.01842311  1  0  -0.203259  0  3.495398  0  0  -0.152401  0  3.73187  0  0  -0.165288  0  3.749633  0  0  -0.283944  -0.14384  0  3.71998  0
N  N100  1  0.06843046  0.66581608  0.78075445  1  0  -0.348819  0  3.358914  0  0  -0.266075  0  3.63847  0  0  -0.285307  0  3.654136  0  0  -0.34789  -0.253109  0  3.627638  0
N  N101  1  0.40239157  0.33384761  0.71911233  1  0  -0.349123  0  3.360262  0  0  -0.26668  0  3.640252  0  0  -0.285804  0  3.655778  0  0  -0.34798  -0.253592  0  3.629081  0
N  N102  1  0.93156768  0.33418284  0.21924552  1  0  -0.348843  0  3.358789  0  0  -0.266112  0  3.638374  0  0  -0.285343  0  3.654038  0  0  -0.34793  -0.253173  0  3.627567  0
N  N103  1  0.59760898  0.66615612  0.28088726  1  0  -0.349011  0  3.360136  0  0  -0.266592  0  3.640168  0  0  -0.285711  0  3.655676  0  0  -0.34796  -0.253505  0  3.628995  0
Cl  Cl104  1  0.83841582  0.68316554  0.43639783  1  0  -0.576178  0  0.934585  0  0  -0.520699  0  1.203134  0  0  -0.534612  0  1.180072  0  0  -0.312742  -0.510667  0  1.218977  0
Cl  Cl105  1  0.15530962  0.31704323  0.06371994  1  0  -0.575978  0  0.934285  0  0  -0.520596  0  1.203042  0  0  -0.534417  0  1.179867  0  0  -0.31271  -0.510412  0  1.218875  0
Cl  Cl106  1  0.16158293  0.31683461  0.56360063  1  0  -0.576173  0  0.9346  0  0  -0.520693  0  1.203152  0  0  -0.534606  0  1.180096  0  0  -0.312732  -0.510659  0  1.218996  0
Cl  Cl107  1  0.84469081  0.68295809  0.93628040  1  0  -0.575994  0  0.9343  0  0  -0.520604  0  1.20305  0  0  -0.534424  0  1.179876  0  0  -0.312719  -0.510418  0  1.21888  0
Cl  Cl108  1  0.38600003  0.32097363  0.32904303  1  0  -0.551739  0  0.934132  0  0  -0.483841  0  1.20219  0  0  -0.499262  0  1.181015  0  0  -0.311325  -0.472554  0  1.216803  0
Cl  Cl109  1  0.06494916  0.67898603  0.17089912  1  0  -0.551925  0  0.934611  0  0  -0.483882  0  1.202866  0  0  -0.499257  0  1.181692  0  0  -0.311124  -0.472503  0  1.217387  0
Cl  Cl110  1  0.61399861  0.67902410  0.67095619  1  0  -0.551734  0  0.934125  0  0  -0.483836  0  1.202195  0  0  -0.499258  0  1.181022  0  0  -0.311326  -0.47255  0  1.216807  0
Cl  Cl111  1  0.93505128  0.32101529  0.82910122  1  0  -0.551926  0  0.934631  0  0  -0.483883  0  1.202886  0  0  -0.499255  0  1.181711  0  0  -0.311126  -0.472503  0  1.217409  0
