# generated using pymatgen
data_AgH6C11NF4
_symmetry_space_group_name_H-M   'P 1'
_cell_length_a   10.20478643
_cell_length_b   10.49499520
_cell_length_c   10.88975529
_cell_angle_alpha   75.60033016
_cell_angle_beta   69.75494064
_cell_angle_gamma   86.00615358
_symmetry_Int_Tables_number   1
_chemical_formula_structural   AgH6C11NF4
_chemical_formula_sum   'Ag4 H24 C44 N4 F16'
_cell_volume   1059.68381769
_cell_formula_units_Z   4
loop_
 _symmetry_equiv_pos_site_id
 _symmetry_equiv_pos_as_xyz
  1  'x, y, z'
loop_
 _atom_site_type_symbol
 _atom_site_label
 _atom_site_symmetry_multiplicity
 _atom_site_fract_x
 _atom_site_fract_y
 _atom_site_fract_z
 _atom_site_occupancy
 _atom_site_hle17_bader_spin_density
 _atom_site_hle17_ddec_charge
 _atom_site_hle17_ddec_spin_density
 _atom_site_hle17_ddec_sum_bond_order
 _atom_site_hle17_magmom
 _atom_site_hse06_10hf_bader_spin_density
 _atom_site_hse06_10hf_ddec_charge
 _atom_site_hse06_10hf_ddec_spin_density
 _atom_site_hse06_10hf_ddec_sum_bond_order
 _atom_site_hse06_10hf_magmom
 _atom_site_hse06_bader_spin_density
 _atom_site_hse06_ddec_charge
 _atom_site_hse06_ddec_spin_density
 _atom_site_hse06_ddec_sum_bond_order
 _atom_site_hse06_magmom
 _atom_site_pbe_bader_spin_density
 _atom_site_pbe_cm5_charge
 _atom_site_pbe_ddec_charge
 _atom_site_pbe_ddec_spin_density
 _atom_site_pbe_ddec_sum_bond_order
 _atom_site_pbe_magmom
Ag  Ag0  1  0.49999976  0.49999961  0.99999977  1  0  0.366123  0  1.8544  0  0  0.244286  0  2.360872  0  0  0.263507  0  2.31668  0  0  0.301769  0.232785  0  2.390593  0
Ag  Ag1  1  0.57094611  0.73304267  0.04313740  1  0  0.372016  0  1.768933  0  0  0.245461  0  2.269858  0  0  0.265456  0  2.225086  0  0  0.354948  0.232695  0  2.299932  0
Ag  Ag2  1  0.42905381  0.26695746  0.95686194  1  0  0.372022  0  1.768939  0  0  0.245464  0  2.269869  0  0  0.265462  0  2.225092  0  0  0.354941  0.232697  0  2.299942  0
Ag  Ag3  1  0.50000034  0.00000013  0.99999935  1  0  0.353873  0  1.815842  0  0  0.236815  0  2.315326  0  0  0.254403  0  2.273641  0  0  0.281822  0.222283  0  2.344025  0
H  H4  1  0.98136689  0.81148421  0.12577829  1  0  0.164621  0  0.934294  0  0  0.165967  0  1.001914  0  0  0.171447  0  0.996759  0  0  0.113297  0.162183  0  1.005275  0
H  H5  1  0.01863302  0.18851493  0.87422405  1  0  0.164645  0  0.934246  0  0  0.165991  0  1.001868  0  0  0.171471  0  0.996712  0  0  0.113318  0.162207  0  1.00523  0
H  H6  1  0.55533636  0.85041219  0.54883783  1  0  0.162683  0  0.91831  0  0  0.170598  0  0.976543  0  0  0.174156  0  0.975168  0  0  0.118939  0.167981  0  0.977455  0
H  H7  1  0.44466360  0.14958990  0.45116195  1  0  0.162681  0  0.918321  0  0  0.170587  0  0.976565  0  0  0.174146  0  0.97519  0  0  0.118957  0.167971  0  0.977476  0
H  H8  1  0.53482316  0.63659899  0.35037401  1  0  0.060399  0  0.979969  0  0  0.065011  0  1.056244  0  0  0.06594  0  1.056879  0  0  0.102662  0.064356  0  1.055738  0
H  H9  1  0.46517675  0.36340015  0.64962558  1  0  0.060406  0  0.979956  0  0  0.065013  0  1.056241  0  0  0.065944  0  1.056877  0  0  0.102656  0.064371  0  1.055714  0
H  H10  1  0.65261456  0.51629576  0.51128537  1  0  0.103145  0  0.965958  0  0  0.112715  0  1.026518  0  0  0.115375  0  1.026263  0  0  0.102207  0.110969  0  1.026645  0
H  H11  1  0.34738539  0.48370535  0.48871465  1  0  0.10316  0  0.965967  0  0  0.112733  0  1.026515  0  0  0.115395  0  1.026258  0  0  0.10222  0.110989  0  1.026643  0
H  H12  1  0.87496789  0.39897357  0.42216344  1  0  0.098095  0  0.945708  0  0  0.105439  0  1.011288  0  0  0.108315  0  1.00866  0  0  0.105769  0.103298  0  1.013246  0
H  H13  1  0.12503206  0.60102754  0.57783658  1  0  0.098115  0  0.945695  0  0  0.105463  0  1.011266  0  0  0.108339  0  1.008639  0  0  0.105764  0.103324  0  1.013225  0
H  H14  1  0.96948044  0.40635465  0.17462273  1  0  0.097388  0  0.956959  0  0  0.108825  0  1.015655  0  0  0.110904  0  1.017007  0  0  0.103309  0.107468  0  1.014646  0
H  H15  1  0.03052053  0.59364547  0.82537719  1  0  0.097365  0  0.956989  0  0  0.108797  0  1.015695  0  0  0.110876  0  1.017048  0  0  0.103292  0.107439  0  1.014688  0
H  H16  1  0.84070011  0.53552732  0.02636773  1  0  0.066215  0  0.944452  0  0  0.075568  0  1.010749  0  0  0.07723  0  1.010236  0  0  0.107776  0.074444  0  1.010811  0
H  H17  1  0.15930086  0.46447280  0.97363219  1  0  0.066207  0  0.94446  0  0  0.075558  0  1.010762  0  0  0.077221  0  1.010248  0  0  0.107778  0.074434  0  1.010824  0
H  H18  1  0.85790832  0.90385558  0.88186316  1  0  0.075233  0  0.962961  0  0  0.082076  0  1.031991  0  0  0.085046  0  1.028364  0  0  0.105161  0.080029  0  1.03426  0
H  H19  1  0.14209267  0.09614553  0.11813469  1  0  0.075208  0  0.962971  0  0  0.082051  0  1.032  0  0  0.085022  0  1.028373  0  0  0.105151  0.080004  0  1.034269  0
H  H20  1  0.05391535  0.94301528  0.66149759  1  0  0.112259  0  0.961938  0  0  0.115883  0  1.029379  0  0  0.119315  0  1.02801  0  0  0.101963  0.113527  0  1.030272  0
H  H21  1  0.94608562  0.05698484  0.33850141  1  0  0.112289  0  0.961895  0  0  0.115914  0  1.029336  0  0  0.119348  0  1.027966  0  0  0.101975  0.113558  0  1.030229  0
H  H22  1  0.04181484  0.83634346  0.48320402  1  0  0.098472  0  0.954964  0  0  0.101481  0  1.027756  0  0  0.105083  0  1.024319  0  0  0.10187  0.098807  0  1.030318  0
H  H23  1  0.95818509  0.16365667  0.51679532  1  0  0.098495  0  0.954965  0  0  0.101502  0  1.027759  0  0  0.105103  0  1.024322  0  0  0.101872  0.098825  0  1.030323  0
H  H24  1  0.83358853  0.69134865  0.53606989  1  0  0.105316  0  0.960278  0  0  0.111696  0  1.025893  0  0  0.114941  0  1.024924  0  0  0.100645  0.109425  0  1.02664  0
H  H25  1  0.16641142  0.30865246  0.46392921  1  0  0.105305  0  0.960284  0  0  0.111674  0  1.025925  0  0  0.11492  0  1.024954  0  0  0.100641  0.109404  0  1.02667  0
H  H26  1  0.64610863  0.66299769  0.76157909  1  0  0.059347  0  0.984685  0  0  0.066031  0  1.060749  0  0  0.069467  0  1.055996  0  0  0.094374  0.063483  0  1.064241  0
H  H27  1  0.35389132  0.33700342  0.23842001  1  0  0.059378  0  0.984726  0  0  0.066061  0  1.060782  0  0  0.069497  0  1.056031  0  0  0.094366  0.063515  0  1.064274  0
C  C28  1  0.35444814  0.65148466  0.04847643  1  0  -0.482057  0  3.912906  0  0  -0.436657  0  4.231944  0  0  -0.453357  0  4.254195  0  0  -0.224227  -0.427387  0  4.218289  0
C  C29  1  0.64555179  0.34851547  0.95152291  1  0  -0.482089  0  3.91295  0  0  -0.436696  0  4.231998  0  0  -0.453388  0  4.254245  0  0  -0.224255  -0.427423  0  4.21834  0
C  C30  1  0.30681615  0.72454206  0.94670208  1  0  0.202971  0  3.878417  0  0  0.175093  0  4.16796  0  0  0.18373  0  4.18188  0  0  0.059255  0.169511  0  4.158949  0
C  C31  1  0.69318169  0.27545807  0.05329794  1  0  0.203019  0  3.878342  0  0  0.175144  0  4.167906  0  0  0.183777  0  4.181825  0  0  0.059269  0.169562  0  4.158893  0
C  C32  1  0.17490164  0.77983221  0.97285910  1  0  0.213831  0  3.814756  0  0  0.190942  0  4.108353  0  0  0.199369  0  4.11846  0  0  0.078751  0.185161  0  4.101012  0
C  C33  1  0.82509616  0.22016594  0.02714324  1  0  0.213899  0  3.814604  0  0  0.190955  0  4.10828  0  0  0.199382  0  4.118386  0  0  0.078782  0.185174  0  4.100938  0
C  C34  1  0.08364586  0.76656309  0.10444542  1  0  -0.254878  0  3.74258  0  0  -0.294519  0  4.016846  0  0  -0.298032  0  4.030839  0  0  -0.110075  -0.2916  0  4.006409  0
C  C35  1  0.91635190  0.23343310  0.89555741  1  0  -0.254901  0  3.742561  0  0  -0.294534  0  4.01684  0  0  -0.298042  0  4.030831  0  0  -0.110113  -0.291615  0  4.006405  0
C  C36  1  0.12854162  0.69429076  0.20748261  1  0  0.223627  0  3.805938  0  0  0.196586  0  4.104717  0  0  0.205396  0  4.114192  0  0  0.079367  0.190182  0  4.098559  0
C  C37  1  0.87145821  0.30570444  0.79251794  1  0  0.223623  0  3.806021  0  0  0.19658  0  4.104779  0  0  0.205387  0  4.114258  0  0  0.079391  0.190175  0  4.098619  0
C  C38  1  0.26023374  0.63880982  0.17909524  1  0  0.207111  0  3.865253  0  0  0.174591  0  4.159597  0  0  0.183666  0  4.172771  0  0  0.057448  0.16857  0  4.151104  0
C  C39  1  0.73976719  0.36118833  0.82090517  1  0  0.207095  0  3.865313  0  0  0.174556  0  4.159678  0  0  0.183627  0  4.17285  0  0  0.057461  0.168534  0  4.151181  0
C  C40  1  0.52753217  0.90300471  0.18595652  1  0  -0.457271  0  3.83198  0  0  -0.418345  0  4.151723  0  0  -0.433449  0  4.172338  0  0  -0.212727  -0.407713  0  4.137241  0
C  C41  1  0.47246780  0.09699738  0.81404235  1  0  -0.457253  0  3.831931  0  0  -0.418304  0  4.151613  0  0  -0.43341  0  4.172227  0  0  -0.212715  -0.407671  0  4.137128  0
C  C42  1  0.41084750  0.88102182  0.30354173  1  0  0.210885  0  3.848823  0  0  0.184101  0  4.13533  0  0  0.193077  0  4.148404  0  0  0.063484  0.177743  0  4.126747  0
C  C43  1  0.58915244  0.11897928  0.69645829  1  0  0.210856  0  3.848876  0  0  0.184075  0  4.135383  0  0  0.19305  0  4.148459  0  0  0.063472  0.177716  0  4.126798  0
C  C44  1  0.41950413  0.86268445  0.43189062  1  0  0.213629  0  3.803532  0  0  0.187766  0  4.100378  0  0  0.196248  0  4.109828  0  0  0.078367  0.181918  0  4.093755  0
C  C45  1  0.58049688  0.13731765  0.56810882  1  0  0.213639  0  3.803553  0  0  0.187783  0  4.100387  0  0  0.196266  0  4.109837  0  0  0.078386  0.181935  0  4.093763  0
C  C46  1  0.54821874  0.86468333  0.44895262  1  0  -0.263829  0  3.764723  0  0  -0.303207  0  4.042901  0  0  -0.307292  0  4.058575  0  0  -0.110154  -0.300558  0  4.031715  0
C  C47  1  0.45178221  0.13531581  0.55104663  1  0  -0.263835  0  3.764702  0  0  -0.303198  0  4.04291  0  0  -0.307287  0  4.058588  0  0  -0.110166  -0.300551  0  4.031725  0
C  C48  1  0.66627228  0.88602838  0.33346329  1  0  0.220747  0  3.80452  0  0  0.192074  0  4.105015  0  0  0.201233  0  4.113584  0  0  0.080636  0.185369  0  4.099985  0
C  C49  1  0.33372767  0.11397272  0.66653673  1  0  0.22076  0  3.804567  0  0  0.192039  0  4.105127  0  0  0.201196  0  4.113696  0  0  0.08061  0.185334  0  4.100097  0
C  C50  1  0.65459401  0.90398097  0.20672101  1  0  0.203554  0  3.86398  0  0  0.17626  0  4.152412  0  0  0.184927  0  4.165814  0  0  0.0592  0.169742  0  4.144131  0
C  C51  1  0.34540595  0.09602112  0.79327877  1  0  0.203571  0  3.863991  0  0  0.176291  0  4.152445  0  0  0.184959  0  4.165846  0  0  0.059199  0.169771  0  4.144165  0
C  C52  1  0.63210587  0.58512368  0.31534059  1  0  0.11195  0  3.739803  0  0  0.086637  0  3.982709  0  0  0.091949  0  4.004503  0  0  0.035232  0.083482  0  3.967758  0
C  C53  1  0.36789407  0.41487743  0.68465943  1  0  0.111953  0  3.739735  0  0  0.086651  0  3.982638  0  0  0.09196  0  4.004434  0  0  0.035276  0.083491  0  3.967687  0
C  C54  1  0.69768934  0.51761791  0.40464244  1  0  -0.124617  0  3.735975  0  0  -0.136782  0  3.984622  0  0  -0.144418  0  4.007336  0  0  -0.08843  -0.132185  0  3.969325  0
C  C55  1  0.30231059  0.48238222  0.59535690  1  0  -0.124612  0  3.735924  0  0  -0.136777  0  3.984576  0  0  -0.144412  0  4.007289  0  0  -0.088456  -0.132182  0  3.969284  0
C  C56  1  0.82139408  0.45272312  0.35476414  1  0  0.011371  0  3.712894  0  0  -0.015006  0  3.971405  0  0  -0.010049  0  3.988115  0  0  -0.065106  -0.017485  0  3.960065  0
C  C57  1  0.17860587  0.54727799  0.64523588  1  0  0.011249  0  3.712895  0  0  -0.015131  0  3.971413  0  0  -0.010175  0  3.988124  0  0  -0.065149  -0.017612  0  3.960075  0
C  C58  1  0.87448119  0.45777041  0.21717406  1  0  -0.115862  0  3.734498  0  0  -0.128553  0  3.984604  0  0  -0.13621  0  4.008262  0  0  -0.085007  -0.124065  0  3.968686  0
C  C59  1  0.12551980  0.54223070  0.78282654  1  0  -0.115763  0  3.73448  0  0  -0.128445  0  3.984562  0  0  -0.136102  0  4.008221  0  0  -0.084937  -0.123956  0  3.968646  0
C  C60  1  0.80298201  0.52890851  0.13461047  1  0  0.114873  0  3.723397  0  0  0.08862  0  3.970604  0  0  0.094097  0  3.99074  0  0  0.038541  0.085101  0  3.95678  0
C  C61  1  0.19701793  0.47109260  0.86538955  1  0  0.11491  0  3.72341  0  0  0.088666  0  3.970609  0  0  0.094143  0  3.990742  0  0  0.038554  0.085147  0  3.956784  0
C  C62  1  0.85652374  0.85870896  0.80249312  1  0  0.117094  0  3.718788  0  0  0.085805  0  3.969647  0  0  0.092561  0  3.987071  0  0  0.03725  0.081696  0  3.957338  0
C  C63  1  0.14347725  0.14129215  0.19750564  1  0  0.117147  0  3.718818  0  0  0.085864  0  3.969664  0  0  0.09262  0  3.987088  0  0  0.037268  0.081756  0  3.957354  0
C  C64  1  0.96522389  0.88078674  0.67901245  1  0  -0.113855  0  3.722475  0  0  -0.128507  0  3.978402  0  0  -0.135382  0  4.000458  0  0  -0.085594  -0.124226  0  3.963471  0
C  C65  1  0.03477710  0.11921436  0.32098632  1  0  -0.113873  0  3.722435  0  0  -0.128526  0  3.978359  0  0  -0.135402  0  4.000416  0  0  -0.085585  -0.124244  0  3.963425  0
C  C66  1  0.95834573  0.82099578  0.58059584  1  0  -0.006142  0  3.7135  0  0  -0.02814  0  3.971301  0  0  -0.025345  0  3.990482  0  0  -0.069579  -0.029692  0  3.958106  0
C  C67  1  0.04165527  0.17900533  0.41940384  1  0  -0.00616  0  3.713532  0  0  -0.028151  0  3.971314  0  0  -0.025356  0  3.990499  0  0  -0.069568  -0.029705  0  3.95813  0
C  C68  1  0.84291588  0.74055577  0.60967546  1  0  -0.121582  0  3.744771  0  0  -0.135962  0  3.994682  0  0  -0.142843  0  4.01785  0  0  -0.091434  -0.131335  0  3.978681  0
C  C69  1  0.15708513  0.25944632  0.39032306  1  0  -0.121561  0  3.744819  0  0  -0.135945  0  3.994735  0  0  -0.142827  0  4.017903  0  0  -0.09145  -0.131317  0  3.97873  0
C  C70  1  0.73853448  0.72427237  0.73522577  1  0  0.100471  0  3.745238  0  0  0.077022  0  3.98356  0  0  0.081202  0  4.005353  0  0  0.028849  0.074243  0  3.969176  0
C  C71  1  0.26146651  0.27572874  0.26477391  1  0  0.100431  0  3.74529  0  0  0.076982  0  3.983614  0  0  0.081164  0  4.005404  0  0  0.028864  0.074198  0  3.969241  0
N  N72  1  0.68386569  0.59214295  0.18217838  1  0  -0.302668  0  3.264084  0  0  -0.226084  0  3.533922  0  0  -0.242291  0  3.550086  0  0  -0.336095  -0.215387  0  3.522983  0
N  N73  1  0.31613426  0.40785816  0.81782073  1  0  -0.302717  0  3.264119  0  0  -0.226157  0  3.533984  0  0  -0.242366  0  3.550151  0  0  -0.33614  -0.215461  0  3.523049  0
N  N74  1  0.74461623  0.78179566  0.83088596  1  0  -0.311352  0  3.298046  0  0  -0.228106  0  3.566944  0  0  -0.245573  0  3.584718  0  0  -0.341533  -0.216253  0  3.554154  0
N  N75  1  0.25538476  0.21820545  0.16911280  1  0  -0.311385  0  3.298076  0  0  -0.228145  0  3.566983  0  0  -0.245614  0  3.58476  0  0  -0.341562  -0.216292  0  3.554193  0
F  F76  1  0.30070938  0.84389327  0.54180535  1  0  -0.183427  0  1.233981  0  0  -0.126529  0  1.392875  0  0  -0.135057  0  1.38408  0  0  -0.091262  -0.120479  0  1.398753  0
F  F77  1  0.69929058  0.15610882  0.45819351  1  0  -0.183438  0  1.233996  0  0  -0.126539  0  1.392888  0  0  -0.135068  0  1.38409  0  0  -0.091277  -0.12049  0  1.398765  0
F  F78  1  0.77733903  0.92005198  0.09864581  1  0  -0.192488  0  1.241026  0  0  -0.143496  0  1.422037  0  0  -0.153221  0  1.411866  0  0  -0.09903  -0.13665  0  1.428981  0
F  F79  1  0.22266089  0.07994814  0.90135353  1  0  -0.192488  0  1.241027  0  0  -0.143499  0  1.422039  0  0  -0.153222  0  1.411868  0  0  -0.099023  -0.136652  0  1.428984  0
F  F80  1  0.79523445  0.88662472  0.34447689  1  0  -0.189396  0  1.241903  0  0  -0.131743  0  1.403661  0  0  -0.140366  0  1.393947  0  0  -0.089112  -0.1254  0  1.41014  0
F  F81  1  0.20476550  0.11337639  0.65552221  1  0  -0.189397  0  1.241908  0  0  -0.131725  0  1.403683  0  0  -0.140349  0  1.393968  0  0  -0.089088  -0.125382  0  1.410161  0
F  F82  1  0.13385082  0.84634458  0.86847686  1  0  -0.177028  0  1.24621  0  0  -0.132945  0  1.421483  0  0  -0.141485  0  1.412277  0  0  -0.092742  -0.126563  0  1.427197  0
F  F83  1  0.86614805  0.15365456  0.13152674  1  0  -0.177068  0  1.246181  0  0  -0.132971  0  1.421477  0  0  -0.141511  0  1.41227  0  0  -0.092774  -0.126588  0  1.427191  0
F  F84  1  0.29651914  0.56938431  0.28733376  1  0  -0.206125  0  1.229896  0  0  -0.148651  0  1.399625  0  0  -0.157396  0  1.389532  0  0  -0.105141  -0.142294  0  1.406375  0
F  F85  1  0.70348392  0.43061582  0.71266641  1  0  -0.206099  0  1.229907  0  0  -0.14862  0  1.399644  0  0  -0.157367  0  1.38955  0  0  -0.105144  -0.142265  0  1.406392  0
F  F86  1  0.27974529  0.87856815  0.29594624  1  0  -0.196864  0  1.24394  0  0  -0.141104  0  1.412522  0  0  -0.151298  0  1.404668  0  0  -0.103087  -0.133781  0  1.417892  0
F  F87  1  0.72025466  0.12143296  0.70405470  1  0  -0.19686  0  1.243919  0  0  -0.141112  0  1.412509  0  0  -0.151303  0  1.404655  0  0  -0.103098  -0.133787  0  1.417879  0
F  F88  1  0.39055555  0.74184612  0.81422840  1  0  -0.198073  0  1.214709  0  0  -0.144717  0  1.379886  0  0  -0.153661  0  1.371137  0  0  -0.109596  -0.138215  0  1.385772  0
F  F89  1  0.60944225  0.25815203  0.18577210  1  0  -0.198145  0  1.214717  0  0  -0.144758  0  1.379872  0  0  -0.153705  0  1.371123  0  0  -0.109616  -0.138257  0  1.385758  0
F  F90  1  0.04257062  0.67735406  0.33822051  1  0  -0.189773  0  1.233028  0  0  -0.133743  0  1.39459  0  0  -0.142356  0  1.384897  0  0  -0.091158  -0.127647  0  1.401307  0
F  F91  1  0.95742809  0.32263721  0.66178226  1  0  -0.189796  0  1.233078  0  0  -0.133715  0  1.394598  0  0  -0.142329  0  1.384906  0  0  -0.091148  -0.127619  0  1.401315  0
