# generated using pymatgen
data_AgH5C5O4
_symmetry_space_group_name_H-M   'P 1'
_cell_length_a   5.39760542
_cell_length_b   9.67051473
_cell_length_c   12.72308841
_cell_angle_alpha   110.14397663
_cell_angle_beta   90.00290714
_cell_angle_gamma   89.99939892
_symmetry_Int_Tables_number   1
_chemical_formula_structural   AgH5C5O4
_chemical_formula_sum   'Ag4 H20 C20 O16'
_cell_volume   623.49119053
_cell_formula_units_Z   4
loop_
 _symmetry_equiv_pos_site_id
 _symmetry_equiv_pos_as_xyz
  1  'x, y, z'
loop_
 _atom_site_type_symbol
 _atom_site_label
 _atom_site_symmetry_multiplicity
 _atom_site_fract_x
 _atom_site_fract_y
 _atom_site_fract_z
 _atom_site_occupancy
 _atom_site_hle17_bader_spin_density
 _atom_site_hle17_ddec_charge
 _atom_site_hle17_ddec_spin_density
 _atom_site_hle17_ddec_sum_bond_order
 _atom_site_hle17_magmom
 _atom_site_hse06_10hf_bader_spin_density
 _atom_site_hse06_10hf_ddec_charge
 _atom_site_hse06_10hf_ddec_spin_density
 _atom_site_hse06_10hf_ddec_sum_bond_order
 _atom_site_hse06_10hf_magmom
 _atom_site_hse06_bader_spin_density
 _atom_site_hse06_ddec_charge
 _atom_site_hse06_ddec_spin_density
 _atom_site_hse06_ddec_sum_bond_order
 _atom_site_hse06_magmom
 _atom_site_pbe_bader_spin_density
 _atom_site_pbe_cm5_charge
 _atom_site_pbe_ddec_charge
 _atom_site_pbe_ddec_spin_density
 _atom_site_pbe_ddec_sum_bond_order
 _atom_site_pbe_magmom
Ag  Ag0  1  0.47124769  0.32077160  0.28615958  1  0  0.604059  0  1.394061  0  0  0.479115  0  1.860698  0  0  0.516733  0  1.796406  0  0  0.424693  0.452316  0  1.905713  0
Ag  Ag1  1  0.97121729  0.67923812  0.71384989  1  0  0.603961  0  1.393936  0  0  0.478993  0  1.860596  0  0  0.516617  0  1.796304  0  0  0.424599  0.45218  0  1.905611  0
Ag  Ag2  1  0.03383489  0.16828750  0.27453595  1  0  0.605903  0  1.368287  0  0  0.4843  0  1.83198  0  0  0.521288  0  1.768273  0  0  0.419005  0.458326  0  1.876149  0
Ag  Ag3  1  0.53380141  0.83171886  0.72546161  1  0  0.605865  0  1.36838  0  0  0.484277  0  1.83208  0  0  0.521264  0  1.768369  0  0  0.419009  0.458289  0  1.87627  0
H  H4  1  0.83422546  0.85593725  0.12186586  1  0  0.084037  0  0.912447  0  0  0.09209  0  0.970164  0  0  0.093918  0  0.968885  0  0  0.117157  0.090669  0  0.971308  0
H  H5  1  0.33421801  0.14406527  0.87816081  1  0  0.084335  0  0.912339  0  0  0.092376  0  0.970033  0  0  0.094222  0  0.968755  0  0  0.117223  0.090957  0  0.97119  0
H  H6  1  0.17206534  0.74962832  0.97985248  1  0  0.116379  0  0.927382  0  0  0.132432  0  0.986378  0  0  0.134291  0  0.98625  0  0  0.105434  0.130992  0  0.986733  0
H  H7  1  0.67208988  0.25039243  0.02017217  1  0  0.116297  0  0.927504  0  0  0.132343  0  0.986514  0  0  0.134202  0  0.986378  0  0  0.105396  0.13091  0  0.986866  0
H  H8  1  0.33778775  0.59244869  0.89429067  1  0  0.132996  0  0.923311  0  0  0.146452  0  0.982816  0  0  0.149188  0  0.981478  0  0  0.109835  0.144502  0  0.983783  0
H  H9  1  0.83779407  0.40754580  0.10571517  1  0  0.132993  0  0.923372  0  0  0.146448  0  0.982877  0  0  0.149182  0  0.981537  0  0  0.109835  0.144506  0  0.983839  0
H  H10  1  0.34417901  0.74623183  0.32758179  1  0  0.129008  0  0.930426  0  0  0.140298  0  0.994471  0  0  0.143098  0  0.993287  0  0  0.1105  0.138282  0  0.995379  0
H  H11  1  0.84417884  0.25377117  0.67241299  1  0  0.129102  0  0.930439  0  0  0.140398  0  0.99448  0  0  0.143201  0  0.993296  0  0  0.110529  0.138386  0  0.995387  0
H  H12  1  0.21283059  0.92409378  0.36548598  1  0  0.13596  0  0.938787  0  0  0.148051  0  0.999277  0  0  0.151025  0  0.997637  0  0  0.107486  0.146049  0  1.000409  0
H  H13  1  0.71284781  0.07588735  0.63450510  1  0  0.136154  0  0.938452  0  0  0.148262  0  0.998927  0  0  0.151243  0  0.997285  0  0  0.107569  0.146262  0  1.000055  0
H  H14  1  0.79486740  0.82943725  0.35355713  1  0  0.097303  0  0.932065  0  0  0.114425  0  0.989994  0  0  0.115481  0  0.990522  0  0  0.099409  0.113527  0  0.989926  0
H  H15  1  0.29488747  0.17053772  0.64641137  1  0  0.097191  0  0.931736  0  0  0.114354  0  0.98971  0  0  0.115413  0  0.990231  0  0  0.099343  0.113453  0  0.989645  0
H  H16  1  0.93046066  0.67210390  0.25150854  1  0  0.106491  0  0.935475  0  0  0.120806  0  0.997004  0  0  0.122703  0  0.996291  0  0  0.1031  0.119368  0  0.997643  0
H  H17  1  0.43044778  0.32787527  0.74846160  1  0  0.1066  0  0.935551  0  0  0.120852  0  0.997162  0  0  0.122751  0  0.996449  0  0  0.103041  0.119413  0  0.997802  0
H  H18  1  0.53632781  0.87860398  0.94804994  1  0  0.086675  0  0.952621  0  0  0.102042  0  1.017737  0  0  0.104138  0  1.016251  0  0  0.09107  0.100557  0  1.01873  0
H  H19  1  0.03633850  0.12139702  0.05196045  1  0  0.086615  0  0.95266  0  0  0.101976  0  1.017792  0  0  0.104063  0  1.01631  0  0  0.091043  0.100492  0  1.018785  0
H  H20  1  0.72648356  0.72125305  0.93005916  1  0  0.082995  0  0.961091  0  0  0.093086  0  1.041707  0  0  0.095466  0  1.03848  0  0  0.091694  0.091184  0  1.04435  0
H  H21  1  0.22649029  0.27875562  0.06995573  1  0  0.082923  0  0.961191  0  0  0.093052  0  1.0418  0  0  0.095435  0  1.038558  0  0  0.091693  0.091152  0  1.044443  0
H  H22  1  0.70856012  0.64971612  0.44322425  1  0  0.091224  0  0.91049  0  0  0.096513  0  0.973481  0  0  0.098602  0  0.971854  0  0  0.119051  0.094899  0  0.974837  0
H  H23  1  0.20854596  0.35028806  0.55676161  1  0  0.091166  0  0.910555  0  0  0.096428  0  0.973619  0  0  0.098513  0  0.972004  0  0  0.118982  0.094817  0  0.974968  0
C  C24  1  0.21253048  0.82937125  0.49509331  1  0  0.674206  0  3.696406  0  0  0.627732  0  3.995334  0  0  0.661607  0  3.986065  0  0  0.244663  0.604518  0  4.001046  0
C  C25  1  0.71254766  0.17064074  0.50490641  1  0  0.673903  0  3.696644  0  0  0.627611  0  3.995374  0  0  0.661445  0  3.986173  0  0  0.244598  0.604418  0  4.001073  0
C  C26  1  0.19207696  0.81619981  0.37431610  1  0  -0.283269  0  3.676222  0  0  -0.323542  0  3.924529  0  0  -0.330385  0  3.932524  0  0  -0.165742  -0.318815  0  3.918939  0
C  C27  1  0.69210156  0.18379588  0.62566881  1  0  -0.283576  0  3.675977  0  0  -0.323939  0  3.924403  0  0  -0.330783  0  3.93241  0  0  -0.165802  -0.319233  0  3.918827  0
C  C28  1  0.93868587  0.74492518  0.33898763  1  0  -0.135962  0  3.624689  0  0  -0.185295  0  3.882074  0  0  -0.185877  0  3.892808  0  0  -0.161644  -0.18479  0  3.874965  0
C  C29  1  0.43870024  0.25506618  0.66100152  1  0  -0.135781  0  3.624058  0  0  -0.1851  0  3.881646  0  0  -0.185678  0  3.892382  0  0  -0.161525  -0.18458  0  3.874523  0
C  C30  1  0.90135010  0.66113809  0.42093678  1  0  0.074524  0  3.527831  0  0  0.054866  0  3.779666  0  0  0.056517  0  3.786444  0  0  0.010286  0.053684  0  3.775003  0
C  C31  1  0.40132881  0.33884397  0.57904605  1  0  0.074456  0  3.528003  0  0  0.054702  0  3.780122  0  0  0.056345  0  3.786905  0  0  0.010378  0.053523  0  3.77545  0
C  C32  1  0.02838852  0.51099317  0.37560467  1  0  0.643838  0  3.856358  0  0  0.591082  0  4.142078  0  0  0.625893  0  4.139229  0  0  0.210088  0.567388  0  4.143011  0
C  C33  1  0.52831886  0.48899915  0.62440177  1  0  0.64366  0  3.85673  0  0  0.591039  0  4.142322  0  0  0.625857  0  4.139471  0  0  0.209991  0.567334  0  4.143264  0
C  C34  1  0.37476033  0.64013165  0.07161344  1  0  0.655265  0  3.718344  0  0  0.608838  0  4.027154  0  0  0.641665  0  4.017415  0  0  0.240837  0.586221  0  4.033466  0
C  C35  1  0.87475057  0.35987429  0.92839454  1  0  0.655359  0  3.717869  0  0  0.608998  0  4.026669  0  0  0.64184  0  4.016895  0  0  0.240945  0.586359  0  4.033013  0
C  C36  1  0.34709481  0.68859595  0.97122037  1  0  -0.267822  0  3.669943  0  0  -0.310744  0  3.923474  0  0  -0.316276  0  3.931229  0  0  -0.163224  -0.306855  0  3.918181  0
C  C37  1  0.84711563  0.31140482  0.02877627  1  0  -0.267819  0  3.670057  0  0  -0.310746  0  3.923643  0  0  -0.316262  0  3.931345  0  0  -0.163199  -0.306841  0  3.918315  0
C  C38  1  0.57221757  0.78699560  0.97810020  1  0  -0.144191  0  3.662901  0  0  -0.196827  0  3.924397  0  0  -0.197428  0  3.935025  0  0  -0.166258  -0.19591  0  3.916478  0
C  C39  1  0.07222131  0.21300276  0.02192367  1  0  -0.143851  0  3.662593  0  0  -0.196496  0  3.924092  0  0  -0.197126  0  3.934776  0  0  -0.166137  -0.195604  0  3.916246  0
C  C40  1  0.63531735  0.84099796  0.10396982  1  0  0.074586  0  3.540793  0  0  0.059033  0  3.785677  0  0  0.060505  0  3.793324  0  0  0.008705  0.057901  0  3.780466  0
C  C41  1  0.13531823  0.15898716  0.89605047  1  0  0.073974  0  3.540846  0  0  0.058489  0  3.785848  0  0  0.059933  0  3.793506  0  0  0.008523  0.057348  0  3.780636  0
C  C42  1  0.49673118  0.98463528  0.16545404  1  0  0.633863  0  3.861944  0  0  0.582427  0  4.147539  0  0  0.616541  0  4.145356  0  0  0.208689  0.559131  0  4.148318  0
C  C43  1  0.99673419  0.01536065  0.83454303  1  0  0.633832  0  3.861928  0  0  0.582315  0  4.147737  0  0  0.616432  0  4.145562  0  0  0.208606  0.559016  0  4.148512  0
O  O44  1  0.25818222  0.50766868  0.39484191  1  0  -0.59075  0  2.079989  0  0  -0.516403  0  2.345975  0  0  -0.548955  0  2.335909  0  0  -0.316394  -0.493667  0  2.352043  0
O  O45  1  0.75813267  0.49232602  0.60515675  1  0  -0.590894  0  2.07981  0  0  -0.516569  0  2.345697  0  0  -0.549125  0  2.335618  0  0  -0.316577  -0.49383  0  2.351773  0
O  O46  1  0.89681960  0.40322866  0.31602668  1  0  -0.635708  0  2.181937  0  0  -0.548789  0  2.471094  0  0  -0.584282  0  2.457728  0  0  -0.327677  -0.523995  0  2.479254  0
O  O47  1  0.39681271  0.59678771  0.68397107  1  0  -0.635496  0  2.18244  0  0  -0.548588  0  2.471558  0  0  -0.584073  0  2.458168  0  0  -0.327503  -0.523789  0  2.479716  0
O  O48  1  0.36584111  0.89768023  0.56474767  1  0  -0.54091  0  2.010843  0  0  -0.488224  0  2.255781  0  0  -0.512811  0  2.244388  0  0  -0.278781  -0.471213  0  2.263158  0
O  O49  1  0.86584151  0.10234870  0.43524553  1  0  -0.540826  0  2.010743  0  0  -0.488224  0  2.255623  0  0  -0.512796  0  2.244257  0  0  -0.278871  -0.471221  0  2.262989  0
O  O50  1  0.02801341  0.75219379  0.52262809  1  0  -0.347927  0  2.266765  0  0  -0.283001  0  2.521924  0  0  -0.303743  0  2.515245  0  0  -0.161945  -0.268653  0  2.526053  0
O  O51  1  0.52802145  0.24782369  0.47737217  1  0  -0.347551  0  2.266982  0  0  -0.282648  0  2.522113  0  0  -0.303373  0  2.515457  0  0  -0.161797  -0.268324  0  2.526242  0
O  O52  1  0.27501391  0.97373500  0.19344683  1  0  -0.595038  0  2.08836  0  0  -0.522897  0  2.352521  0  0  -0.554687  0  2.342696  0  0  -0.313071  -0.501013  0  2.358662  0
O  O53  1  0.77497703  0.02627705  0.80655740  1  0  -0.594804  0  2.087911  0  0  -0.522628  0  2.352085  0  0  -0.554429  0  2.342284  0  0  -0.312892  -0.500734  0  2.358215  0
O  O54  1  0.61710492  0.10314880  0.17778924  1  0  -0.636802  0  2.155626  0  0  -0.550637  0  2.437073  0  0  -0.586039  0  2.425722  0  0  -0.329722  -0.525938  0  2.444108  0
O  O55  1  0.11710896  0.89686183  0.82222772  1  0  -0.636812  0  2.155885  0  0  -0.55061  0  2.437403  0  0  -0.586025  0  2.42608  0  0  -0.329712  -0.525906  0  2.444433  0
O  O56  1  0.26517212  0.54439912  0.09478868  1  0  -0.52292  0  1.934044  0  0  -0.481253  0  2.150002  0  0  -0.502612  0  2.14265  0  0  -0.275975  -0.466536  0  2.154973  0
O  O57  1  0.76516381  0.45560086  0.90520362  1  0  -0.522995  0  1.933968  0  0  -0.481311  0  2.149889  0  0  -0.502686  0  2.142541  0  0  -0.276009  -0.466568  0  2.154848  0
O  O58  1  0.55151510  0.72428304  0.14243048  1  0  -0.328049  0  2.209231  0  0  -0.265984  0  2.441209  0  0  -0.285559  0  2.438587  0  0  -0.161237  -0.252137  0  2.442542  0
O  O59  1  0.05149800  0.27568892  0.85756264  1  0  -0.327945  0  2.208495  0  0  -0.266043  0  2.44061  0  0  -0.285608  0  2.437975  0  0  -0.161315  -0.252181  0  2.441946  0
