# generated using pymatgen
data_NdH29C26(NO4)2
_symmetry_space_group_name_H-M   'P 1'
_cell_length_a   10.96091507
_cell_length_b   11.56943173
_cell_length_c   12.56200000
_cell_angle_alpha   110.73236595
_cell_angle_beta   99.39439431
_cell_angle_gamma   111.22173645
_symmetry_Int_Tables_number   1
_chemical_formula_structural   NdH29C26(NO4)2
_chemical_formula_sum   'Nd2 H58 C52 N4 O16'
_cell_volume   1308.95994267
_cell_formula_units_Z   2
loop_
 _symmetry_equiv_pos_site_id
 _symmetry_equiv_pos_as_xyz
  1  'x, y, z'
loop_
 _atom_site_type_symbol
 _atom_site_label
 _atom_site_symmetry_multiplicity
 _atom_site_fract_x
 _atom_site_fract_y
 _atom_site_fract_z
 _atom_site_occupancy
 _atom_site_hle17_bader_spin_density
 _atom_site_hle17_ddec_charge
 _atom_site_hle17_ddec_spin_density
 _atom_site_hle17_ddec_sum_bond_order
 _atom_site_hle17_magmom
 _atom_site_hse06_10hf_bader_spin_density
 _atom_site_hse06_10hf_ddec_charge
 _atom_site_hse06_10hf_ddec_spin_density
 _atom_site_hse06_10hf_ddec_sum_bond_order
 _atom_site_hse06_10hf_magmom
 _atom_site_hse06_bader_spin_density
 _atom_site_hse06_ddec_charge
 _atom_site_hse06_ddec_spin_density
 _atom_site_hse06_ddec_sum_bond_order
 _atom_site_hse06_magmom
 _atom_site_pbe_bader_charge
 _atom_site_pbe_bader_spin_density
 _atom_site_pbe_cm5_charge
 _atom_site_pbe_ddec_charge
 _atom_site_pbe_ddec_spin_density
 _atom_site_pbe_ddec_sum_bond_order
 _atom_site_pbe_magmom
Nd  Nd0  1  0.90369940  0.61231445  0.56743697  1  0  2.192815  0  1.723808  0  0  1.999304  0  2.227139  0  0  2.050372  0  2.174924  0  2.20507  0  1.484866  1.960416  0  2.267695  0
Nd  Nd1  1  0.09630195  0.38768084  0.43256328  1  0  2.192843  0  1.723737  0  0  1.999358  0  2.22701  0  0  2.050427  0  2.174797  0  2.205076  0  1.484871  1.960466  0  2.26757  0
H  H2  1  0.49818035  0.46454057  0.78677011  1  0  0.419673  0  0.773604  0  0  0.404617  0  0.823655  0  0  0.413964  0  0.813906  0  0.621689  0  0.355088  0.397781  0  0.830991  0
H  H3  1  0.50181605  0.53546821  0.21323462  1  0  0.419687  0  0.773443  0  0  0.404637  0  0.823504  0  0  0.413984  0  0.813752  0  0.621657  0  0.355088  0.397801  0  0.830842  0
H  H4  1  0.47368340  0.60204434  0.45521575  1  0  0.124083  0  0.92019  0  0  0.139849  0  0.976369  0  0  0.14302  0  0.974551  0  0.067715  0  0.11099  0.137582  0  0.97781  0
H  H5  1  0.52631756  0.39795821  0.54478363  1  0  0.124085  0  0.920301  0  0  0.139836  0  0.976463  0  0  0.143011  0  0.974632  0  0.067709  0  0.110994  0.137569  0  0.977904  0
H  H6  1  0.52047630  0.71866855  0.60585635  1  0  0.101359  0  0.942004  0  0  0.115908  0  1.003236  0  0  0.11846  0  1.00207  0  0.059298  0  0.095249  0.11392  0  1.004416  0
H  H7  1  0.47952370  0.28132985  0.39414074  1  0  0.101442  0  0.941854  0  0  0.115915  0  1.003156  0  0  0.118467  0  1.001989  0  0.059259  0  0.095258  0.113927  0  1.004336  0
H  H8  1  0.47128119  0.81501304  0.45661601  1  0  0.056681  0  0.961233  0  0  0.076518  0  1.021656  0  0  0.077097  0  1.022374  0  0.007229  0  0.084746  0.07609  0  1.021173  0
H  H9  1  0.52872209  0.18499055  0.54338562  1  0  0.056681  0  0.961386  0  0  0.076528  0  1.021789  0  0  0.07711  0  1.022503  0  0.007165  0  0.084763  0.0761  0  1.021304  0
H  H10  1  0.61143990  0.79897898  0.41195790  1  0  0.068125  0  0.955639  0  0  0.082673  0  1.024978  0  0  0.084197  0  1.024525  0  0.056959  0  0.086731  0.081551  0  1.025318  0
H  H11  1  0.38856475  0.20102358  0.58804439  1  0  0.06815  0  0.955666  0  0  0.082699  0  1.024999  0  0  0.084222  0  1.024548  0  0.056772  0  0.086736  0.081577  0  1.025339  0
H  H12  1  0.62902112  0.99223563  0.66140786  1  0  0.041398  0  0.963407  0  0  0.060943  0  1.029138  0  0  0.061434  0  1.029494  0  -0.006921  0  0.0782  0.060501  0  1.029019  0
H  H13  1  0.37098538  0.00776692  0.33859390  1  0  0.041342  0  0.96343  0  0  0.060911  0  1.029142  0  0  0.061401  0  1.029502  0  -0.007028  0  0.078196  0.06047  0  1.029024  0
H  H14  1  0.76786838  0.95667218  0.63375251  1  0  0.058315  0  0.947025  0  0  0.078581  0  1.007887  0  0  0.078976  0  1.009036  0  0.014325  0  0.085478  0.078197  0  1.007248  0
H  H15  1  0.23213768  0.04333141  0.36624873  1  0  0.058275  0  0.946991  0  0  0.078494  0  1.007927  0  0  0.078888  0  1.009075  0  0.01438  0  0.085448  0.078111  0  1.007288  0
H  H16  1  0.63123050  0.07382519  0.49588616  1  0  0.060132  0  0.95044  0  0  0.081595  0  1.00803  0  0  0.081771  0  1.009465  0  0.01026  0  0.088766  0.0814  0  1.007087  0
H  H17  1  0.36877230  0.92617736  0.50411667  1  0  0.060073  0  0.950461  0  0  0.08154  0  1.008058  0  0  0.081743  0  1.009454  0  0.010488  0  0.088758  0.081344  0  1.007117  0
H  H18  1  0.77729192  0.04651850  0.48451673  1  0  0.062408  0  0.955013  0  0  0.081089  0  1.018206  0  0  0.081548  0  1.019324  0  0.041909  0  0.089381  0.080729  0  1.017486  0
H  H19  1  0.22271091  0.95348612  0.51548359  1  0  0.062418  0  0.954989  0  0  0.081108  0  1.01817  0  0  0.081566  0  1.019294  0  0.041949  0  0.089394  0.080749  0  1.017448  0
H  H20  1  0.76091146  0.25595244  0.70790981  1  0  0.088747  0  0.938541  0  0  0.103558  0  1.000225  0  0  0.105765  0  0.998952  0  0.005195  0  0.091822  0.101998  0  1.001176  0
H  H21  1  0.23908671  0.74404804  0.29208849  1  0  0.088763  0  0.938571  0  0  0.103581  0  1.000252  0  0  0.105781  0  0.998976  0  0.005183  0  0.091826  0.10202  0  1.001201  0
H  H22  1  0.90342031  0.21499656  0.70683827  1  0  0.088782  0  0.945107  0  0  0.10488  0  1.006656  0  0  0.106279  0  1.007238  0  0.033486  0  0.093724  0.103885  0  1.006348  0
H  H23  1  0.09658067  0.78500806  0.29316417  1  0  0.088789  0  0.945074  0  0  0.104912  0  1.006613  0  0  0.106305  0  1.007189  0  0.033528  0  0.093716  0.103913  0  1.006305  0
H  H24  1  0.43292505  0.77164219  0.83020422  1  0  0.09317  0  0.932101  0  0  0.108694  0  0.991166  0  0  0.110731  0  0.990416  0  0.053551  0  0.09451  0.107167  0  0.991891  0
H  H25  1  0.56707964  0.22836451  0.16979545  1  0  0.093214  0  0.932134  0  0  0.108747  0  0.991168  0  0  0.110783  0  0.990417  0  0.053589  0  0.094551  0.10722  0  0.991894  0
H  H26  1  0.28124852  0.78903682  0.84912959  1  0  0.093412  0  0.944087  0  0  0.10583  0  1.008669  0  0  0.107459  0  1.009437  0  0.028521  0  0.093927  0.104566  0  1.008367  0
H  H27  1  0.71875844  0.21096470  0.15087269  1  0  0.093417  0  0.94409  0  0  0.10583  0  1.008663  0  0  0.107455  0  1.009435  0  0.028583  0  0.093963  0.104565  0  1.008361  0
H  H28  1  0.43867843  0.88058977  0.68953641  1  0  0.063361  0  0.948196  0  0  0.084941  0  1.006139  0  0  0.084957  0  1.00751  0  0.025059  0  0.092254  0.084809  0  1.005358  0
H  H29  1  0.56132165  0.11941694  0.31046180  1  0  0.063274  0  0.948193  0  0  0.084856  0  1.006164  0  0  0.084873  0  1.007532  0  0.025221  0  0.092175  0.084724  0  1.005386  0
H  H30  1  0.28593558  0.89233251  0.70348601  1  0  0.071378  0  0.945576  0  0  0.086758  0  1.010879  0  0  0.087472  0  1.012328  0  0.042699  0  0.095411  0.086146  0  1.009978  0
H  H31  1  0.71406587  0.10767315  0.29652321  1  0  0.071395  0  0.945502  0  0  0.086763  0  1.010847  0  0  0.08747  0  1.012306  0  0.042727  0  0.09541  0.086152  0  1.009946  0
H  H32  1  0.56475849  0.04544645  0.91013736  1  0  0.056203  0  0.94372  0  0  0.076631  0  1.003971  0  0  0.076843  0  1.005459  0  0.022315  0  0.083378  0.076257  0  1.003323  0
H  H33  1  0.43524668  0.95456129  0.08986033  1  0  0.056249  0  0.943623  0  0  0.076659  0  1.003894  0  0  0.076873  0  1.005378  0  0.022331  0  0.083366  0.076285  0  1.003243  0
H  H34  1  0.41001170  0.05154147  0.92626366  1  0  0.054627  0  0.95184  0  0  0.072315  0  1.01848  0  0  0.072415  0  1.020598  0  0.026145  0  0.082641  0.072084  0  1.017321  0
H  H35  1  0.58999906  0.94847042  0.07374016  1  0  0.054698  0  0.951737  0  0  0.072414  0  1.01834  0  0  0.072514  0  1.020459  0  0.026138  0  0.08267  0.072163  0  1.017203  0
H  H36  1  0.56458532  0.14962013  0.76763581  1  0  0.058612  0  0.945758  0  0  0.079108  0  1.005123  0  0  0.079158  0  1.006216  0  0.011913  0  0.08838  0.078878  0  1.004646  0
H  H37  1  0.43541147  0.85038138  0.23236104  1  0  0.058651  0  0.945621  0  0  0.07915  0  1.004958  0  0  0.079198  0  1.006051  0  0.011914  0  0.088413  0.078925  0  1.004477  0
H  H38  1  0.39942526  0.13775285  0.76520395  1  0  0.06773  0  0.953597  0  0  0.083206  0  1.020455  0  0  0.083438  0  1.022535  0  0.022668  0  0.090236  0.082937  0  1.019145  0
H  H39  1  0.60057433  0.86225074  0.23479477  1  0  0.067772  0  0.95354  0  0  0.083175  0  1.020478  0  0  0.083412  0  1.02254  0  0.022717  0  0.090224  0.082905  0  1.019168  0
H  H40  1  0.49401504  0.30412105  0.98435019  1  0  0.104014  0  0.923858  0  0  0.118069  0  0.985179  0  0  0.119913  0  0.985113  0  0.066067  0  0.102908  0.116673  0  0.985368  0
H  H41  1  0.50598736  0.69588669  0.01564869  1  0  0.103998  0  0.923857  0  0  0.118072  0  0.985195  0  0  0.119939  0  0.985105  0  0.065957  0  0.102924  0.116678  0  0.985385  0
H  H42  1  0.66332498  0.32221827  0.99010557  1  0  0.104978  0  0.925492  0  0  0.1203  0  0.980833  0  0  0.122084  0  0.980984  0  0.052767  0  0.101708  0.119014  0  0.980827  0
H  H43  1  0.33668157  0.67778843  0.00989197  1  0  0.105017  0  0.925448  0  0  0.120367  0  0.980793  0  0  0.122152  0  0.980948  0  0.053064  0  0.101708  0.119082  0  0.980788  0
H  H44  1  0.00842442  0.91499607  0.54420674  1  0  0.085028  0  0.951886  0  0  0.092302  0  1.018474  0  0  0.095258  0  1.015097  0  0.093227  0  0.125483  0.090107  0  1.020947  0
H  H45  1  0.99157362  0.08499196  0.45579306  1  0  0.085078  0  0.951964  0  0  0.092349  0  1.018552  0  0  0.095301  0  1.015175  0  0.093457  0  0.125546  0.090158  0  1.021016  0
H  H46  1  0.13192387  0.17705551  0.65223549  1  0  0.129788  0  0.934691  0  0  0.139706  0  0.991144  0  0  0.143862  0  0.988861  0  0.117199  0  0.119442  0.136619  0  0.993073  0
H  H47  1  0.86806494  0.82293459  0.34775731  1  0  0.129782  0  0.934739  0  0  0.139709  0  0.991182  0  0  0.143865  0  0.988896  0  0.11716  0  0.119435  0.13665  0  0.99308  0
H  H48  1  0.22869011  0.29374821  0.87908131  1  0  0.108166  0  0.947422  0  0  0.119189  0  1.00589  0  0  0.122247  0  1.00392  0  0.116123  0  0.109909  0.116956  0  1.007328  0
H  H49  1  0.77130245  0.70624604  0.12091655  1  0  0.108147  0  0.947503  0  0  0.119157  0  1.005967  0  0  0.122215  0  1.003998  0  0.116041  0  0.109886  0.116927  0  1.0074  0
H  H50  1  0.26855228  0.27223765  0.07046407  1  0  0.108284  0  0.963452  0  0  0.115771  0  1.029477  0  0  0.119897  0  1.026397  0  0.140283  0  0.104403  0.112807  0  1.031734  0
H  H51  1  0.73144817  0.72775971  0.92953673  1  0  0.108262  0  0.963601  0  0  0.115797  0  1.029571  0  0  0.119925  0  1.026487  0  0.14026  0  0.104395  0.112833  0  1.031829  0
H  H52  1  0.24762764  0.12488409  0.17548151  1  0  0.114279  0  0.93636  0  0  0.126679  0  0.992593  0  0  0.129395  0  0.992085  0  0.111841  0  0.111211  0.124721  0  0.993031  0
H  H53  1  0.75237373  0.87511328  0.82451543  1  0  0.114255  0  0.936286  0  0  0.126651  0  0.992533  0  0  0.129369  0  0.992023  0  0.111754  0  0.111202  0.124689  0  0.992977  0
H  H54  1  0.15882570  0.88693178  0.16477106  1  0  0.093949  0  0.964909  0  0  0.104278  0  1.031243  0  0  0.10665  0  1.030118  0  0.056782  0  0.107777  0.102566  0  1.032069  0
H  H55  1  0.84117379  0.11306143  0.83522825  1  0  0.09395  0  0.964898  0  0  0.104266  0  1.031244  0  0  0.10664  0  1.030117  0  0.05678  0  0.107786  0.102555  0  1.03207  0
H  H56  1  0.01617759  0.62914762  0.03868023  1  0  0.102577  0  0.942088  0  0  0.115135  0  0.996587  0  0  0.118157  0  0.995854  0  0.066925  0  0.109264  0.112945  0  0.997215  0
H  H57  1  0.98381912  0.37084559  0.96132106  1  0  0.102605  0  0.942139  0  0  0.115159  0  0.996622  0  0  0.118183  0  0.995893  0  0.066901  0  0.109266  0.112968  0  0.997252  0
H  H58  1  0.91578089  0.53535405  0.81433757  1  0  0.084501  0  0.954302  0  0  0.092301  0  1.016624  0  0  0.095233  0  1.01381  0  0.115358  0  0.1221  0.090196  0  1.018509  0
H  H59  1  0.08420842  0.46463916  0.18566427  1  0  0.084516  0  0.954362  0  0  0.092284  0  1.016716  0  0  0.095216  0  1.013902  0  0.115472  0  0.122122  0.09018  0  1.018602  0
C  C60  1  0.68695322  0.68989337  0.55295626  1  0  0.691257  0  3.860752  0  0  0.651679  0  4.155222  0  0  0.684849  0  4.148174  0  1.521931  0  0.183616  0.629381  0  4.158775  0
C  C61  1  0.31304819  0.31010814  0.44704602  1  0  0.691419  0  3.86047  0  0  0.651814  0  4.154942  0  0  0.684984  0  4.147891  0  1.521991  0  0.183689  0.629515  0  4.158496  0
C  C62  1  0.55484605  0.70381032  0.52676057  1  0  -0.264841  0  3.671871  0  0  -0.300766  0  3.919636  0  0  -0.307118  0  3.927968  0  -0.026518  0  -0.165417  -0.296496  0  3.913979  0
C  C63  1  0.44515813  0.29619120  0.47324132  1  0  -0.264916  0  3.671796  0  0  -0.300729  0  3.919493  0  0  -0.307076  0  3.92781  0  -0.026497  0  -0.165405  -0.296462  0  3.913841  0
C  C64  1  0.57268027  0.81850732  0.48865859  1  0  -0.08992  0  3.713797  0  0  -0.133338  0  3.978763  0  0  -0.133511  0  3.99234  0  -0.022321  0  -0.172172  -0.133082  0  3.969297  0
C  C65  1  0.42732295  0.18149004  0.51134101  1  0  -0.090042  0  3.714081  0  0  -0.133465  0  3.979017  0  0  -0.133642  0  3.992593  0  -0.022359  0  -0.172234  -0.13321  0  3.969551  0
C  C66  1  0.67520567  0.96211338  0.59082369  1  0  -0.108935  0  3.700785  0  0  -0.149991  0  3.967362  0  0  -0.151065  0  3.981952  0  -0.020951  0  -0.168982  -0.148978  0  3.957135  0
C  C67  1  0.32479759  0.03788813  0.40917807  1  0  -0.108748  0  3.700802  0  0  -0.149817  0  3.967409  0  0  -0.150891  0  3.982008  0  -0.020588  0  -0.168936  -0.148805  0  3.95718  0
C  C68  1  0.72216620  0.07334988  0.54771870  1  0  -0.081265  0  3.686823  0  0  -0.120442  0  3.945553  0  0  -0.120828  0  3.959994  0  -0.027868  0  -0.164321  -0.119973  0  3.935448  0
C  C69  1  0.27783569  0.92665268  0.45228241  1  0  -0.08118  0  3.686752  0  0  -0.120364  0  3.945518  0  0  -0.120772  0  3.959947  0  -0.028039  0  -0.164303  -0.119899  0  3.935411  0
C  C70  1  0.81797856  0.21906787  0.65089709  1  0  -0.269686  0  3.678641  0  0  -0.311503  0  3.933493  0  0  -0.316779  0  3.940772  0  -0.017534  0  -0.170071  -0.307856  0  3.928422  0
C  C71  1  0.18202425  0.78093469  0.34910493  1  0  -0.269781  0  3.678595  0  0  -0.311636  0  3.933459  0  0  -0.316879  0  3.940705  0  -0.017732  0  -0.170071  -0.307976  0  3.928371  0
C  C72  1  0.88202052  0.32086601  0.60198103  1  0  0.754867  0  3.80955  0  0  0.716531  0  4.098707  0  0  0.75075  0  4.088354  0  1.585117  0  0.230255  0.693304  0  4.104803  0
C  C73  1  0.11797718  0.67913343  0.39801687  1  0  0.754863  0  3.809304  0  0  0.716564  0  4.098419  0  0  0.750772  0  4.088068  0  1.585121  0  0.230302  0.693333  0  4.104516  0
C  C74  1  0.25097939  0.64010060  0.67308745  1  0  0.737357  0  3.831212  0  0  0.698873  0  4.116262  0  0  0.732739  0  4.106953  0  1.574642  0  0.216243  0.675951  0  4.121519  0
C  C75  1  0.74902433  0.35989988  0.32691483  1  0  0.737458  0  3.831104  0  0  0.698917  0  4.116222  0  0  0.732784  0  4.106908  0  1.574872  0  0.216253  0.675993  0  4.121484  0
C  C76  1  0.33991318  0.77525790  0.78643307  1  0  -0.253294  0  3.657449  0  0  -0.290392  0  3.905678  0  0  -0.295671  0  3.912717  0  -0.047055  0  -0.161647  -0.286679  0  3.9007  0
C  C77  1  0.66009148  0.22474465  0.21356842  1  0  -0.253385  0  3.657599  0  0  -0.290443  0  3.9058  0  0  -0.295716  0  3.912833  0  -0.047417  0  -0.161695  -0.286729  0  3.900822  0
C  C78  1  0.38096182  0.89606342  0.75298258  1  0  -0.083206  0  3.667601  0  0  -0.123404  0  3.928436  0  0  -0.123827  0  3.942236  0  -0.013959  0  -0.161966  -0.122931  0  3.918812  0
C  C79  1  0.61903963  0.10394225  0.24701708  1  0  -0.083107  0  3.667597  0  0  -0.123343  0  3.928491  0  0  -0.123762  0  3.942292  0  -0.014003  0  -0.161909  -0.122868  0  3.91886  0
C  C80  1  0.46690997  0.03841637  0.86169144  1  0  -0.105199  0  3.688837  0  0  -0.144552  0  3.950902  0  0  -0.145418  0  3.965283  0  -0.04485  0  -0.167743  -0.143623  0  3.940833  0
C  C81  1  0.53309613  0.96159137  0.13831036  1  0  -0.105336  0  3.688801  0  0  -0.144653  0  3.950795  0  0  -0.145523  0  3.965175  0  -0.044633  0  -0.167773  -0.143712  0  3.940722  0
C  C82  1  0.49684787  0.15438676  0.82328461  1  0  -0.084369  0  3.687037  0  0  -0.126863  0  3.95057  0  0  -0.127289  0  3.965547  0  0.019756  0  -0.165027  -0.126443  0  3.940334  0
C  C83  1  0.50315266  0.84561890  0.17671094  1  0  -0.084422  0  3.686977  0  0  -0.126847  0  3.950533  0  0  -0.127274  0  3.965531  0  0.019544  0  -0.16503  -0.126429  0  3.940291  0
C  C84  1  0.56375512  0.29931914  0.93055527  1  0  -0.263782  0  3.678754  0  0  -0.301535  0  3.928082  0  0  -0.307821  0  3.937593  0  -0.0241  0  -0.158169  -0.297106  0  3.921485  0
C  C85  1  0.43625048  0.70068549  0.06944385  1  0  -0.263866  0  3.67869  0  0  -0.301779  0  3.928098  0  0  -0.308087  0  3.937613  0  -0.024409  0  -0.158211  -0.297353  0  3.921505  0
C  C86  1  0.59057787  0.41321392  0.89209397  1  0  0.695839  0  3.757057  0  0  0.652547  0  4.064663  0  0  0.684319  0  4.05606  0  1.49405  0  0.237398  0.630903  0  4.069931  0
C  C87  1  0.40941894  0.58678967  0.10790038  1  0  0.696037  0  3.756903  0  0  0.652957  0  4.064233  0  0  0.684727  0  4.055635  0  1.494193  0  0.237605  0.631315  0  4.069504  0
C  C88  1  0.05318575  0.97070536  0.64229369  1  0  0.152923  0  3.708768  0  0  0.120637  0  3.972849  0  0  0.129151  0  3.987504  0  0.497002  0  0.063391  0.115238  0  3.962738  0
C  C89  1  0.94680911  0.02928785  0.35770575  1  0  0.152804  0  3.708893  0  0  0.120505  0  3.973001  0  0  0.129023  0  3.987651  0  0.496798  0  0.06329  0.115106  0  3.962898  0
C  C90  1  0.12103677  0.11668648  0.70313288  1  0  -0.120315  0  3.699833  0  0  -0.13351  0  3.956082  0  0  -0.140223  0  3.975206  0  0.02851  0  -0.0778  -0.129215  0  3.94322  0
C  C91  1  0.87895765  0.88330985  0.29686672  1  0  -0.120208  0  3.699894  0  0  -0.133406  0  3.956147  0  0  -0.140117  0  3.975273  0  0.028259  0  -0.077783  -0.129135  0  3.943276  0
C  C92  1  0.17571566  0.18098048  0.82781222  1  0  -0.04149  0  3.674178  0  0  -0.065481  0  3.921409  0  0  -0.063144  0  3.939674  0  -0.065954  0  -0.060736  -0.066597  0  3.908844  0
C  C93  1  0.82427225  0.81901170  0.17218748  1  0  -0.041498  0  3.674316  0  0  -0.065512  0  3.921499  0  0  -0.063177  0  3.939762  0  -0.065953  0  -0.0607  -0.066628  0  3.908949  0
C  C94  1  0.16332913  0.09933440  0.89048200  1  0  0.020511  0  3.782611  0  0  0.038194  0  4.011192  0  0  0.035034  0  4.037299  0  -0.054489  0  -0.002998  0.040038  0  3.993934  0
C  C95  1  0.83666384  0.90065466  0.10951582  1  0  0.020293  0  3.782636  0  0  0.03812  0  4.011037  0  0  0.034962  0  4.037137  0  -0.054082  0  -0.003056  0.03995  0  3.993803  0
C  C96  1  0.21905135  0.15944398  0.01941854  1  0  -0.101618  0  3.741227  0  0  -0.125882  0  3.999654  0  0  -0.129127  0  4.021973  0  -0.078222  0  -0.084417  -0.123663  0  3.985023  0
C  C97  1  0.78094809  0.84054508  0.98057940  1  0  -0.101557  0  3.741272  0  0  -0.12591  0  3.999668  0  0  -0.129156  0  4.021987  0  -0.078697  0  -0.084402  -0.123686  0  3.985038  0
C  C98  1  0.20626294  0.07745543  0.07703405  1  0  -0.101501  0  3.728269  0  0  -0.124237  0  3.984731  0  0  -0.126908  0  4.006823  0  -0.054379  0  -0.083335  -0.122473  0  3.970166  0
C  C99  1  0.79373701  0.92253882  0.92296645  1  0  -0.101453  0  3.728061  0  0  -0.124209  0  3.984522  0  0  -0.126883  0  4.006615  0  -0.054162  0  -0.083333  -0.122441  0  3.969954  0
C  C100  1  0.13414641  0.92925652  0.01005852  1  0  0.017816  0  3.801216  0  0  0.032979  0  4.034733  0  0  0.0306  0  4.059233  0  0.001771  0  -0.004881  0.034392  0  4.018734  0
C  C101  1  0.86585725  0.07073772  0.98994251  1  0  0.017789  0  3.801155  0  0  0.03303  0  4.034571  0  0  0.030655  0  4.05907  0  0.001651  0  -0.004801  0.034443  0  4.018569  0
C  C102  1  0.11469870  0.84130890  0.06679595  1  0  -0.057855  0  3.713831  0  0  -0.083023  0  3.963119  0  0  -0.081503  0  3.983037  0  -0.027696  0  -0.067756  -0.083941  0  3.94997  0
C  C103  1  0.88530587  0.15868535  0.93320283  1  0  -0.057827  0  3.713819  0  0  -0.083017  0  3.963107  0  0  -0.081496  0  3.983026  0  -0.027561  0  -0.067765  -0.083933  0  3.949958  0
C  C104  1  0.03724834  0.69975043  0.99762074  1  0  -0.111919  0  3.737987  0  0  -0.124805  0  3.991382  0  0  -0.131194  0  4.012264  0  -0.019946  0  -0.081263  -0.120486  0  3.977137  0
C  C105  1  0.96274607  0.30024382  0.00237739  1  0  -0.11199  0  3.738023  0  0  -0.124861  0  3.991391  0  0  -0.131257  0  4.012279  0  -0.019685  0  -0.081288  -0.120543  0  3.977149  0
C  C106  1  0.98051284  0.64630044  0.87160938  1  0  0.160581  0  3.687367  0  0  0.1309  0  3.94545  0  0  0.13901  0  3.96017  0  0.559042  0  0.066895  0.125675  0  3.934978  0
C  C107  1  0.01948066  0.35369589  0.12839327  1  0  0.160616  0  3.687333  0  0  0.130973  0  3.945393  0  0  0.139085  0  3.960112  0  0.557492  0  0.066868  0.125746  0  3.934924  0
C  C108  1  0.07483122  0.86542642  0.88181166  1  0  0.133483  0  3.754339  0  0  0.130408  0  3.993718  0  0  0.13433  0  4.01479  0  0.437876  0  0.123724  0.12765  0  3.979601  0
C  C109  1  0.92516869  0.13456368  0.11819067  1  0  0.133583  0  3.754188  0  0  0.130482  0  3.99358  0  0  0.134403  0  4.014651  0  0.437544  0  0.123696  0.127726  0  3.979461  0
C  C110  1  0.09249368  0.95236530  0.82092557  1  0  0.139268  0  3.748215  0  0  0.136054  0  3.985349  0  0  0.140196  0  4.006538  0  0.556088  0  0.126079  0.13341  0  3.970903  0
C  C111  1  0.90750444  0.04763103  0.17907853  1  0  0.139432  0  3.748161  0  0  0.136172  0  3.985287  0  0  0.140315  0  4.006474  0  0.556526  0  0.12613  0.133532  0  3.970842  0
N  N112  1  0.03921982  0.89045098  0.69843617  1  0  -0.423211  0  3.228735  0  0  -0.372563  0  3.497136  0  0  -0.386574  0  3.513599  0  -1.278779  0  -0.363498  -0.362834  0  3.485647  0
N  N113  1  0.96077598  0.10954431  0.30156488  1  0  -0.423249  0  3.228766  0  0  -0.372593  0  3.49718  0  0  -0.386603  0  3.51364  0  -1.278803  0  -0.363495  -0.362863  0  3.48569  0
N  N114  1  0.99968894  0.72547654  0.81448900  1  0  -0.403919  0  3.194637  0  0  -0.355088  0  3.461016  0  0  -0.368524  0  3.477728  0  -1.214861  0  -0.347064  -0.345576  0  3.449368  0
N  N115  1  0.00030499  0.27451667  0.18551190  1  0  -0.404043  0  3.194616  0  0  -0.355229  0  3.46101  0  0  -0.368666  0  3.477718  0  -1.213477  0  -0.347063  -0.345716  0  3.449363  0
O  O116  1  0.71092912  0.64291720  0.62864086  1  0  -0.7253  0  1.892885  0  0  -0.678957  0  2.128394  0  0  -0.702742  0  2.117617  0  -1.203319  0  -0.411824  -0.66207  0  2.1354  0
O  O117  1  0.28906760  0.35707809  0.37135713  1  0  -0.725358  0  1.892735  0  0  -0.679008  0  2.128253  0  0  -0.702793  0  2.117474  0  -1.203265  0  -0.411842  -0.66212  0  2.13526  0
O  O118  1  0.77201064  0.72287165  0.49794244  1  0  -0.700594  0  1.964192  0  0  -0.650345  0  2.204495  0  0  -0.675412  0  2.196133  0  -1.196752  0  -0.389924  -0.632703  0  2.209619  0
O  O119  1  0.22798931  0.27712259  0.50205727  1  0  -0.70069  0  1.964145  0  0  -0.650447  0  2.204476  0  0  -0.675512  0  2.19611  0  -1.196851  0  -0.390004  -0.632807  0  2.209603  0
O  O120  1  0.97201224  0.30458184  0.55395718  1  0  -0.733674  0  2.009535  0  0  -0.680122  0  2.261177  0  0  -0.70561  0  2.250638  0  -1.205764  0  -0.396118  -0.661898  0  2.267664  0
O  O121  1  0.02798454  0.69541968  0.44604285  1  0  -0.733678  0  2.009386  0  0  -0.680141  0  2.261035  0  0  -0.70563  0  2.250496  0  -1.205758  0  -0.396133  -0.661917  0  2.267524  0
O  O122  1  0.84047372  0.41231414  0.61033346  1  0  -0.727005  0  1.976974  0  0  -0.67161  0  2.220214  0  0  -0.69635  0  2.208839  0  -1.20554  0  -0.391463  -0.653982  0  2.227494  0
O  O123  1  0.15951652  0.58767907  0.38965896  1  0  -0.726953  0  1.976823  0  0  -0.671584  0  2.220081  0  0  -0.696326  0  2.208715  0  -1.205469  0  -0.391498  -0.653957  0  2.227362  0
O  O124  1  0.12343084  0.60903291  0.62409891  1  0  -0.840541  0  2.141435  0  0  -0.775939  0  2.403766  0  0  -0.803145  0  2.393099  0  -1.235258  0  -0.441182  -0.756236  0  2.410113  0
O  O125  1  0.87657341  0.39097483  0.37590502  1  0  -0.840608  0  2.14167  0  0  -0.775976  0  2.403992  0  0  -0.803185  0  2.393332  0  -1.235328  0  -0.441198  -0.756268  0  2.410332  0
O  O126  1  0.30346444  0.56323983  0.62468282  1  0  -0.668816  0  1.931475  0  0  -0.619096  0  2.155943  0  0  -0.642776  0  2.146981  0  -1.187337  0  -0.361245  -0.602672  0  2.161819  0
O  O127  1  0.69653981  0.43676791  0.37531951  1  0  -0.66883  0  1.93127  0  0  -0.619093  0  2.155766  0  0  -0.642775  0  2.146803  0  -1.187411  0  -0.361233  -0.602669  0  2.161643  0
O  O128  1  0.47364729  0.39359217  0.81584267  1  0  -0.540601  0  2.02923  0  0  -0.49077  0  2.229178  0  0  -0.511165  0  2.215011  0  -1.122338  0  -0.322542  -0.476367  0  2.238581  0
O  O129  1  0.52634671  0.60640727  0.18414993  1  0  -0.540627  0  2.029161  0  0  -0.490867  0  2.229034  0  0  -0.511264  0  2.214872  0  -1.122266  0  -0.322552  -0.476465  0  2.238438  0
O  O130  1  0.70349151  0.51299354  0.92409984  1  0  -0.557621  0  1.933542  0  0  -0.525311  0  2.150524  0  0  -0.545312  0  2.141982  0  -1.165688  0  -0.284026  -0.511555  0  2.156048  0
O  O131  1  0.29651000  0.48701835  0.07589868  1  0  -0.557766  0  1.933355  0  0  -0.525536  0  2.150255  0  0  -0.545531  0  2.141704  0  -1.165716  0  -0.284208  -0.511781  0  2.155782  0
