# generated using pymatgen
data_ZnH16C15N3O8
_symmetry_space_group_name_H-M   'P 1'
_cell_length_a   10.57068304
_cell_length_b   10.93833974
_cell_length_c   11.81985478
_cell_angle_alpha   89.99806824
_cell_angle_beta   90.00921835
_cell_angle_gamma   89.80375377
_symmetry_Int_Tables_number   1
_chemical_formula_structural   ZnH16C15N3O8
_chemical_formula_sum   'Zn2 H32 C30 N6 O16'
_cell_volume   1366.67121303
_cell_formula_units_Z   2
loop_
 _symmetry_equiv_pos_site_id
 _symmetry_equiv_pos_as_xyz
  1  'x, y, z'
loop_
 _atom_site_type_symbol
 _atom_site_label
 _atom_site_symmetry_multiplicity
 _atom_site_fract_x
 _atom_site_fract_y
 _atom_site_fract_z
 _atom_site_occupancy
 _atom_site_pbe_bader_charge
 _atom_site_pbe_bader_spin_density
 _atom_site_pbe_cm5_charge
 _atom_site_pbe_ddec_charge
 _atom_site_pbe_ddec_spin_density
 _atom_site_pbe_ddec_sum_bond_order
 _atom_site_pbe_magmom
Zn  Zn0  1  0.62926645  0.49859099  0.49451826  1  1.320007  0  0.700209  0.870408  0  2.446894  0
Zn  Zn1  1  0.37039358  0.50124866  0.49480610  1  1.341586  0  0.699956  0.870292  0  2.447441  0
H  H2  1  0.70473836  0.89266219  0.50076136  1  0.088372  0  0.129036  0.106849  0  0.996377  0
H  H3  1  0.30319285  0.90506529  0.48396899  1  0.129839  0  0.130896  0.107517  0  1.023626  0
H  H4  1  0.69597957  0.09497294  0.48015446  1  0.135131  0  0.130924  0.10747  0  1.024903  0
H  H5  1  0.29491981  0.10735398  0.50525442  1  0.127226  0  0.129302  0.107456  0  0.994132  0
H  H6  1  0.83680714  0.94454324  0.16062288  1  0.018416  0  0.082807  0.107067  0  1.02073  0
H  H7  1  0.82891176  0.78369062  0.18086575  1  -0.022797  0  0.080933  0.104284  0  1.010075  0
H  H8  1  0.78849643  0.84838332  0.04786120  1  0.047223  0  0.095347  0.129497  0  0.986439  0
H  H9  1  0.59246796  0.79308770  0.14735032  1  0.050995  0  0.089365  0.078316  0  0.993082  0
H  H10  1  0.60111286  0.95235664  0.13413721  1  0.026117  0  0.089374  0.076969  0  1.008185  0
H  H11  1  0.70999130  0.94254893  0.33680147  1  -0.0027  0  0.085433  0.07907  0  1.05915  0
H  H12  1  0.65618812  0.79206798  0.34040994  1  0.063503  0  0.091904  0.101926  0  1.02775  0
H  H13  1  0.22027813  0.81204467  0.12792062  1  0.03266  0  0.090315  0.121689  0  0.99196  0
H  H14  1  0.25681602  0.67243694  0.19775332  1  0.043104  0  0.082967  0.117137  0  1.023451  0
H  H15  1  0.10710079  0.74365728  0.21849385  1  -0.008025  0  0.081472  0.104476  0  1.014995  0
H  H16  1  0.24739288  0.77835227  0.38517872  1  0.041062  0  0.082473  0.079842  0  1.033578  0
H  H17  1  0.20850353  0.91747296  0.31728037  1  0.001803  0  0.08335  0.071191  0  1.028694  0
H  H18  1  0.41368515  0.89094960  0.20262653  1  0.060264  0  0.097003  0.095751  0  1.028201  0
H  H19  1  0.44533645  0.76062770  0.28077021  1  0.031472  0  0.093597  0.096516  0  1.004652  0
H  H20  1  0.77117455  0.18529583  0.12276420  1  0.025478  0  0.090477  0.121963  0  0.99228  0
H  H21  1  0.73612120  0.32581602  0.19160362  1  0.05113  0  0.082797  0.116529  0  1.023616  0
H  H22  1  0.88615402  0.25486646  0.21077821  1  -0.002422  0  0.082183  0.105959  0  1.014327  0
H  H23  1  0.74924723  0.22230721  0.38005601  1  -0.004117  0  0.082833  0.080988  0  1.031625  0
H  H24  1  0.78675658  0.08233302  0.31306319  1  -0.008757  0  0.083158  0.070491  0  1.028841  0
H  H25  1  0.57911798  0.10843463  0.20110541  1  0.047452  0  0.097237  0.096363  0  1.027938  0
H  H26  1  0.54909293  0.23890639  0.27952492  1  0.033011  0  0.093576  0.096601  0  1.003065  0
H  H27  1  0.15489542  0.05482960  0.16639638  1  0.007991  0  0.082621  0.106772  0  1.01992  0
H  H28  1  0.16313275  0.21570245  0.18656102  1  0.017126  0  0.080901  0.10418  0  1.011209  0
H  H29  1  0.20081390  0.15105955  0.05289083  1  0.040851  0  0.0955  0.129783  0  0.986031  0
H  H30  1  0.39890507  0.20628126  0.14893838  1  0.018243  0  0.089888  0.079222  0  0.991619  0
H  H31  1  0.38993778  0.04701983  0.13602759  1  0.012816  0  0.089329  0.076554  0  1.008151  0
H  H32  1  0.28576390  0.05712562  0.34076527  1  -0.003697  0  0.08575  0.080178  0  1.05807  0
H  H33  1  0.33970483  0.20756839  0.34305876  1  0.071798  0  0.091594  0.101333  0  1.030059  0
C  C34  1  0.50003052  0.50005227  0.71149907  1  1.679715  0  0.231699  0.666653  0  4.223063  0
C  C35  1  0.49981243  0.50083705  0.04999264  1  -0.322948  0  0.00054  0.047261  0  4.234261  0
C  C36  1  0.50017463  0.73804104  0.49252067  1  1.551283  0  0.222305  0.584483  0  4.133049  0
C  C37  1  0.49918498  0.26178647  0.49227058  1  1.551887  0  0.221958  0.584328  0  4.131446  0
C  C38  1  0.06439433  0.50100703  0.50402058  1  0.931899  0  0.313517  0.306601  0  3.893785  0
C  C39  1  0.93520212  0.49967268  0.50401724  1  1.089821  0  0.313416  0.306414  0  3.89244  0
C  C40  1  0.49995192  0.50026383  0.27471621  1  1.585873  0  0.221813  0.648032  0  4.266633  0
C  C41  1  0.50012254  0.50046361  0.83297777  1  0.107964  0  0.011429  -0.094182  0  3.824683  0
C  C42  1  0.62460861  0.92901978  0.54817036  1  0.244008  0  0.008632  -0.055329  0  3.672949  0
C  C43  1  0.37886094  0.92983753  0.54230256  1  0.150089  0  0.005594  -0.063739  0  3.7112  0
C  C44  1  0.62177146  0.07005486  0.53987594  1  0.158319  0  0.004349  -0.066539  0  3.715063  0
C  C45  1  0.37634892  0.07082951  0.55079099  1  0.19716  0  0.008388  -0.055853  0  3.673213  0
C  C46  1  0.49995532  0.50074812  0.93620829  1  -0.126448  0  -0.002887  0.023867  0  4.215763  0
C  C47  1  0.50534241  0.92533430  0.36100585  1  -0.007108  0  0.009532  0.078991  0  3.478555  0
C  C48  1  0.49094570  0.07429320  0.36109454  1  0.034343  0  0.009617  0.078567  0  3.477168  0
C  C49  1  0.50249850  0.87910009  0.49225117  1  0.081182  0  -0.002287  -0.066523  0  3.668239  0
C  C50  1  0.49693027  0.12070181  0.49224482  1  0.081261  0  -0.001494  -0.065296  0  3.667555  0
C  C51  1  0.49970525  0.50064611  0.15337881  1  0.235596  0  -0.016618  -0.166508  0  3.900033  0
C  C52  1  0.63374912  0.88332622  0.30715729  1  -0.036407  0  -0.176532  -0.224235  0  3.871837  0
C  C53  1  0.64437750  0.87370980  0.17735362  1  -0.049398  0  -0.165876  -0.087292  0  3.936616  0
C  C54  1  0.78226474  0.86208868  0.13974593  1  -0.025099  0  -0.24206  -0.350732  0  3.95933  0
C  C55  1  0.40523838  0.85328968  0.28816335  1  -0.06223  0  -0.165247  -0.197556  0  3.808126  0
C  C56  1  0.26267367  0.83224755  0.30815370  1  -0.041409  0  -0.178353  -0.112469  0  3.952584  0
C  C57  1  0.20873380  0.76108710  0.20744746  1  -0.039554  0  -0.245715  -0.352147  0  3.953969  0
C  C58  1  0.58942059  0.14627386  0.28641204  1  -0.069846  0  -0.165491  -0.198689  0  3.806963  0
C  C59  1  0.73239901  0.16746173  0.30385879  1  0.038528  0  -0.178016  -0.11194  0  3.951167  0
C  C60  1  0.78434155  0.23726153  0.20152820  1  -0.051914  0  -0.245608  -0.352439  0  3.951937  0
C  C61  1  0.36126012  0.11627290  0.30953629  1  -0.063364  0  -0.176706  -0.225196  0  3.871539  0
C  C62  1  0.34763843  0.12570812  0.17994950  1  0.016035  0  -0.165715  -0.086514  0  3.935655  0
C  C63  1  0.20892745  0.13733923  0.14466442  1  -0.056252  0  -0.242305  -0.351604  0  3.959951  0
N  N64  1  0.17400809  0.50203596  0.49950628  1  -0.961697  0  -0.171714  -0.131131  0  2.956746  0
N  N65  1  0.82558805  0.49835948  0.49947135  1  -0.965034  0  -0.171279  -0.130608  0  2.956092  0
N  N66  1  0.65675215  0.88047649  0.66815622  1  0.483796  0  0.048364  0.509479  0  4.170915  0
N  N67  1  0.33183389  0.86602062  0.65025558  1  0.503595  0  0.047058  0.518985  0  4.194962  0
N  N68  1  0.67151696  0.13351932  0.64702932  1  0.47641  0  0.045874  0.51719  0  4.196143  0
N  N69  1  0.34796117  0.11942753  0.67156014  1  0.482646  0  0.049198  0.510622  0  4.168706  0
O  O70  1  0.60793138  0.50184463  0.66372758  1  -1.1205  0  -0.300815  -0.523197  0  2.282306  0
O  O71  1  0.39200403  0.49793268  0.66395379  1  -1.11899  0  -0.300541  -0.52267  0  2.28315  0
O  O72  1  0.60596202  0.68375930  0.48676961  1  -1.160423  0  -0.304096  -0.53398  0  2.423337  0
O  O73  1  0.39251165  0.68696692  0.49430734  1  -1.166173  0  -0.306384  -0.539762  0  2.415923  0
O  O74  1  0.60682113  0.31289963  0.49321320  1  -1.165314  0  -0.306003  -0.539609  0  2.415888  0
O  O75  1  0.39330581  0.31604928  0.48725668  1  -1.162004  0  -0.303999  -0.534052  0  2.422729  0
O  O76  1  0.60808430  0.49593444  0.32248533  1  -1.136536  0  -0.306003  -0.532112  0  2.276045  0
O  O77  1  0.39197158  0.50427952  0.32284421  1  -1.138608  0  -0.306289  -0.534112  0  2.277573  0
O  O78  1  0.61273405  0.93380034  0.75080686  1  -0.414292  0  -0.110958  -0.295666  0  2.022536  0
O  O79  1  0.72941407  0.79198454  0.67118227  1  -0.443361  0  -0.13675  -0.31929  0  1.91978  0
O  O80  1  0.40308921  0.79775959  0.70274593  1  -0.437213  0  -0.105169  -0.286943  0  2.014656  0
O  O81  1  0.21904904  0.88553879  0.67195932  1  -0.451661  0  -0.147216  -0.336645  0  1.879943  0
O  O82  1  0.60161067  0.20138891  0.70135020  1  -0.434455  0  -0.104346  -0.285416  0  2.013898  0
O  O83  1  0.78487456  0.11401479  0.66627122  1  -0.435838  0  -0.147261  -0.336173  0  1.879939  0
O  O84  1  0.39293774  0.06503630  0.75319846  1  -0.402501  0  -0.112043  -0.297504  0  2.020638  0
O  O85  1  0.27710556  0.20919572  0.67620046  1  -0.446991  0  -0.136013  -0.31846  0  1.921714  0
