# generated using pymatgen
data_Cu3P2H12(CO2)6
_symmetry_space_group_name_H-M   'P 1'
_cell_length_a   5.01070235
_cell_length_b   12.24481642
_cell_length_c   16.12993666
_cell_angle_alpha   89.99920009
_cell_angle_beta   92.58571927
_cell_angle_gamma   89.99992534
_symmetry_Int_Tables_number   1
_chemical_formula_structural   Cu3P2H12(CO2)6
_chemical_formula_sum   'Cu6 P4 H24 C12 O24'
_cell_volume   988.64674522
_cell_formula_units_Z   2
loop_
 _symmetry_equiv_pos_site_id
 _symmetry_equiv_pos_as_xyz
  1  'x, y, z'
loop_
 _atom_site_type_symbol
 _atom_site_label
 _atom_site_symmetry_multiplicity
 _atom_site_fract_x
 _atom_site_fract_y
 _atom_site_fract_z
 _atom_site_occupancy
 _atom_site_pbe_bader_charge
 _atom_site_pbe_bader_spin_density
 _atom_site_pbe_cm5_charge
 _atom_site_pbe_ddec_charge
 _atom_site_pbe_ddec_spin_density
 _atom_site_pbe_ddec_sum_bond_order
 _atom_site_pbe_magmom
Cu  Cu0  1  0.00000946  0.00000329  0.99999860  1  1.138936  0.607364  0.747865  1.027146  0.757149  2.056387  0.609
Cu  Cu1  1  0.50000321  0.49999552  0.49999979  1  1.138927  0.607366  0.74792  1.02718  0.757153  2.056405  0.609
Cu  Cu2  1  0.49880499  0.86365736  0.11286908  1  1.122684  0.601492  0.72721  0.975817  0.750543  2.066292  0.602
Cu  Cu3  1  0.00119464  0.36366307  0.38713042  1  1.122765  0.601496  0.727243  0.975848  0.750558  2.066361  0.602
Cu  Cu4  1  0.50119743  0.13634512  0.88713044  1  1.122718  0.60148  0.727177  0.975749  0.750521  2.066342  0.602
Cu  Cu5  1  0.99880381  0.63633614  0.61287029  1  1.122782  0.601492  0.72721  0.975809  0.750551  2.066322  0.602
P  P6  1  0.51141767  0.10691788  0.07611336  1  3.319158  0.007375  0.316768  1.302133  0.013061  5.327  0.003
P  P7  1  0.98859417  0.60691559  0.42388685  1  3.31919  0.007375  0.316699  1.302009  0.013063  5.326994  0.003
P  P8  1  0.48858871  0.89308786  0.92388435  1  3.319253  0.007375  0.316758  1.302111  0.013063  5.327016  0.003
P  P9  1  0.01141222  0.39308117  0.57611148  1  3.319247  0.007374  0.316734  1.302089  0.013062  5.326921  0.003
H  H10  1  0.56529392  0.29940821  0.08570274  1  0.0773  0.003084  0.112942  0.157006  0.001386  0.958464  0.002
H  H11  1  0.93472106  0.79940694  0.41429604  1  0.077274  0.003084  0.112936  0.156996  0.001386  0.958463  0.002
H  H12  1  0.43472255  0.70059672  0.91430068  1  0.077473  0.003083  0.112947  0.157022  0.001386  0.958468  0.002
H  H13  1  0.06528938  0.20058819  0.58570544  1  0.07713  0.003084  0.112966  0.157067  0.001386  0.958447  0.002
H  H14  1  0.82414872  0.22708236  0.13981836  1  0.076851  0.00299  0.113218  0.161788  0.001596  0.974008  0.002
H  H15  1  0.67587059  0.72707976  0.36018187  1  0.076965  0.00299  0.113232  0.161819  0.001596  0.973939  0.002
H  H16  1  0.17586377  0.77292339  0.86018562  1  0.076886  0.002991  0.113238  0.161893  0.001596  0.973909  0.002
H  H17  1  0.32412593  0.27291701  0.63982316  1  0.076805  0.002991  0.113236  0.161816  0.001596  0.974018  0.002
H  H18  1  0.29462401  0.30129701  0.20401316  1  0.093862  0.000386  0.112418  0.139172  7.6e-05  0.969055  0.0
H  H19  1  0.20537579  0.80130698  0.29598082  1  0.093937  0.000386  0.112419  0.139136  7.6e-05  0.969147  0.0
H  H20  1  0.70536641  0.69869975  0.79598559  1  0.093862  0.000386  0.112419  0.139184  7.6e-05  0.969077  0.0
H  H21  1  0.79461257  0.19869224  0.70401419  1  0.094103  0.000386  0.112394  0.139067  7.6e-05  0.969152  0.0
H  H22  1  0.37186550  0.16579453  0.22876770  1  0.061443  0.001622  0.107456  0.123462  0.00079  0.969875  0.001
H  H23  1  0.12816297  0.66580172  0.27123307  1  0.061417  0.001622  0.107434  0.123497  0.00079  0.969973  0.001
H  H24  1  0.62814288  0.83420387  0.77123003  1  0.061425  0.001622  0.107441  0.123478  0.00079  0.969859  0.001
H  H25  1  0.87182544  0.33419750  0.72876504  1  0.061038  0.001623  0.107446  0.123504  0.00079  0.96995  0.001
H  H26  1  0.20153835  0.71735879  0.11450219  1  0.6673  -0.000364  0.286471  0.387438  -8.9e-05  0.958094  -0.001
H  H27  1  0.29845987  0.21736436  0.38549517  1  0.667153  -0.000364  0.286491  0.387497  -8.9e-05  0.957999  -0.001
H  H28  1  0.79845211  0.28264042  0.88549904  1  0.667406  -0.000364  0.286483  0.387526  -8.9e-05  0.957975  -0.001
H  H29  1  0.70152465  0.78263567  0.61450910  1  0.667148  -0.000364  0.286456  0.387426  -8.9e-05  0.958101  -0.001
H  H30  1  0.49377896  0.66047902  0.12704974  1  0.595378  0.000229  0.326145  0.404636  0.000436  0.86812  0.0
H  H31  1  0.00622945  0.16048171  0.37294527  1  0.595358  0.00023  0.326133  0.404657  0.000437  0.868181  0.0
H  H32  1  0.50622343  0.33952510  0.87294854  1  0.595173  0.00023  0.326152  0.404682  0.000437  0.868157  0.0
H  H33  1  0.99377490  0.83951424  0.62705056  1  0.595322  0.00023  0.32615  0.404685  0.000437  0.868136  0.0
C  C34  1  0.60638638  0.23154563  0.12890675  1  -0.521809  0.027013  -0.159398  -0.393926  0.017057  3.846732  0.017
C  C35  1  0.89363088  0.73154761  0.37109155  1  -0.521746  0.027017  -0.159405  -0.39391  0.01706  3.846642  0.017
C  C36  1  0.39362209  0.76845848  0.87109657  1  -0.522094  0.027016  -0.159373  -0.393994  0.017058  3.846705  0.017
C  C37  1  0.10636557  0.26844997  0.62890913  1  -0.521473  0.027016  -0.159453  -0.394083  0.01706  3.846743  0.017
C  C38  1  0.46251000  0.24346427  0.21040384  1  -0.030636  0.009544  -0.153022  -0.243737  0.006631  3.90266  0.007
C  C39  1  0.03750811  0.74346873  0.28959472  1  -0.030747  0.009541  -0.153004  -0.243802  0.00663  3.90287  0.007
C  C40  1  0.53749244  0.75653658  0.78959693  1  -0.030637  0.009543  -0.153067  -0.243856  0.00663  3.902625  0.007
C  C41  1  0.96248235  0.25652885  0.71040589  1  -0.030567  0.00954  -0.153011  -0.243658  0.006629  3.90274  0.007
C  C42  1  0.63531268  0.28040082  0.28441006  1  1.523472  -0.00201  0.209328  0.621007  -0.003477  4.142002  -0.004
C  C43  1  0.86469439  0.78039743  0.21558821  1  1.523592  -0.002009  0.209412  0.621209  -0.003477  4.141974  -0.004
C  C44  1  0.36468379  0.71960003  0.71559187  1  1.523439  -0.00201  0.209353  0.621134  -0.003476  4.141862  -0.004
C  C45  1  0.13529214  0.21960260  0.78441608  1  1.523539  -0.002011  0.209418  0.621247  -0.003478  4.142225  -0.004
O  O46  1  0.21166908  0.11509798  0.05144923  1  -1.372922  0.09292  -0.386239  -0.752576  0.056036  2.316985  0.08
O  O47  1  0.28835157  0.61509210  0.44854890  1  -1.373021  0.092932  -0.386175  -0.752513  0.056042  2.316966  0.08
O  O48  1  0.78835328  0.88490940  0.94854868  1  -1.372973  0.09295  -0.386181  -0.752544  0.056053  2.316893  0.08
O  O49  1  0.71166079  0.38490059  0.55144826  1  -1.372968  0.09293  -0.386218  -0.752508  0.056041  2.316965  0.08
O  O50  1  0.31927057  0.90062668  0.00432448  1  -1.337988  0.151297  -0.38864  -0.770686  0.093462  2.525771  0.135
O  O51  1  0.18074087  0.40062463  0.49567415  1  -1.338009  0.151298  -0.388629  -0.770673  0.093462  2.525846  0.135
O  O52  1  0.68074183  0.09937580  0.99567454  1  -1.337992  0.151294  -0.38861  -0.770616  0.09346  2.525678  0.135
O  O53  1  0.81926154  0.59937296  0.50432475  1  -1.337966  0.151307  -0.38862  -0.770618  0.093468  2.525721  0.135
O  O54  1  0.59406125  0.01322625  0.13579040  1  -1.374244  0.098892  -0.393671  -0.767197  0.059558  2.31358  0.085
O  O55  1  0.90594703  0.51322753  0.36421079  1  -1.374391  0.098887  -0.393632  -0.767145  0.059553  2.313732  0.085
O  O56  1  0.40595914  0.98677378  0.86420872  1  -1.374318  0.098876  -0.393659  -0.767131  0.059547  2.313633  0.085
O  O57  1  0.09405740  0.48677169  0.63578938  1  -1.374352  0.098886  -0.393665  -0.767185  0.059553  2.313649  0.085
O  O58  1  0.86402320  0.32342314  0.27298773  1  -1.105789  0.119395  -0.315668  -0.528556  0.074045  2.260155  0.107
O  O59  1  0.63597168  0.82341397  0.22700992  1  -1.105843  0.119402  -0.315696  -0.528664  0.074048  2.260184  0.107
O  O60  1  0.13597130  0.67657770  0.72701541  1  -1.105871  0.119396  -0.315648  -0.528599  0.074045  2.260065  0.107
O  O61  1  0.36402870  0.17658525  0.77298772  1  -1.105458  0.119433  -0.315602  -0.528603  0.074067  2.260099  0.107
O  O62  1  0.55376714  0.26815419  0.35737393  1  -1.186703  0.001296  -0.323029  -0.607651  -0.000955  2.274779  0.003
O  O63  1  0.94622403  0.76815207  0.14262613  1  -1.18674  0.001293  -0.323007  -0.607606  -0.000957  2.27483  0.003
O  O64  1  0.44620333  0.73185809  0.64262581  1  -1.186667  0.001295  -0.323021  -0.60765  -0.000955  2.274714  0.003
O  O65  1  0.05374838  0.23183490  0.85737054  1  -1.187086  0.001288  -0.323088  -0.607764  -0.000961  2.275195  0.003
O  O66  1  0.38761581  0.70819508  0.09024993  1  -1.1768  0.081144  -0.566327  -0.721827  0.051261  2.107887  0.069
O  O67  1  0.11237640  0.20820195  0.40974374  1  -1.176664  0.081138  -0.56633  -0.72189  0.051257  2.107927  0.069
O  O68  1  0.61236862  0.29180904  0.90974875  1  -1.176686  0.081138  -0.566314  -0.721914  0.051259  2.107875  0.069
O  O69  1  0.88761007  0.79179481  0.59025745  1  -1.176563  0.081141  -0.566321  -0.721859  0.051258  2.10801  0.069
