# generated using pymatgen
data_Zn3H28C30(NO6)2
_symmetry_space_group_name_H-M   'P 1'
_cell_length_a   9.02532906
_cell_length_b   9.12105736
_cell_length_c   19.70253504
_cell_angle_alpha   95.48595012
_cell_angle_beta   97.73774666
_cell_angle_gamma   117.90179620
_symmetry_Int_Tables_number   1
_chemical_formula_structural   Zn3H28C30(NO6)2
_chemical_formula_sum   'Zn3 H28 C30 N2 O12'
_cell_volume   1396.83447069
_cell_formula_units_Z   1
loop_
 _symmetry_equiv_pos_site_id
 _symmetry_equiv_pos_as_xyz
  1  'x, y, z'
loop_
 _atom_site_type_symbol
 _atom_site_label
 _atom_site_symmetry_multiplicity
 _atom_site_fract_x
 _atom_site_fract_y
 _atom_site_fract_z
 _atom_site_occupancy
 _atom_site_pbe_bader_charge
 _atom_site_pbe_bader_spin_density
 _atom_site_pbe_cm5_charge
 _atom_site_pbe_ddec_charge
 _atom_site_pbe_ddec_spin_density
 _atom_site_pbe_ddec_sum_bond_order
 _atom_site_pbe_magmom
Zn  Zn0  1  0.31209391  0.44133086  0.77383437  1  1.276619  0  0.688879  0.825552  0  2.390203  0
Zn  Zn1  1  0.43874558  0.61600267  0.93646523  1  1.410567  0  0.683443  1.019512  0  2.217735  0
Zn  Zn2  1  0.56732341  0.79090486  0.09931404  1  1.276993  0  0.68912  0.82613  0  2.38883  0
H  H3  1  0.37547051  0.98603959  0.83941116  1  0.020595  0  0.091612  0.091378  0  0.986196  0
H  H4  1  0.48502085  0.06658879  0.77175726  1  0.041809  0  0.08925  0.091611  0  0.991592  0
H  H5  1  0.77815592  0.07637814  0.77263618  1  0.04519  0  0.087394  0.085711  0  1.004907  0
H  H6  1  0.85762552  0.99645964  0.83789920  1  0.021771  0  0.089707  0.086889  0  0.991072  0
H  H7  1  0.84757401  0.46121152  0.89409969  1  0.05523  0  0.096607  0.099382  0  0.977418  0
H  H8  1  0.77590744  0.35772792  0.80552644  1  0.033975  0  0.092459  0.093699  0  0.976248  0
H  H9  1  0.03549349  0.77122199  0.97879591  1  0.04248  0  0.096641  0.09958  0  0.977963  0
H  H10  1  0.10468370  0.87439700  0.06739378  1  0.041438  0  0.092354  0.093552  0  0.976063  0
H  H11  1  0.50272645  0.25053127  0.03396864  1  0.053925  0  0.091633  0.091376  0  0.986979  0
H  H12  1  0.39337565  0.16870653  0.10155257  1  0.041059  0  0.08935  0.091292  0  0.992238  0
H  H13  1  0.09845530  0.15247794  0.10012061  1  0.048473  0  0.087443  0.085366  0  1.006027  0
H  H14  1  0.01646133  0.23123012  0.03519374  1  0.045679  0  0.089484  0.086584  0  0.990114  0
H  H15  1  0.00249231  0.16590049  0.68716906  1  0.1596  0  0.13102  0.111111  0  0.987101  0
H  H16  1  0.87644567  0.04326275  0.56174480  1  0.083498  0  0.113598  0.118847  0  0.99366  0
H  H17  1  0.32302720  0.45672809  0.51477072  1  0.063033  0  0.109539  0.113297  0  0.990548  0
H  H18  1  0.42763236  0.56453097  0.64421262  1  0.182957  0  0.125811  0.115625  0  1.00381  0
H  H19  1  0.10975737  0.25864529  0.41905469  1  0.066029  0  0.106764  0.10238  0  0.998898  0
H  H20  1  0.79325870  0.96486952  0.45324064  1  0.035028  0  0.106311  0.101291  0  1.000947  0
H  H21  1  0.58358274  0.76204367  0.35910087  1  0.065412  0  0.109123  0.111973  0  0.991327  0
H  H22  1  0.46766652  0.65910172  0.22973899  1  0.185507  0  0.125028  0.115861  0  1.013325  0
H  H23  1  0.87708209  0.06947367  0.18413016  1  0.11624  0  0.131278  0.111705  0  0.985813  0
H  H24  1  0.01251521  0.18892615  0.30913183  1  0.080645  0  0.113537  0.118765  0  0.991989  0
H  H25  1  0.61409208  0.95192878  0.89688241  1  0.075466  0  0.098882  0.090329  0  1.008882  0
H  H26  1  0.89115134  0.22899159  0.92890472  1  0.030826  0  0.101227  0.086185  0  0.97871  0
H  H27  1  0.60452063  0.22563741  0.92710347  1  0.051181  0  0.101656  0.086869  0  0.96911  0
H  H28  1  0.98789689  0.00134932  0.94372556  1  0.026254  0  0.100986  0.085388  0  0.978897  0
H  H29  1  0.26130449  0.27996587  0.97598428  1  0.071137  0  0.099075  0.091288  0  1.008177  0
H  H30  1  0.27697568  0.00889328  0.94632055  1  0.015409  0  0.10177  0.086496  0  0.969103  0
C  C31  1  0.50359737  0.33477274  0.85718512  1  1.548777  0  0.221732  0.625819  0  4.096994  0
C  C32  1  0.59725895  0.23566291  0.87162850  1  -0.011491  0  -0.086562  -0.103674  0  3.865495  0
C  C33  1  0.50317965  0.05795328  0.82729561  1  -0.005088  0  -0.159653  -0.174262  0  3.897266  0
C  C34  1  0.60609629  0.96553167  0.84198030  1  0.002994  0  -0.093462  -0.114184  0  3.872542  0
C  C35  1  0.51220176  0.78980613  0.79845131  1  1.532186  0  0.218499  0.63381  0  4.070346  0
C  C36  1  0.78665100  0.06539921  0.82794487  1  -0.005262  0  -0.166035  -0.179052  0  3.937018  0
C  C37  1  0.88106222  0.24090823  0.87354977  1  -0.007916  0  -0.089182  -0.111878  0  3.875984  0
C  C38  1  0.06339883  0.34684980  0.86330382  1  1.565525  0  0.223823  0.628107  0  4.09826  0
C  C39  1  0.78118034  0.33687110  0.85978086  1  -0.02374  0  -0.153475  -0.168463  0  3.871408  0
C  C40  1  0.81522408  0.88216805  0.00905238  1  1.557857  0  0.223626  0.628321  0  4.099498  0
C  C41  1  0.99753293  0.98903260  0.99902511  1  0.03976  0  -0.088686  -0.110131  0  3.877106  0
C  C42  1  0.09963641  0.89537660  0.01315506  1  -0.041419  0  -0.152782  -0.168584  0  3.871107  0
C  C43  1  0.28381015  0.99902910  0.00180916  1  0.038609  0  -0.087011  -0.102639  0  3.860581  0
C  C44  1  0.37841987  0.90080335  0.01651487  1  1.54375  0  0.221141  0.625037  0  4.098336  0
C  C45  1  0.37521323  0.17678816  0.04595271  1  -0.046823  0  -0.160139  -0.173987  0  3.896858  0
C  C46  1  0.26964576  0.26658130  0.03091951  1  0.012532  0  -0.093557  -0.116823  0  3.87352  0
C  C47  1  0.36186784  0.44231416  0.07436298  1  1.545521  0  0.21887  0.634981  0  4.072503  0
C  C48  1  0.08957477  0.16425049  0.04488679  1  -0.047663  0  -0.165838  -0.178429  0  3.937528  0
C  C49  1  0.06853575  0.22461394  0.64665124  1  0.434655  0  0.059771  0.102434  0  3.916717  0
C  C50  1  0.99990434  0.15811865  0.57654616  1  0.005471  0  -0.078206  -0.171442  0  3.929401  0
C  C51  1  0.08960983  0.23995726  0.52630023  1  0.039099  0  0.0077  0.144498  0  4.044658  0
C  C52  1  0.24774041  0.38771675  0.55117827  1  -0.084607  0  -0.080288  -0.179012  0  3.942129  0
C  C53  1  0.30845625  0.44792038  0.62230939  1  0.503323  0  0.059465  0.10124  0  3.921567  0
C  C54  1  0.02607742  0.18103771  0.45150173  1  -0.145709  0  -0.077619  -0.117542  0  3.965687  0
C  C55  1  0.87588714  0.04300894  0.42063463  1  0.084214  0  -0.077258  -0.115988  0  3.965406  0
C  C56  1  0.80902936  0.98503048  0.34598104  1  -0.023942  0  0.007335  0.144027  0  4.042549  0
C  C57  1  0.65285569  0.83461840  0.32206217  1  -0.143228  0  -0.079812  -0.176579  0  3.942063  0
C  C58  1  0.58606238  0.77691050  0.25114008  1  0.522064  0  0.057576  0.096909  0  3.923731  0
C  C59  1  0.81694165  0.00707605  0.22518118  1  0.491152  0  0.059897  0.102494  0  3.915977  0
C  C60  1  0.89127553  0.07149090  0.29505078  1  0.01657  0  -0.077116  -0.170149  0  3.926065  0
N  N61  1  0.22011457  0.36758224  0.66929619  1  -1.236765  0  -0.318772  -0.210923  0  3.546228  0
N  N62  1  0.66675591  0.86215341  0.20344781  1  -1.223134  0  -0.318621  -0.210249  0  3.544634  0
O  O63  1  0.45318596  0.33291861  0.79259043  1  -1.165168  0  -0.337032  -0.561312  0  2.293788  0
O  O64  1  0.48324537  0.41248148  0.90854051  1  -1.186938  0  -0.310596  -0.568568  0  2.334457  0
O  O65  1  0.51170539  0.76265933  0.73533818  1  -1.186668  0  -0.332829  -0.56611  0  2.084022  0
O  O66  1  0.42658416  0.66639186  0.83119887  1  -1.174581  0  -0.330477  -0.58846  0  2.486065  0
O  O67  1  0.09117857  0.31596044  0.80262339  1  -1.190401  0  -0.331984  -0.570279  0  2.353434  0
O  O68  1  0.17169617  0.45788850  0.91400548  1  -1.18954  0  -0.311284  -0.560059  0  2.31194  0
O  O69  1  0.70591916  0.77366163  0.95788900  1  -1.180225  0  -0.310866  -0.559748  0  2.309694  0
O  O70  1  0.78844402  0.91061622  0.07014510  1  -1.190773  0  -0.332043  -0.571208  0  2.360438  0
O  O71  1  0.39418277  0.81902283  0.96516057  1  -1.195309  0  -0.310429  -0.568349  0  2.336855  0
O  O72  1  0.43304452  0.90642505  0.08112499  1  -1.16555  0  -0.336531  -0.560791  0  2.29253  0
O  O73  1  0.44874324  0.56571805  0.04187090  1  -1.179398  0  -0.330256  -0.588843  0  2.488989  0
O  O74  1  0.36044561  0.46920401  0.13729017  1  -1.196745  0  -0.332012  -0.564985  0  2.087284  0
