# generated using pymatgen
data_ZnH20C27S2(NO2)4
_symmetry_space_group_name_H-M   'P 1'
_cell_length_a   8.94251912
_cell_length_b   12.54084804
_cell_length_c   12.97900000
_cell_angle_alpha   100.74319387
_cell_angle_beta   108.96803624
_cell_angle_gamma   93.03884430
_symmetry_Int_Tables_number   1
_chemical_formula_structural   ZnH20C27S2(NO2)4
_chemical_formula_sum   'Zn2 H40 C54 S4 N8 O16'
_cell_volume   1342.24274511
_cell_formula_units_Z   2
loop_
 _symmetry_equiv_pos_site_id
 _symmetry_equiv_pos_as_xyz
  1  'x, y, z'
loop_
 _atom_site_type_symbol
 _atom_site_label
 _atom_site_symmetry_multiplicity
 _atom_site_fract_x
 _atom_site_fract_y
 _atom_site_fract_z
 _atom_site_occupancy
 _atom_site_hle17_bader_spin_density
 _atom_site_hle17_ddec_charge
 _atom_site_hle17_ddec_spin_density
 _atom_site_hle17_ddec_sum_bond_order
 _atom_site_hle17_magmom
 _atom_site_hse06_10hf_bader_spin_density
 _atom_site_hse06_10hf_ddec_charge
 _atom_site_hse06_10hf_ddec_spin_density
 _atom_site_hse06_10hf_ddec_sum_bond_order
 _atom_site_hse06_10hf_magmom
 _atom_site_hse06_bader_spin_density
 _atom_site_hse06_ddec_charge
 _atom_site_hse06_ddec_spin_density
 _atom_site_hse06_ddec_sum_bond_order
 _atom_site_hse06_magmom
 _atom_site_pbe_bader_charge
 _atom_site_pbe_bader_spin_density
 _atom_site_pbe_cm5_charge
 _atom_site_pbe_ddec_charge
 _atom_site_pbe_ddec_spin_density
 _atom_site_pbe_ddec_sum_bond_order
 _atom_site_pbe_magmom
Zn  Zn0  1  0.21717999  0.24492103  0.79592700  1  0  0.993343  0  1.883662  0  0  0.793887  0  2.372863  0  0  0.840268  0  2.318476  0  1.24732  0  0.70475  0.761709  0  2.410138  0
Zn  Zn1  1  0.78281823  0.75507697  0.20407055  1  0  0.993359  0  1.883582  0  0  0.793907  0  2.372779  0  0  0.840291  0  2.318395  0  1.247466  0  0.704754  0.761732  0  2.410054  0
H  H2  1  0.57261198  0.01281505  0.81392856  1  0  0.117002  0  0.989614  0  0  0.12241  0  1.059194  0  0  0.126029  0  1.05719  0  0.169781  0  0.10385  0.119769  0  1.060798  0
H  H3  1  0.42738876  0.98718377  0.18607432  1  0  0.117048  0  0.989522  0  0  0.122468  0  1.059095  0  0  0.126076  0  1.057128  0  0.169752  0  0.103859  0.119839  0  1.060688  0
H  H4  1  0.47101355  0.77374714  0.47819400  1  0  0.11541  0  0.931062  0  0  0.126101  0  0.988478  0  0  0.130704  0  0.985363  0  0.103963  0  0.107704  0.122674  0  0.990955  0
H  H5  1  0.52898734  0.22625249  0.52180675  1  0  0.115383  0  0.931117  0  0  0.126073  0  0.988534  0  0  0.130682  0  0.985413  0  0.103907  0  0.107695  0.122642  0  0.991016  0
H  H6  1  0.93663255  0.26833174  0.87729052  1  0  0.084713  0  0.932636  0  0  0.095272  0  0.992861  0  0  0.097565  0  0.990849  0  0.108217  0  0.119308  0.093515  0  0.994431  0
H  H7  1  0.06337098  0.73166953  0.12271189  1  0  0.084774  0  0.932711  0  0  0.095326  0  0.992928  0  0  0.097622  0  0.990912  0  0.108178  0  0.119317  0.093562  0  0.994513  0
H  H8  1  0.91647929  0.91767047  0.09241526  1  0  0.102127  0  0.950641  0  0  0.112104  0  1.013635  0  0  0.115323  0  1.012075  0  0.08365  0  0.102498  0.109749  0  1.014961  0
H  H9  1  0.08351790  0.08232835  0.90758683  1  0  0.102116  0  0.950712  0  0  0.112088  0  1.013711  0  0  0.115305  0  1.012156  0  0.083667  0  0.102501  0.109733  0  1.015037  0
H  H10  1  0.89186211  0.36873739  0.04597266  1  0  0.120677  0  0.949356  0  0  0.127356  0  1.013162  0  0  0.130666  0  1.012441  0  0.11824  0  0.10603  0.124973  0  1.013858  0
H  H11  1  0.10814276  0.63126470  0.95402865  1  0  0.120654  0  0.949338  0  0  0.127301  0  1.013186  0  0  0.130611  0  1.012466  0  0.118138  0  0.105995  0.124918  0  1.013883  0
H  H12  1  0.40990177  0.40443651  0.99154309  1  0  0.083513  0  0.946933  0  0  0.093068  0  1.010791  0  0  0.095509  0  1.008369  0  0.105636  0  0.116885  0.091248  0  1.012588  0
H  H13  1  0.59010429  0.59555904  0.00845654  1  0  0.083543  0  0.946888  0  0  0.093052  0  1.010826  0  0  0.095492  0  1.008409  0  0.105564  0  0.116895  0.091231  0  1.012621  0
H  H14  1  0.89999553  0.08880906  0.21683414  1  0  0.12429  0  0.944976  0  0  0.124805  0  1.018916  0  0  0.12901  0  1.014584  0  0.141815  0  0.112514  0.12179  0  1.022069  0
H  H15  1  0.10000047  0.91118976  0.78316614  1  0  0.124263  0  0.94496  0  0  0.124788  0  1.018897  0  0  0.128991  0  1.014565  0  0.141833  0  0.112511  0.121772  0  1.022051  0
H  H16  1  0.54463395  0.87672464  0.35224225  1  0  0.122582  0  0.92949  0  0  0.132853  0  0.985663  0  0  0.136567  0  0.983075  0  0.094096  0  0.117736  0.130108  0  0.987657  0
H  H17  1  0.45536633  0.12327827  0.64776127  1  0  0.122553  0  0.929523  0  0  0.13281  0  0.98572  0  0  0.136524  0  0.983131  0  0.094044  0  0.117723  0.130066  0  0.987713  0
H  H18  1  0.37948904  0.52023722  0.16105599  1  0  0.110814  0  0.952565  0  0  0.12196  0  1.011328  0  0  0.124686  0  1.010926  0  0.101539  0  0.108535  0.119998  0  1.011823  0
H  H19  1  0.62051835  0.47975914  0.83894486  1  0  0.110744  0  0.952658  0  0  0.121906  0  1.011407  0  0  0.124631  0  1.011007  0  0.101499  0  0.108513  0.119945  0  1.011904  0
H  H20  1  0.35240004  0.48001756  0.80289813  1  0  0.079991  0  0.937731  0  0  0.089331  0  1.002393  0  0  0.091701  0  0.999816  0  0.088539  0  0.118595  0.087524  0  1.004393  0
H  H21  1  0.64759406  0.51997718  0.19709868  1  0  0.079914  0  0.9379  0  0  0.089304  0  1.002475  0  0  0.091674  0  0.999898  0  0.089276  0  0.118604  0.087499  0  1.004471  0
H  H22  1  0.34040320  0.58938744  0.66111707  1  0  0.109989  0  0.975202  0  0  0.110596  0  1.052217  0  0  0.114839  0  1.049625  0  0.111912  0  0.101704  0.107584  0  1.054153  0
H  H23  1  0.65959783  0.41061301  0.33888540  1  0  0.109951  0  0.975153  0  0  0.110549  0  1.052191  0  0  0.114796  0  1.049596  0  0.111906  0  0.101685  0.107538  0  1.054125  0
H  H24  1  0.99290235  0.51497333  0.21672530  1  0  0.081907  0  0.930786  0  0  0.097407  0  0.993386  0  0  0.098149  0  0.994181  0  0.028892  0  0.092447  0.096838  0  0.992919  0
H  H25  1  0.00710488  0.48502876  0.78327423  1  0  0.081903  0  0.930781  0  0  0.097417  0  0.993373  0  0  0.098161  0  0.994167  0  0.028804  0  0.092452  0.096847  0  0.992905  0
H  H26  1  0.32778265  0.45847869  0.33366579  1  0  0.056538  0  0.94378  0  0  0.07437  0  1.007906  0  0  0.0746  0  1.009472  0  0.022976  0  0.083  0.074188  0  1.006799  0
H  H27  1  0.67221927  0.54152013  0.66633504  1  0  0.05656  0  0.943736  0  0  0.074379  0  1.007887  0  0  0.074609  0  1.009451  0  0.022942  0  0.083001  0.074195  0  1.006783  0
H  H28  1  0.14660867  0.37605630  0.30295584  1  0  0.061806  0  0.965142  0  0  0.077024  0  1.034412  0  0  0.077906  0  1.03436  0  0.027774  0  0.085184  0.076342  0  1.034547  0
H  H29  1  0.85339250  0.62394497  0.69704296  1  0  0.061777  0  0.965132  0  0  0.07701  0  1.034392  0  0  0.077893  0  1.034338  0  0.027755  0  0.085184  0.076329  0  1.034529  0
H  H30  1  0.26335525  0.60024724  0.46537187  1  0  0.088006  0  0.916602  0  0  0.107954  0  0.968598  0  0  0.10936  0  0.967834  0  0.032843  0  0.098476  0.106896  0  0.969226  0
H  H31  1  0.73664149  0.39975567  0.53462546  1  0  0.087958  0  0.916709  0  0  0.107914  0  0.968687  0  0  0.109327  0  0.967922  0  0.032932  0  0.098476  0.10685  0  0.969313  0
H  H32  1  0.06284179  0.54516486  0.41383129  1  0  0.089534  0  0.938069  0  0  0.109018  0  0.995691  0  0  0.108641  0  0.998747  0  0.041754  0  0.100216  0.109276  0  0.993616  0
H  H33  1  0.93715421  0.45483396  0.58616437  1  0  0.089444  0  0.93818  0  0  0.108945  0  0.995756  0  0  0.10857  0  0.998812  0  0.041785  0  0.100192  0.109198  0  0.993678  0
H  H34  1  0.82448557  0.99061180  0.76133266  1  0  0.09832  0  0.984514  0  0  0.106981  0  1.050634  0  0  0.109855  0  1.05038  0  0.099697  0  0.10021  0.104916  0  1.050915  0
H  H35  1  0.17551516  0.00938702  0.23866791  1  0  0.098324  0  0.984465  0  0  0.106996  0  1.050569  0  0  0.109873  0  1.05031  0  0.099585  0  0.100221  0.104932  0  1.05085  0
H  H36  1  0.07701465  0.30437758  0.40909565  1  0  0.124765  0  0.955131  0  0  0.135399  0  1.01289  0  0  0.138718  0  1.011412  0  0.09771  0  0.112441  0.133051  0  1.01406  0
H  H37  1  0.92297882  0.69562696  0.59089970  1  0  0.124849  0  0.955057  0  0  0.135474  0  1.012819  0  0  0.138792  0  1.011342  0  0.097749  0  0.112468  0.133126  0  1.013989  0
H  H38  1  0.10659612  0.20594190  0.55999635  1  0  0.086413  0  0.984494  0  0  0.093804  0  1.049809  0  0  0.095556  0  1.048371  0  0.130584  0  0.118453  0.092464  0  1.050919  0
H  H39  1  0.89339914  0.79405937  0.43999727  1  0  0.086359  0  0.984472  0  0  0.093761  0  1.049787  0  0  0.095508  0  1.048345  0  0.13044  0  0.118428  0.092422  0  1.050897  0
H  H40  1  0.17172430  0.59973777  0.24372745  1  0  0.102775  0  0.930044  0  0  0.121675  0  0.984585  0  0  0.12315  0  0.983827  0  0.072722  0  0.100745  0.120547  0  0.985212  0
H  H41  1  0.82828264  0.40026268  0.75627172  1  0  0.102786  0  0.930005  0  0  0.121686  0  0.984555  0  0  0.123162  0  0.983796  0  0.072779  0  0.100736  0.120554  0  0.985189  0
C  C42  1  0.74875858  0.95559061  0.94400593  1  0  0.063424  0  3.762214  0  0  0.080274  0  4.023015  0  0  0.08432  0  4.044559  0  -0.169855  0  -0.003006  0.077393  0  4.008527  0
C  C43  1  0.25123846  0.04440739  0.05599597  1  0  0.06352  0  3.762164  0  0  0.08039  0  4.022956  0  0  0.084428  0  4.044512  0  -0.17009  0  -0.00294  0.077509  0  4.00847  0
C  C44  1  0.64825101  0.03047529  0.90132921  1  0  -0.130445  0  3.702021  0  0  -0.159057  0  3.944775  0  0  -0.164129  0  3.965644  0  -0.037818  0  -0.089987  -0.155657  0  3.930985  0
C  C45  1  0.35174840  0.96952271  0.09867169  1  0  -0.130578  0  3.702059  0  0  -0.159207  0  3.94481  0  0  -0.164278  0  3.965675  0  -0.037704  0  -0.09003  -0.155815  0  3.93101  0
C  C46  1  0.80137099  0.02564726  0.60165779  1  0  -0.029397  0  3.691154  0  0  -0.016846  0  3.932591  0  0  -0.017451  0  3.950374  0  -0.003249  0  0.007546  -0.016622  0  3.920852  0
C  C47  1  0.19862972  0.97435810  0.39834550  1  0  -0.029343  0  3.691022  0  0  -0.016877  0  3.932607  0  0  -0.017479  0  3.9504  0  -0.003409  0  0.007592  -0.016631  0  3.920833  0
C  C48  1  0.64094474  0.12834018  0.97041407  1  0  -0.034676  0  3.676565  0  0  -0.01875  0  3.910278  0  0  -0.019782  0  3.928634  0  0.06676  0  0.003859  -0.018225  0  3.898114  0
C  C49  1  0.35905244  0.87165864  0.02958648  1  0  -0.034568  0  3.676611  0  0  -0.018657  0  3.91032  0  0  -0.019689  0  3.928677  0  0.06675  0  0.003876  -0.01813  0  3.898153  0
C  C50  1  0.73541158  0.14794914  0.08374060  1  0  0.037664  0  3.68757  0  0  0.024444  0  3.939685  0  0  0.020279  0  3.961552  0  0.17871  0  0.077889  0.027072  0  3.925139  0
C  C51  1  0.26458708  0.85205132  0.91625980  1  0  0.037548  0  3.687623  0  0  0.024373  0  3.9397  0  0  0.020208  0  3.961567  0  0.178727  0  0.077881  0.027002  0  3.925153  0
C  C52  1  0.56445138  0.84301348  0.51308717  1  0  -0.106842  0  3.721669  0  0  -0.131376  0  3.981696  0  0  -0.136009  0  4.0007  0  -0.006217  0  -0.091101  -0.12829  0  3.968952  0
C  C53  1  0.43554979  0.15698779  0.48691471  1  0  -0.106773  0  3.721743  0  0  -0.131299  0  3.981759  0  0  -0.135934  0  4.000763  0  -0.005926  0  -0.09106  -0.128209  0  3.969017  0
C  C54  1  0.91028762  0.13171015  0.65726684  1  0  0.64489  0  3.965497  0  0  0.589062  0  4.275252  0  0  0.623046  0  4.265782  0  1.642121  0  0.200258  0.565861  0  4.280862  0
C  C55  1  0.08971266  0.86829276  0.34273745  1  0  0.644985  0  3.965223  0  0  0.58917  0  4.275014  0  0  0.62315  0  4.265549  0  1.642143  0  0.200327  0.565965  0  4.280627  0
C  C56  1  0.03318698  0.32244752  0.94409596  1  0  0.129506  0  3.71899  0  0  0.096004  0  3.975794  0  0  0.103882  0  3.993277  0  0.452084  0  0.045556  0.090969  0  3.963873  0
C  C57  1  0.96681744  0.67755211  0.05590481  1  0  0.129346  0  3.719134  0  0  0.095854  0  3.975912  0  0  0.10373  0  3.9934  0  0.452057  0  0.045545  0.090821  0  3.963987  0
C  C58  1  0.72203793  0.99066251  0.48639359  1  0  0.048415  0  3.693018  0  0  0.022537  0  3.947881  0  0  0.01887  0  3.969857  0  0.254112  0  0.077093  0.024781  0  3.933265  0
C  C59  1  0.27796264  0.00934204  0.51361029  1  0  0.048442  0  3.693086  0  0  0.022553  0  3.947981  0  0  0.018884  0  3.969962  0  0.254197  0  0.077038  0.024789  0  3.933365  0
C  C60  1  0.13493681  0.45178373  0.12040496  1  0  0.162809  0  3.718766  0  0  0.178142  0  3.953978  0  0  0.183901  0  3.975711  0  -0.070917  0  0.018368  0.174486  0  3.939106  0
C  C61  1  0.86506851  0.54821427  0.87959264  1  0  0.162831  0  3.718604  0  0  0.178144  0  3.953834  0  0  0.183906  0  3.975568  0  -0.071276  0  0.018419  0.174481  0  3.938982  0
C  C62  1  0.84219437  0.97715809  0.05769162  1  0  -0.089657  0  3.715333  0  0  -0.112899  0  3.973573  0  0  -0.116457  0  3.991713  0  -0.001314  0  -0.090023  -0.110659  0  3.961628  0
C  C63  1  0.15780252  0.02283909  0.94230856  1  0  -0.089741  0  3.715459  0  0  -0.112977  0  3.973696  0  0  -0.116534  0  3.991835  0  -0.001203  0  -0.090081  -0.110739  0  3.961752  0
C  C64  1  0.00973795  0.37928398  0.03900914  1  0  -0.170388  0  3.70115  0  0  -0.189058  0  3.951618  0  0  -0.197826  0  3.973943  0  -0.007244  0  -0.084469  -0.183383  0  3.936647  0
C  C65  1  0.99026737  0.62071402  0.96099308  1  0  -0.170296  0  3.701188  0  0  -0.188928  0  3.951638  0  0  -0.197699  0  3.973967  0  -0.006885  0  -0.08443  -0.18325  0  3.936666  0
C  C66  1  0.29690078  0.40110906  0.00687890  1  0  0.13286  0  3.700913  0  0  0.098889  0  3.954267  0  0  0.106417  0  3.972264  0  0.488469  0  0.044805  0.094094  0  3.942032  0
C  C67  1  0.70310632  0.59888567  0.99312390  1  0  0.132741  0  3.700914  0  0  0.098769  0  3.954305  0  0  0.106299  0  3.972301  0  0.488665  0  0.044788  0.093975  0  3.94208  0
C  C68  1  0.53941292  0.20934458  0.91651113  1  0  0.652869  0  3.959353  0  0  0.599223  0  4.264026  0  0  0.633682  0  4.254187  0  1.636701  0  0.202011  0.575719  0  4.26986  0
C  C69  1  0.46058796  0.79065505  0.08348808  1  0  0.652941  0  3.959342  0  0  0.599282  0  4.264032  0  0  0.633743  0  4.254188  0  1.636703  0  0.202038  0.575778  0  4.269867  0
C  C70  1  0.64663275  0.87461892  0.62876167  1  0  0.060575  0  3.778056  0  0  0.076363  0  4.041024  0  0  0.08069  0  4.062834  0  -0.197885  0  -0.003668  0.073365  0  4.026214  0
C  C71  1  0.35337065  0.12538154  0.37124056  1  0  0.060678  0  3.778187  0  0  0.076438  0  4.041186  0  0  0.080757  0  4.063009  0  -0.1979  0  -0.003656  0.073439  0  4.026376  0
C  C72  1  0.83513121  0.07330687  0.12761929  1  0  -0.066476  0  3.727721  0  0  -0.097022  0  3.998726  0  0  -0.093796  0  4.014236  0  0.042407  0  -0.072804  -0.09904  0  3.988237  0
C  C73  1  0.16486878  0.92669440  0.87238155  1  0  -0.066375  0  3.727638  0  0  -0.096934  0  3.998639  0  0  -0.093706  0  4.014145  0  0.042385  0  -0.072793  -0.098954  0  3.988156  0
C  C74  1  0.60349297  0.90106431  0.44224251  1  0  -0.072575  0  3.722352  0  0  -0.09773  0  3.986994  0  0  -0.095867  0  4.005068  0  0.040087  0  -0.073069  -0.098792  0  3.974773  0
C  C75  1  0.39650717  0.09893778  0.55775928  1  0  -0.072574  0  3.72248  0  0  -0.097708  0  3.987129  0  0  -0.095841  0  4.005203  0  0.039833  0  -0.073044  -0.098771  0  3.974911  0
C  C76  1  0.28036629  0.46220439  0.10214682  1  0  -0.145687  0  3.680947  0  0  -0.164281  0  3.928317  0  0  -0.172097  0  3.949478  0  -0.018941  0  -0.077929  -0.159317  0  3.914194  0
C  C77  1  0.71964139  0.53779361  0.89785284  1  0  -0.145585  0  3.680823  0  0  -0.164161  0  3.928164  0  0  -0.17198  0  3.949326  0  -0.018794  0  -0.077912  -0.159178  0  3.913997  0
C  C78  1  0.29650427  0.44311879  0.71438902  1  0  0.132358  0  3.721569  0  0  0.098573  0  3.977529  0  0  0.106963  0  3.994421  0  0.445216  0  0.046359  0.093139  0  3.966126  0
C  C79  1  0.70348893  0.55687757  0.28560711  1  0  0.132381  0  3.721575  0  0  0.098588  0  3.977527  0  0  0.106977  0  3.994423  0  0.444303  0  0.046365  0.093155  0  3.966123  0
C  C80  1  0.28908489  0.50394590  0.63412476  1  0  -0.177553  0  3.714263  0  0  -0.19653  0  3.966969  0  0  -0.204964  0  3.986783  0  0.023924  0  -0.087234  -0.191117  0  3.953739  0
C  C81  1  0.71091495  0.49605456  0.36587514  1  0  -0.17752  0  3.714111  0  0  -0.196486  0  3.966851  0  0  -0.204934  0  3.986654  0  0.024036  0  -0.08724  -0.191075  0  3.953621  0
C  C82  1  0.20946640  0.45654470  0.52092530  1  0  0.166208  0  3.697015  0  0  0.182259  0  3.930106  0  0  0.188736  0  3.951534  0  -0.069679  0  0.020602  0.178086  0  3.915472  0
C  C83  1  0.79053256  0.54345739  0.47907315  1  0  0.166345  0  3.697029  0  0  0.182342  0  3.930161  0  0  0.188848  0  3.951553  0  -0.069722  0  0.020621  0.178162  0  3.915526  0
C  C84  1  0.11931916  0.51412941  0.22569584  1  0  -0.171123  0  3.694599  0  0  -0.212502  0  3.94378  0  0  -0.214283  0  3.955559  0  0.021926  0  -0.162129  -0.211074  0  3.935428  0
C  C85  1  0.88068764  0.48587023  0.77430238  1  0  -0.171124  0  3.694485  0  0  -0.212515  0  3.943706  0  0  -0.2143  0  3.955485  0  0.021904  0  -0.162114  -0.211084  0  3.935359  0
C  C86  1  0.20107065  0.46140217  0.32377002  1  0  -0.089681  0  3.681531  0  0  -0.131967  0  3.940908  0  0  -0.13297  0  3.955014  0  -0.005254  0  -0.16134  -0.131005  0  3.930909  0
C  C87  1  0.79893170  0.53859910  0.67622981  1  0  -0.089626  0  3.68144  0  0  -0.131948  0  3.94087  0  0  -0.132948  0  3.954979  0  -0.005212  0  -0.161357  -0.130988  0  3.930857  0
C  C88  1  0.18477097  0.52229551  0.43244886  1  0  -0.15244  0  3.677389  0  0  -0.189909  0  3.919022  0  0  -0.191709  0  3.931425  0  0.032636  0  -0.154286  -0.188548  0  3.910288  0
C  C89  1  0.81522799  0.47770658  0.56754958  1  0  -0.152427  0  3.677571  0  0  -0.189848  0  3.919162  0  0  -0.191669  0  3.931579  0  0.032572  0  -0.154295  -0.188464  0  3.9104  0
C  C90  1  0.76362074  0.96516816  0.67158426  1  0  -0.131612  0  3.722847  0  0  -0.15758  0  3.964427  0  0  -0.162505  0  3.98509  0  0.01586  0  -0.09053  -0.154364  0  3.950746  0
C  C91  1  0.23638176  0.03483393  0.32841653  1  0  -0.131726  0  3.722899  0  0  -0.157659  0  3.964521  0  0  -0.162587  0  3.985188  0  0.01611  0  -0.090581  -0.154449  0  3.950834  0
C  C92  1  0.14401274  0.34674713  0.49445120  1  0  -0.162559  0  3.676717  0  0  -0.179709  0  3.91953  0  0  -0.188802  0  3.941111  0  0.013622  0  -0.080106  -0.17388  0  3.905085  0
C  C93  1  0.85598178  0.65325660  0.50554501  1  0  -0.162905  0  3.676883  0  0  -0.180027  0  3.919719  0  0  -0.18913  0  3.941287  0  0.013568  0  -0.080227  -0.174198  0  3.905277  0
C  C94  1  0.15831235  0.29058368  0.57876438  1  0  0.137613  0  3.713566  0  0  0.104216  0  3.963735  0  0  0.112051  0  3.982758  0  0.476318  0  0.044288  0.099192  0  3.950816  0
C  C95  1  0.84168262  0.70941596  0.42122811  1  0  0.137839  0  3.713889  0  0  0.104448  0  3.964041  0  0  0.112295  0  3.983055  0  0.476619  0  0.044393  0.099423  0  3.951123  0
S  S96  1  0.77404360  0.83265089  0.86238320  1  0  0.033702  0  2.499491  0  0  0.029495  0  2.868914  0  0  0.024643  0  2.873107  0  0.092448  0  0.063908  0.033267  0  2.865849  0
S  S97  1  0.22595211  0.16734630  0.13761903  1  0  0.033674  0  2.499537  0  0  0.029466  0  2.868947  0  0  0.024619  0  2.873141  0  0.092448  0  0.063886  0.03324  0  2.865881  0
S  S98  1  0.58867218  0.80035363  0.71570570  1  0  0.048469  0  2.46926  0  0  0.038261  0  2.837058  0  0  0.035331  0  2.836638  0  0.104725  0  0.062576  0.040765  0  2.837072  0
S  S99  1  0.41132855  0.19964519  0.28429487  1  0  0.048461  0  2.46927  0  0  0.038257  0  2.83708  0  0  0.035332  0  2.836662  0  0.104736  0  0.062604  0.040764  0  2.837094  0
N  N100  1  0.17456270  0.33264085  0.92814737  1  0  -0.362543  0  3.358055  0  0  -0.277489  0  3.648074  0  0  -0.297777  0  3.662621  0  -1.272322  0  -0.344313  -0.263867  0  3.638071  0
N  N101  1  0.82544026  0.66735716  0.07185278  1  0  -0.362496  0  3.358083  0  0  -0.277418  0  3.648044  0  0  -0.297706  0  3.662595  0  -1.27234  0  -0.344356  -0.2638  0  3.638043  0
N  N102  1  0.23233927  0.33753511  0.68751477  1  0  -0.356485  0  3.345769  0  0  -0.270289  0  3.634529  0  0  -0.290196  0  3.646688  0  -1.29017  0  -0.341792  -0.257031  0  3.626258  0
N  N103  1  0.76765762  0.66246207  0.31248079  1  0  -0.356417  0  3.346029  0  0  -0.270256  0  3.634829  0  0  -0.290165  0  3.646988  0  -1.290276  0  -0.341741  -0.256998  0  3.626559  0
N  N104  1  0.72699298  0.24551064  0.16096071  1  0  0.509108  0  3.899005  0  0  0.53557  0  4.200507  0  0  0.558026  0  4.205983  0  0.333012  0  0.052481  0.520381  0  4.197011  0
N  N105  1  0.27300672  0.75448900  0.83903823  1  0  0.509136  0  3.899018  0  0  0.535578  0  4.200531  0  0  0.558034  0  4.206006  0  0.333041  0  0.0525  0.520388  0  4.197035  0
N  N106  1  0.76444832  0.04721884  0.40956175  1  0  0.474262  0  3.94664  0  0  0.531426  0  4.206242  0  0  0.553674  0  4.212014  0  0.340307  0  0.052659  0.516386  0  4.202513  0
N  N107  1  0.23554842  0.95278407  0.59044097  1  0  0.474119  0  3.946744  0  0  0.531427  0  4.206157  0  0  0.553672  0  4.211931  0  0.340213  0  0.052688  0.516388  0  4.20243  0
O  O108  1  0.60096319  0.30248693  0.92117069  1  0  -0.618226  0  1.894823  0  0  -0.580766  0  2.117273  0  0  -0.604256  0  2.109399  0  -1.175953  0  -0.332287  -0.563826  0  2.121942  0
O  O109  1  0.39903769  0.69751271  0.07882929  1  0  -0.618284  0  1.894845  0  0  -0.580823  0  2.117303  0  0  -0.604314  0  2.109427  0  -1.175945  0  -0.332318  -0.56388  0  2.121973  0
O  O110  1  0.39339704  0.16714840  0.86415394  1  0  -0.627909  0  2.088428  0  0  -0.548631  0  2.368476  0  0  -0.578923  0  2.354155  0  -1.164088  0  -0.326495  -0.527012  0  2.377315  0
O  O111  1  0.60660384  0.83285124  0.13584527  1  0  -0.627946  0  2.088394  0  0  -0.548649  0  2.368445  0  0  -0.578941  0  2.354122  0  -1.164129  0  -0.326503  -0.527029  0  2.377281  0
O  O112  1  0.60013921  0.28741979  0.14019083  1  0  -0.378546  0  1.783251  0  0  -0.359605  0  2.005722  0  0  -0.371451  0  2.002114  0  -0.483454  0  -0.129649  -0.351902  0  2.008448  0
O  O113  1  0.39986048  0.71257985  0.85981119  1  0  -0.378567  0  1.78324  0  0  -0.359609  0  2.00572  0  0  -0.371456  0  2.00211  0  -0.483467  0  -0.129665  -0.351906  0  2.008446  0
O  O114  1  0.84702502  0.28222131  0.24513621  1  0  -0.378402  0  1.741049  0  0  -0.359636  0  1.953632  0  0  -0.369929  0  1.947893  0  -0.482181  0  -0.137482  -0.352821  0  1.957716  0
O  O115  1  0.15297601  0.71777914  0.75486318  1  0  -0.378385  0  1.741073  0  0  -0.359609  0  1.95364  0  0  -0.369902  0  1.947901  0  -0.482191  0  -0.137465  -0.352797  0  1.957732  0
O  O116  1  0.89647969  0.10372247  0.44347438  1  0  -0.352311  0  1.803392  0  0  -0.344696  0  2.009314  0  0  -0.356727  0  2.004968  0  -0.465022  0  -0.125341  -0.336802  0  2.012491  0
O  O117  1  0.10351719  0.89628126  0.55652621  1  0  -0.352295  0  1.803481  0  0  -0.344742  0  2.009376  0  0  -0.356771  0  2.005029  0  -0.465056  0  -0.125385  -0.336847  0  2.012552  0
O  O118  1  0.66734712  0.03586185  0.31368521  1  0  -0.350723  0  1.841905  0  0  -0.347214  0  2.060982  0  0  -0.358248  0  2.057545  0  -0.47443  0  -0.12371  -0.339962  0  2.063451  0
O  O119  1  0.33265139  0.96413779  0.68631655  1  0  -0.350605  0  1.84181  0  0  -0.347174  0  2.060842  0  0  -0.358211  0  2.057403  0  -0.474417  0  -0.123689  -0.339914  0  2.063289  0
O  O120  1  0.85193368  0.21949375  0.65492196  1  0  -0.598998  0  1.888466  0  0  -0.560954  0  2.109311  0  0  -0.58426  0  2.101796  0  -1.164954  0  -0.319317  -0.544076  0  2.11365  0
O  O121  1  0.14806409  0.78050834  0.34507853  1  0  -0.599059  0  1.888431  0  0  -0.561014  0  2.109278  0  0  -0.584318  0  2.101762  0  -1.164874  0  -0.319373  -0.544136  0  2.113623  0
O  O122  1  0.05547192  0.11862279  0.71115451  1  0  -0.633988  0  2.048504  0  0  -0.553637  0  2.323146  0  0  -0.582915  0  2.308356  0  -1.170154  0  -0.329473  -0.53288  0  2.332514  0
O  O123  1  0.94452793  0.88137766  0.28884692  1  0  -0.634038  0  2.048318  0  0  -0.553686  0  2.322938  0  0  -0.582964  0  2.308152  0  -1.170203  0  -0.329511  -0.532931  0  2.33231  0
