# generated using pymatgen
data_Ni2H12C14N2O11
_symmetry_space_group_name_H-M   'P 1'
_cell_length_a   9.72926219
_cell_length_b   10.11069974
_cell_length_c   10.39310025
_cell_angle_alpha   75.79799465
_cell_angle_beta   65.81090849
_cell_angle_gamma   67.64967535
_symmetry_Int_Tables_number   1
_chemical_formula_structural   Ni2H12C14N2O11
_chemical_formula_sum   'Ni4 H24 C28 N4 O22'
_cell_volume   857.66938706
_cell_formula_units_Z   2
loop_
 _symmetry_equiv_pos_site_id
 _symmetry_equiv_pos_as_xyz
  1  'x, y, z'
loop_
 _atom_site_type_symbol
 _atom_site_label
 _atom_site_symmetry_multiplicity
 _atom_site_fract_x
 _atom_site_fract_y
 _atom_site_fract_z
 _atom_site_occupancy
 _atom_site_pbe_bader_charge
 _atom_site_pbe_bader_spin_density
 _atom_site_pbe_cm5_charge
 _atom_site_pbe_ddec_charge
 _atom_site_pbe_ddec_spin_density
 _atom_site_pbe_ddec_sum_bond_order
 _atom_site_pbe_magmom
Ni  Ni0  1  0.44085380  0.18690327  0.69199065  1  1.179532  1.561145  0.644188  0.880144  1.742325  2.3005  1.528
Ni  Ni1  1  0.02229811  0.30105095  0.82048125  1  1.216385  1.589906  0.636843  0.906274  1.796019  2.269973  1.578
Ni  Ni2  1  0.97768449  0.69869965  0.17949849  1  1.215996  1.589795  0.635855  0.904922  1.796318  2.270992  1.578
Ni  Ni3  1  0.55912263  0.81283517  0.30820402  1  1.179724  1.561657  0.644377  0.880603  1.742715  2.298449  1.528
H  H4  1  0.41904018  0.57746382  0.46267911  1  0.132244  0.001028  0.11993  0.096476  0.000149  1.049039  0.001
H  H5  1  0.77875423  0.98056745  0.54633571  1  0.154218  0.001082  0.121785  0.10001  0.000297  1.016425  0.001
H  H6  1  0.82980894  0.14226933  0.86027222  1  0.642009  0.000323  0.288195  0.386179  0.00027  0.953888  0.001
H  H7  1  0.92063848  0.47264388  0.58505748  1  0.122449  0.002001  0.11726  0.09174  0.000642  1.059594  0.002
H  H8  1  0.98650162  0.99976095  0.30748591  1  0.105717  0.000717  0.113447  0.125064  0.000188  1.023323  0.0
H  H9  1  0.78311061  0.83319786  0.05632738  1  0.642652  0.000522  0.292913  0.377641  0.001171  0.971808  0.001
H  H10  1  0.21685470  0.16618826  0.94333597  1  0.643433  0.000505  0.292626  0.376705  0.00116  0.972942  0.001
H  H11  1  0.71954237  0.01251337  0.84240783  1  0.626508  -7.9e-05  0.300424  0.39199  -0.00013  0.930134  0.0
H  H12  1  0.31549089  0.85164933  0.26245830  1  0.596984  0.000975  0.287521  0.335529  0.001601  1.026132  0.0
H  H13  1  0.74336193  0.94845478  0.16740694  1  0.65199  0.000118  0.294018  0.380094  0.00025  0.967851  0.0
H  H14  1  0.29901189  0.54098276  0.97986531  1  0.129259  0.002016  0.121247  0.098272  0.000724  1.009474  0.002
H  H15  1  0.86343237  0.13998066  0.99455190  1  0.65982  -0.000154  0.307905  0.400259  -8.3e-05  0.910255  0.0
H  H16  1  0.49439255  0.69784096  0.00083627  1  0.142196  0.001022  0.111056  0.12845  0.000421  1.012815  0.001
H  H17  1  0.22231990  0.01925577  0.45458477  1  0.14748  0.001096  0.121516  0.099355  0.000296  1.016816  0.001
H  H18  1  0.70127432  0.45900344  0.02019398  1  0.139238  0.002013  0.121201  0.098213  0.000726  1.009554  0.002
H  H19  1  0.25670334  0.05094384  0.83213806  1  0.646867  0.000133  0.29401  0.38069  0.00026  0.966553  0.0
H  H20  1  0.01393765  0.99975882  0.69312823  1  0.107049  0.000719  0.113664  0.125263  0.000191  1.023485  0.0
H  H21  1  0.50589737  0.30217171  0.99912965  1  0.145543  0.001002  0.110785  0.128158  0.000411  1.01429  0.001
H  H22  1  0.27677924  0.99014991  0.15754016  1  0.638104  -6.8e-05  0.299298  0.391314  -0.000121  0.932545  0.0
H  H23  1  0.13634609  0.85934094  0.00507644  1  0.657823  -0.000163  0.308257  0.40048  -9.1e-05  0.910178  0.0
H  H24  1  0.58115985  0.42236143  0.53714740  1  0.133872  0.00102  0.12003  0.096773  0.000148  1.048654  0.001
H  H25  1  0.16906414  0.85869777  0.13947927  1  0.649255  0.000276  0.28757  0.385546  0.000265  0.954699  0.001
H  H26  1  0.68250803  0.15129799  0.73755255  1  0.627996  0.000931  0.287202  0.335124  0.001591  1.027048  0.0
H  H27  1  0.07990334  0.52730561  0.41501969  1  0.123978  0.002  0.117367  0.091717  0.00064  1.059691  0.002
C  C28  1  0.77838598  0.35332820  0.34468886  1  0.037587  0.013073  -0.00037  -0.078203  0.007809  3.909988  0.01
C  C29  1  0.10071068  0.90322877  0.64525303  1  -0.038096  0.003659  -0.073076  -0.137714  0.001758  3.935218  0.003
C  C30  1  0.58654977  0.65031417  0.90593391  1  0.035141  0.008814  -0.075653  -0.144983  0.004948  3.939147  0.006
C  C31  1  0.00640877  0.24186265  0.12894783  1  1.613934  0.000385  0.229096  0.599559  -9.1e-05  4.146535  -0.001
C  C32  1  0.82515946  0.52818831  0.67368128  1  0.514639  0.001121  0.048174  0.068109  -0.000544  3.918749  0.001
C  C33  1  0.28064869  0.33659475  0.34780225  1  -0.02579  0.023268  -0.004231  -0.083873  0.013746  3.910775  0.018
C  C34  1  0.26282676  0.27100077  0.49857829  1  1.59055  0.000949  0.222777  0.599043  0.000139  4.170304  0.0
C  C35  1  0.78453960  0.08459042  0.48763955  1  0.439108  0.006874  0.052752  0.105981  0.003771  3.909826  0.005
C  C36  1  0.40461833  0.27454224  0.22780908  1  -0.048354  0.001582  0.016928  0.010461  -0.000755  3.90622  0.001
C  C37  1  0.77102692  0.50508645  0.27947885  1  1.598465  0.002737  0.22636  0.61097  0.001954  4.16802  0.001
C  C38  1  0.73764113  0.72888433  0.50136638  1  1.588495  0.001007  0.222618  0.598675  0.000162  4.17141  0.0
C  C39  1  0.89645700  0.23192938  0.28037750  1  -0.051417  0.012686  0.022334  0.018498  0.007274  3.896809  0.009
C  C40  1  0.22920625  0.49453164  0.72046434  1  1.597608  0.002793  0.226771  0.612304  0.001982  4.166792  0.001
C  C41  1  0.30011590  0.48205986  0.08248633  1  0.481434  -0.001564  0.05635  0.109433  -0.002928  3.915414  -0.001
C  C42  1  0.21614254  0.91519265  0.51290717  1  0.477034  0.006685  0.052992  0.107671  0.003678  3.908976  0.004
C  C43  1  0.51960770  0.12572752  0.23500038  1  1.600653  0.000466  0.228956  0.608719  -8.8e-05  4.147251  -0.001
C  C44  1  0.10376513  0.76764019  0.71966610  1  0.002016  0.012525  0.022042  0.018802  0.00721  3.897736  0.008
C  C45  1  0.71984499  0.66333644  0.65217027  1  -0.019843  0.023263  -0.004363  -0.084116  0.013762  3.910948  0.018
C  C46  1  0.89970154  0.09642131  0.35508493  1  0.051302  0.003488  -0.072781  -0.136879  0.00171  3.934322  0.003
C  C47  1  0.17528738  0.47176353  0.32635208  1  0.515474  0.001125  0.047865  0.067228  -0.000521  3.919889  0.001
C  C48  1  0.41382120  0.34968779  0.09406086  1  0.026604  0.008805  -0.075904  -0.144632  0.004931  3.938641  0.006
C  C49  1  0.59580921  0.72536211  0.77214391  1  -0.046455  0.001527  0.016644  0.009549  -0.000807  3.906997  0.001
C  C50  1  0.70021488  0.51792908  0.91756280  1  0.462987  -0.001571  0.056313  0.110011  -0.002944  3.914936  -0.001
C  C51  1  0.48072114  0.87406042  0.76484639  1  1.601921  0.000465  0.230387  0.61114  -9.8e-05  4.145233  -0.001
C  C52  1  0.32853440  0.66748149  0.51959569  1  0.486925  0.008305  0.05199  0.074848  0.004596  3.904338  0.005
C  C53  1  0.67176233  0.33227950  0.48040490  1  0.486311  0.008384  0.051435  0.073722  0.004645  3.905234  0.005
C  C54  1  0.99357218  0.75775997  0.87102019  1  1.614775  0.000401  0.229457  0.599888  -6.6e-05  4.147693  0.0
C  C55  1  0.22184037  0.64629175  0.65524904  1  0.038683  0.013108  -0.000578  -0.078536  0.007841  3.909287  0.01
N  N56  1  0.67129686  0.20095340  0.55003427  1  -1.251075  0.052476  -0.327006  -0.257719  0.028679  3.562178  0.043
N  N57  1  0.32923389  0.79888454  0.45027560  1  -1.246181  0.0527  -0.327889  -0.259486  0.02882  3.563407  0.043
N  N58  1  0.18265239  0.54252722  0.19715926  1  -1.213711  0.077374  -0.324925  -0.23386  0.044206  3.575937  0.067
N  N59  1  0.81766128  0.45744150  0.80289964  1  -1.214988  0.077522  -0.325029  -0.234319  0.044274  3.576454  0.067
O  O60  1  0.93604152  0.31058245  0.04167358  1  -1.13663  0.070446  -0.288579  -0.529721  0.038773  2.318855  0.065
O  O61  1  0.84562711  0.82458624  0.90066781  1  -1.170323  0.005549  -0.304448  -0.528301  0.002479  2.180151  0.004
O  O62  1  0.63350628  0.59709834  0.29458860  1  -1.15363  0.058598  -0.311631  -0.561646  0.031576  2.339897  0.051
O  O63  1  0.60493701  0.78758810  0.48190577  1  -1.103747  0.107733  -0.298681  -0.520179  0.056438  2.368964  0.098
O  O64  1  0.33315018  0.89178554  0.81956804  1  -1.156293  0.00448  -0.302479  -0.521633  0.001839  2.169458  0.003
O  O65  1  0.87628244  0.71533578  0.41075816  1  -1.164112  0.052344  -0.301638  -0.552409  0.028633  2.257  0.047
O  O66  1  0.06380509  0.68891046  0.95840546  1  -1.136744  0.070553  -0.289326  -0.530601  0.038823  2.319102  0.065
O  O67  1  0.91781282  0.13377636  0.89209438  1  -1.254382  0.058236  -0.573697  -0.75795  0.032253  2.133515  0.051
O  O68  1  0.54648333  0.97267038  0.70950171  1  -1.145579  0.070421  -0.307745  -0.56075  0.038565  2.388857  0.063
O  O69  1  0.66722232  0.10776881  0.17972052  1  -1.156418  0.004448  -0.301558  -0.520446  0.001816  2.170562  0.003
O  O70  1  0.76440048  0.84107203  0.16098686  1  -1.227274  0.11474  -0.55375  -0.775802  0.064667  2.452634  0.102
O  O71  1  0.39548071  0.21211342  0.51811369  1  -1.104061  0.10789  -0.299107  -0.520635  0.056545  2.368533  0.098
O  O72  1  0.12412753  0.28467756  0.58913502  1  -1.163494  0.052443  -0.301562  -0.552327  0.02869  2.256199  0.047
O  O73  1  0.31419670  0.88388680  0.16549142  1  -1.229705  0.012641  -0.570381  -0.733381  0.006793  2.03622  0.009
O  O74  1  0.36677118  0.40249164  0.70511567  1  -1.155536  0.05867  -0.311873  -0.562319  0.031623  2.341228  0.051
O  O75  1  0.08152593  0.86634758  0.10737425  1  -1.260511  0.058245  -0.573426  -0.757151  0.032221  2.13333  0.051
O  O76  1  0.09585123  0.47409222  0.77810727  1  -1.128206  0.0713  -0.294468  -0.527624  0.038986  2.395537  0.065
O  O77  1  0.15446110  0.17528930  0.09906414  1  -1.169882  0.005464  -0.303494  -0.527558  0.002431  2.183322  0.004
O  O78  1  0.23544561  0.15835408  0.83876993  1  -1.222912  0.114808  -0.552996  -0.77497  0.06474  2.452232  0.102
O  O79  1  0.90441057  0.52549635  0.22224193  1  -1.129145  0.071255  -0.294169  -0.526451  0.038976  2.394984  0.065
O  O80  1  0.68319589  0.11863821  0.83474592  1  -1.249411  0.013087  -0.568743  -0.731893  0.007027  2.036881  0.009
O  O81  1  0.45370662  0.02725950  0.29085549  1  -1.146064  0.070678  -0.30717  -0.559533  0.038705  2.388307  0.063
