# generated using pymatgen
data_CuH12C20(NO4)2
_symmetry_space_group_name_H-M   'P 1'
_cell_length_a   8.80949352
_cell_length_b   8.80949711
_cell_length_c   12.92986734
_cell_angle_alpha   102.66594643
_cell_angle_beta   102.66594845
_cell_angle_gamma   110.65917274
_symmetry_Int_Tables_number   1
_chemical_formula_structural   CuH12C20(NO4)2
_chemical_formula_sum   'Cu2 H24 C40 N4 O16'
_cell_volume   866.37189138
_cell_formula_units_Z   2
loop_
 _symmetry_equiv_pos_site_id
 _symmetry_equiv_pos_as_xyz
  1  'x, y, z'
loop_
 _atom_site_type_symbol
 _atom_site_label
 _atom_site_symmetry_multiplicity
 _atom_site_fract_x
 _atom_site_fract_y
 _atom_site_fract_z
 _atom_site_occupancy
 _atom_site_hle17_ddec_charge
 _atom_site_hle17_ddec_spin_density
 _atom_site_hle17_ddec_sum_bond_order
 _atom_site_hle17_magmom
 _atom_site_hse06_10hf_bader_charge
 _atom_site_hse06_10hf_bader_spin_density
 _atom_site_hse06_10hf_ddec_charge
 _atom_site_hse06_10hf_ddec_spin_density
 _atom_site_hse06_10hf_ddec_sum_bond_order
 _atom_site_hse06_10hf_magmom
 _atom_site_hse06_ddec_charge
 _atom_site_hse06_ddec_spin_density
 _atom_site_hse06_ddec_sum_bond_order
 _atom_site_hse06_magmom
 _atom_site_pbe_cm5_charge
 _atom_site_pbe_ddec_charge
 _atom_site_pbe_ddec_spin_density
 _atom_site_pbe_ddec_sum_bond_order
 _atom_site_pbe_magmom
Cu  Cu0  1  0.30829256  0.69170826  0.75000021  1  0.83378  -0.716761  1.804522  -0.491  1.086022  -0.601354  0.805321  -0.794129  2.194181  -0.599  0.891528  -0.871505  2.128494  -0.68  0.754223  0.752701  -0.737303  2.240213  -0.545
Cu  Cu1  1  0.69170820  0.30829257  0.25000008  1  0.833718  0.716757  1.804551  0.491  1.086035  0.601355  0.805297  0.79413  2.194185  0.599  0.89148  0.871501  2.128519  0.68  0.75421  0.752701  0.737303  2.240185  0.545
H  H2  1  0.96480152  0.55165117  0.21887299  1  0.40339  -0.000113  0.895881  0.0  0.682286  1.5e-05  0.367813  -9.7e-05  0.982504  0.0  0.381204  -0.000117  0.963022  0.0  0.298356  0.35828  -6.8e-05  0.996372  0.0
H  H3  1  0.44835256  0.03519753  0.28112582  1  0.403311  -0.000113  0.89597  0.0  0.682239  1.5e-05  0.36776  -9.7e-05  0.982577  0.0  0.38115  -0.000117  0.963096  0.0  0.298323  0.358228  -6.8e-05  0.996443  0.0
H  H4  1  0.03519987  0.44834837  0.78112875  1  0.403351  0.000114  0.895933  0.0  0.682307  -1.4e-05  0.367809  9.8e-05  0.982513  0.0  0.381198  0.000117  0.963033  0.0  0.298348  0.358277  6.8e-05  0.996379  0.0
H  H5  1  0.55165247  0.96479952  0.71887222  1  0.403376  0.000113  0.895893  0.0  0.682279  -1.4e-05  0.367797  9.7e-05  0.982531  0.0  0.381186  0.000117  0.96305  0.0  0.298359  0.358267  6.8e-05  0.996395  0.0
H  H6  1  0.17433581  0.51004442  0.49696425  1  0.104958  -0.001492  0.955418  -0.003  0.175754  -0.002669  0.110514  -0.001255  1.019875  -0.002  0.113054  -0.000923  1.01717  -0.002  0.122483  0.108445  -0.001501  1.021976  -0.003
H  H7  1  0.48995469  0.82566254  0.00303609  1  0.104972  -0.001492  0.955379  -0.003  0.175751  -0.002669  0.110543  -0.001255  1.019828  -0.002  0.113082  -0.000923  1.017119  -0.002  0.122504  0.108474  -0.001501  1.021928  -0.003
H  H8  1  0.82566025  0.48995633  0.50303918  1  0.104927  0.001491  0.955414  0.003  0.17579  0.002668  0.110501  0.001254  1.019854  0.002  0.11304  0.000923  1.017144  0.002  0.122489  0.108432  0.001501  1.021955  0.003
H  H9  1  0.51004483  0.17434085  0.99696131  1  0.104928  0.00149  0.955418  0.003  0.175773  0.002668  0.1105  0.001254  1.019859  0.002  0.11304  0.000923  1.017148  0.002  0.122486  0.108433  0.001501  1.02196  0.003
H  H10  1  0.21733621  0.28019500  0.37235884  1  0.105812  -0.000595  0.949922  -0.001  0.108954  -0.001044  0.11786  -0.000525  1.006328  -0.001  0.12046  -0.000392  1.005783  0.0  0.109627  0.115808  -0.00062  1.007108  -0.001
H  H11  1  0.71980504  0.78266255  0.12764015  1  0.105798  -0.000595  0.949924  -0.001  0.108965  -0.001044  0.117845  -0.000525  1.006335  -0.001  0.120445  -0.000392  1.005792  0.0  0.109615  0.115789  -0.00062  1.007119  -0.001
H  H12  1  0.78265639  0.71980576  0.62763943  1  0.105838  0.000596  0.949923  0.001  0.109018  0.001043  0.1179  0.000524  1.006317  0.001  0.1205  0.000392  1.005772  0.0  0.10962  0.115835  0.00062  1.00711  0.001
H  H13  1  0.28019371  0.21734465  0.87236081  1  0.10585  0.000597  0.949914  0.001  0.109038  0.001043  0.11791  0.000524  1.006305  0.001  0.120511  0.000392  1.005759  0.0  0.109626  0.11584  0.00062  1.007105  0.001
H  H14  1  0.42582109  0.16937083  0.45828478  1  0.112739  -0.000255  0.926052  0.0  0.136645  -4.3e-05  0.124548  -9e-06  0.980905  0.0  0.126875  1.9e-05  0.979432  0.0  0.11546  0.122697  -4.5e-05  0.982216  0.0
H  H15  1  0.83063084  0.57418027  0.04171484  1  0.112741  -0.000254  0.926083  0.0  0.136669  -4.4e-05  0.124548  -1e-05  0.98093  0.0  0.126876  1.9e-05  0.979454  0.0  0.115468  0.122694  -4.5e-05  0.982241  0.0
H  H16  1  0.57417215  0.83062866  0.54171262  1  0.112731  0.000255  0.926116  0.0  0.136716  4.3e-05  0.124545  9e-06  0.980958  0.0  0.126874  -1.9e-05  0.979478  0.0  0.115466  0.122694  4.5e-05  0.982271  0.0
H  H17  1  0.16937077  0.42582822  0.95828829  1  0.112694  0.000253  0.926126  0.0  0.13672  4.4e-05  0.124507  1e-05  0.98097  0.0  0.126836  -1.9e-05  0.979493  0.0  0.11545  0.122653  4.5e-05  0.982283  0.0
H  H18  1  0.57731601  0.29089857  0.66254303  1  0.131145  -0.000857  0.946982  -0.001  0.136622  -0.00133  0.139091  -0.000687  1.006286  -0.001  0.142767  -0.000479  1.003593  -0.001  0.116461  0.136329  -0.000852  1.008462  -0.001
H  H19  1  0.70910309  0.42268360  0.83745654  1  0.131086  -0.000857  0.946995  -0.001  0.136465  -0.001331  0.139027  -0.000687  1.006307  -0.001  0.142704  -0.000479  1.003614  -0.001  0.11643  0.136265  -0.000852  1.008483  -0.001
H  H20  1  0.42268032  0.70909713  0.33745348  1  0.131105  0.000858  0.946947  0.001  0.13651  0.00133  0.139078  0.000687  1.006222  0.001  0.142746  0.00048  1.00355  0.001  0.116448  0.136309  0.000852  1.008395  0.001
H  H21  1  0.29090222  0.57731980  0.16254715  1  0.131079  0.000858  0.946968  0.001  0.136581  0.00133  0.139049  0.000687  1.006251  0.001  0.14272  0.000479  1.003573  0.001  0.116434  0.136277  0.000852  1.008426  0.001
H  H22  1  0.85706388  0.88397602  0.29483041  1  0.106356  -0.000135  0.953957  0.0  0.049199  3.7e-05  0.116083  2e-06  1.016197  0.0  0.119605  5e-06  1.013883  0.0  0.107817  0.113589  -2e-06  1.017917  0.0
H  H23  1  0.11602679  0.14293552  0.20516986  1  0.106343  -0.000136  0.954  0.0  0.049134  3.7e-05  0.116065  2e-06  1.016242  0.0  0.119588  5e-06  1.013927  0.0  0.107826  0.113572  -2e-06  1.017964  0.0
H  H24  1  0.14293634  0.11602350  0.70517115  1  0.106339  0.000136  0.953956  0.0  0.049132  -3.7e-05  0.116063  -2e-06  1.016206  0.0  0.119585  -5e-06  1.013893  0.0  0.107823  0.113575  2e-06  1.017924  0.0
H  H25  1  0.88397580  0.85706405  0.79482897  1  0.10633  0.000137  0.953963  0.0  0.049184  -3.7e-05  0.116053  -2e-06  1.016214  0.0  0.119575  -5e-06  1.013899  0.0  0.107813  0.113562  2e-06  1.017934  0.0
C  C26  1  0.26125384  0.45732540  0.53045110  1  0.141643  0.006596  3.672793  0.008  0.461714  0.002441  0.112374  0.000809  3.931016  0.002  0.12259  0.001904  3.948743  0.003  0.054993  0.105867  -2.4e-05  3.91943  0.001
C  C27  1  0.54267309  0.73874505  0.96954789  1  0.141674  0.006598  3.672741  0.008  0.461623  0.002441  0.112367  0.000808  3.930996  0.002  0.122589  0.001905  3.948715  0.003  0.054973  0.105858  -2.3e-05  3.919405  0.001
C  C28  1  0.73874405  0.54267412  0.46954933  1  0.141752  -0.006579  3.672708  -0.007  0.461621  -0.002441  0.112489  -0.000809  3.930962  -0.002  0.122708  -0.001903  3.948685  -0.003  0.055  0.10598  2.4e-05  3.919373  -0.001
C  C29  1  0.45732706  0.26125707  0.03045018  1  0.141754  -0.006572  3.672722  -0.007  0.461599  -0.00244  0.112495  -0.000808  3.930967  -0.002  0.122715  -0.001903  3.948684  -0.003  0.054995  0.105985  2.4e-05  3.919377  -0.001
C  C30  1  0.28733955  0.32951609  0.46165910  1  -0.107149  -0.009421  3.711505  -0.01  -0.011284  -0.00667  -0.121518  -0.004606  3.965705  -0.005  -0.129502  -0.004107  3.987858  -0.005  -0.077855  -0.116395  -0.00493  3.950997  -0.006
C  C31  1  0.67048159  0.71265894  0.03834104  1  -0.1071  -0.009426  3.711436  -0.01  -0.01117  -0.006669  -0.121466  -0.004606  3.96564  -0.005  -0.129449  -0.004108  3.987791  -0.005  -0.077834  -0.116343  -0.00493  3.950927  -0.006
C  C32  1  0.71265494  0.67048084  0.53834120  1  -0.107239  0.009404  3.711408  0.01  -0.011466  0.006672  -0.121651  0.004607  3.96564  0.005  -0.129636  0.004106  3.987791  0.005  -0.077877  -0.116516  0.004931  3.950932  0.006
C  C33  1  0.32951843  0.28734572  0.96165972  1  -0.107265  0.009398  3.711408  0.01  -0.011444  0.00667  -0.121671  0.004606  3.96564  0.005  -0.129655  0.004107  3.98779  0.005  -0.077881  -0.116529  0.00493  3.950932  0.006
C  C34  1  0.40196758  0.26899576  0.50917328  1  0.016944  0.007525  3.675095  0.007  -0.030307  0.004027  -0.002925  0.002661  3.926871  0.003  0.001839  0.002898  3.944142  0.003  -0.055463  -0.006046  0.002447  3.915391  0.002
C  C35  1  0.73100550  0.59803262  0.99082632  1  0.016894  0.007527  3.675125  0.007  -0.030334  0.004026  -0.002968  0.002661  3.92688  0.003  0.001797  0.002899  3.944152  0.003  -0.055479  -0.006091  0.002447  3.915394  0.002
C  C36  1  0.59802917  0.73100376  0.49082466  1  0.016982  -0.007507  3.675141  -0.007  -0.030179  -0.004026  -0.002863  -0.002661  3.926885  -0.003  0.001904  -0.002897  3.944154  -0.003  -0.05543  -0.005988  -0.002447  3.915401  -0.002
C  C37  1  0.26899631  0.40197076  0.00917606  1  0.017034  -0.007498  3.675152  -0.007  -0.030217  -0.004025  -0.002822  -0.002661  3.926914  -0.003  0.001943  -0.002898  3.944184  -0.003  -0.055426  -0.005944  -0.002447  3.915424  -0.002
C  C38  1  0.48757204  0.33712511  0.62448085  1  -0.110659  -0.006223  3.659988  -0.006  0.068093  -0.003859  -0.130766  -0.002889  3.907376  -0.003  -0.136605  -0.002626  3.925587  -0.003  -0.06607  -0.127111  -0.003068  3.895456  -0.003
C  C39  1  0.66287417  0.51242753  0.87551914  1  -0.110547  -0.006226  3.659941  -0.006  0.068098  -0.003858  -0.130647  -0.002888  3.907305  -0.003  -0.136487  -0.002627  3.925517  -0.003  -0.066041  -0.126994  -0.003068  3.895381  -0.003
C  C40  1  0.51242882  0.66287315  0.37552062  1  -0.110624  0.006208  3.659995  0.006  0.068066  0.003858  -0.130748  0.002888  3.907354  0.003  -0.13659  0.002625  3.925558  0.003  -0.066078  -0.127085  0.003068  3.895434  0.003
C  C41  1  0.33712374  0.48757200  0.12447898  1  -0.110565  0.0062  3.659946  0.006  0.068122  0.003857  -0.13068  0.002887  3.907302  0.003  -0.13652  0.002626  3.925508  0.003  -0.066025  -0.127015  0.003068  3.89538  0.003
C  C42  1  0.45581144  0.46401505  0.68895121  1  0.166243  0.00229  3.765663  0.003  0.445825  -0.000339  0.164567  -0.000839  4.007878  0.0  0.171515  0.000319  4.030507  0.001  0.115185  0.160141  -0.001709  3.992749  -0.001
C  C43  1  0.53598472  0.54418737  0.81104796  1  0.166262  0.002291  3.765602  0.003  0.421574  -0.000328  0.164597  -0.000839  4.007793  0.0  0.171547  0.000319  4.030421  0.001  0.115262  0.160164  -0.001709  3.992665  -0.001
C  C44  1  0.54418774  0.53598193  0.31104748  1  0.166277  -0.002282  3.765684  -0.003  0.445767  0.000341  0.164621  0.000841  4.007882  0.0  0.171572  -0.000318  4.030506  -0.001  0.115238  0.160192  0.001709  3.992748  0.001
C  C45  1  0.46401955  0.45581349  0.18895287  1  0.166173  -0.002274  3.765726  -0.003  0.421673  0.000329  0.16451  0.00084  4.007937  0.0  0.171461  -0.000319  4.030561  -0.001  0.115154  0.16008  0.001709  3.992803  0.001
C  C46  1  0.11334620  0.93732835  0.55091608  1  -0.034501  -0.002474  3.700573  -0.003  -0.038163  -0.003112  -0.023729  -0.00241  3.938752  -0.003  -0.026846  -0.001382  3.957079  -0.002  0.003376  -0.021726  -0.003053  3.926314  -0.004
C  C47  1  0.06267231  0.88665274  0.94908403  1  -0.034533  -0.002451  3.700597  -0.003  -0.038245  -0.003113  -0.023753  -0.002411  3.938775  -0.003  -0.026872  -0.001382  3.957107  -0.002  0.003374  -0.021744  -0.003053  3.926325  -0.004
C  C48  1  0.88665286  0.06267117  0.44908530  1  -0.034423  0.002475  3.700517  0.003  -0.038227  0.00311  -0.023661  0.002409  3.938717  0.003  -0.026783  0.001381  3.957053  0.002  0.003374  -0.021653  0.003053  3.926269  0.004
C  C49  1  0.93733080  0.11334811  0.05091585  1  -0.034413  0.002452  3.700481  0.003  -0.038242  0.003111  -0.02366  0.002409  3.938667  0.003  -0.026777  0.001382  3.956994  0.002  0.003351  -0.021656  0.003053  3.926232  0.004
C  C50  1  0.03093737  0.87167467  0.43421001  1  -0.070454  -0.004062  3.734095  -0.004  0.011594  -0.002504  -0.058657  -0.00161  3.972008  -0.002  -0.064496  -0.001406  3.99364  -0.001  -0.0078  -0.054766  -0.001888  3.957409  -0.002
C  C51  1  0.12832847  0.96906313  0.06578895  1  -0.070472  -0.004083  3.73409  -0.004  0.011611  -0.0025  -0.058666  -0.001608  3.972021  -0.002  -0.064505  -0.001409  3.993654  -0.001  -0.007831  -0.054775  -0.001888  3.957423  -0.002
C  C52  1  0.96906222  0.12832614  0.56579088  1  -0.07051  0.004061  3.73411  0.004  0.011612  0.002503  -0.058718  0.001609  3.972025  0.002  -0.064557  0.001408  3.993656  0.001  -0.007814  -0.054832  0.001888  3.95744  0.002
C  C53  1  0.87167518  0.03093901  0.93421043  1  -0.070501  0.004081  3.734056  0.004  0.011602  0.002503  -0.058707  0.001609  3.971968  0.002  -0.064546  0.001407  3.993599  0.001  -0.007793  -0.05482  0.001889  3.95738  0.002
C  C54  1  0.91919021  0.93540078  0.38521517  1  -0.07563  0.005301  3.689713  0.005  0.045684  0.003395  -0.113  0.002207  3.947281  0.002  -0.113453  0.001894  3.966601  0.002  -0.075659  -0.112512  0.002532  3.934122  0.002
C  C55  1  0.06459884  0.08080710  0.11478585  1  -0.075577  0.005325  3.689712  0.005  0.045753  0.003394  -0.11293  0.002206  3.947257  0.002  -0.113383  0.001896  3.966576  0.002  -0.075626  -0.112443  0.002532  3.934102  0.002
C  C56  1  0.08080830  0.06459745  0.61478670  1  -0.075569  -0.005303  3.689691  -0.005  0.045713  -0.003396  -0.112943  -0.002207  3.947263  -0.002  -0.113395  -0.001894  3.966579  -0.002  -0.075667  -0.112458  -0.002532  3.934116  -0.002
C  C57  1  0.93540374  0.91919246  0.88521452  1  -0.075555  -0.005326  3.689716  -0.005  0.045745  -0.003396  -0.112927  -0.002207  3.947279  -0.002  -0.11338  -0.001893  3.966596  -0.002  -0.075652  -0.112442  -0.002532  3.934129  -0.002
C  C58  1  0.23393789  0.87690171  0.61364221  1  0.668709  0.00339  3.882836  0.006  1.660419  0.00076  0.618161  -0.000472  4.193798  0.002  0.656517  0.000161  4.183168  0.002  0.22075  0.591991  -0.001054  4.200464  0.002
C  C59  1  0.12309761  0.76606328  0.88635726  1  0.668713  0.003388  3.882854  0.006  1.660411  0.000759  0.618166  -0.000472  4.193813  0.002  0.656521  0.000162  4.183181  0.002  0.220751  0.591992  -0.001054  4.20048  0.002
C  C60  1  0.76606243  0.12309526  0.38635898  1  0.668645  -0.003389  3.882884  -0.006  1.660393  -0.000757  0.6181  0.000475  4.193842  -0.002  0.656457  -0.000163  4.183211  -0.002  0.22075  0.591925  0.001053  4.200511  -0.002
C  C61  1  0.87690551  0.23393758  0.11364107  1  0.668613  -0.003389  3.882918  -0.006  1.660575  -0.000757  0.618077  0.000475  4.19385  -0.002  0.656432  -0.000163  4.183221  -0.002  0.220748  0.591907  0.001053  4.200519  -0.002
C  C62  1  0.06257111  0.73483867  0.36381011  1  0.647106  0.000151  3.827512  0.0  1.577475  -8.1e-05  0.599616  -4.8e-05  4.125661  0.0  0.632181  -1.3e-05  4.116738  0.0  0.227831  0.577312  -8.5e-05  4.131382  0.0
C  C63  1  0.26516157  0.93742625  0.13618870  1  0.647048  0.000154  3.827579  0.0  1.577464  -8.1e-05  0.599497  -4.9e-05  4.12583  0.0  0.632063  -1.3e-05  4.116906  0.0  0.22778  0.577192  -8.5e-05  4.131551  0.0
C  C64  1  0.93742742  0.26515957  0.63619022  1  0.647058  -0.000155  3.827509  0.0  1.577458  8.3e-05  0.599598  5e-05  4.125609  0.0  0.632162  1.2e-05  4.116686  0.0  0.227837  0.577298  8.5e-05  4.131338  0.0
C  C65  1  0.73483932  0.06257203  0.86380967  1  0.647087  -0.000154  3.827469  0.0  1.577476  8.3e-05  0.599618  5e-05  4.125576  0.0  0.632183  1.2e-05  4.116652  0.0  0.227854  0.577318  8.5e-05  4.131301  0.0
N  N66  1  0.34391500  0.52235267  0.64099974  1  -0.343949  -0.088068  3.353065  -0.106  -1.275291  -0.093035  -0.301389  -0.063337  3.651807  -0.082  -0.333016  -0.05418  3.673867  -0.073  -0.352047  -0.282585  -0.067638  3.638978  -0.084
N  N67  1  0.47764586  0.65608241  0.85899981  1  -0.344064  -0.088068  3.353059  -0.106  -1.275297  -0.093035  -0.301483  -0.063338  3.651791  -0.082  -0.333111  -0.054181  3.673849  -0.073  -0.352121  -0.282678  -0.067641  3.638958  -0.084
N  N68  1  0.65608353  0.47764557  0.35900059  1  -0.343961  0.088057  3.353015  0.106  -1.275303  0.093036  -0.301449  0.063338  3.651802  0.082  -0.333072  0.054181  3.673858  0.073  -0.352067  -0.282649  0.067641  3.638968  0.084
N  N69  1  0.52235608  0.34391844  0.14099989  1  -0.343987  0.088051  3.35309  0.106  -1.275296  0.093033  -0.301477  0.063336  3.651884  0.082  -0.333098  0.05418  3.673937  0.073  -0.352081  -0.282678  0.06764  3.639053  0.084
O  O70  1  0.16035960  0.73969429  0.63621870  1  -0.579293  -0.087005  2.049817  -0.111  -1.147179  -0.083788  -0.550935  -0.055785  2.329967  -0.078  -0.591929  -0.044496  2.320654  -0.065  -0.322843  -0.523285  -0.062305  2.336105  -0.084
O  O71  1  0.26030563  0.83963949  0.86378055  1  -0.579285  -0.087004  2.049805  -0.111  -1.147181  -0.083787  -0.55094  -0.055784  2.32998  -0.078  -0.591943  -0.044495  2.320688  -0.065  -0.322846  -0.523291  -0.062305  2.336119  -0.084
O  O72  1  0.83963840  0.26030267  0.36378136  1  -0.579271  0.087006  2.04979  0.111  -1.147138  0.083783  -0.550919  0.055781  2.329942  0.078  -0.591899  0.044496  2.320604  0.065  -0.32283  -0.523274  0.062304  2.336077  0.084
O  O73  1  0.73969866  0.16036140  0.13621720  1  -0.579243  0.087005  2.049796  0.111  -1.1473  0.083783  -0.550892  0.055781  2.329926  0.078  -0.591883  0.044495  2.320611  0.065  -0.322823  -0.523249  0.062304  2.336062  0.084
O  O74  1  0.39206519  0.97142949  0.64641606  1  -0.596445  7.9e-05  1.991003  -0.001  -1.201441  -0.000477  -0.551868  -0.000124  2.222326  -0.001  -0.578254  0.000497  2.209992  0.0  -0.298964  -0.53324  -0.000645  2.230314  -0.001
O  O75  1  0.02856958  0.60793469  0.85358318  1  -0.596424  8e-05  1.991026  -0.001  -1.201469  -0.000476  -0.551864  -0.000123  2.222335  -0.001  -0.578249  0.000497  2.210003  0.0  -0.298961  -0.533234  -0.000645  2.230314  -0.001
O  O76  1  0.60793569  0.02856878  0.35358386  1  -0.596386  -8e-05  1.991071  0.001  -1.201442  0.000477  -0.551827  0.000124  2.222397  0.001  -0.578211  -0.000497  2.210062  0.0  -0.298961  -0.5332  0.000645  2.230383  0.001
O  O77  1  0.97143182  0.39206486  0.14641702  1  -0.59643  -8.1e-05  1.991062  0.001  -1.201459  0.000477  -0.551861  0.000123  2.222385  0.001  -0.578246  -0.000497  2.210051  0.0  -0.298976  -0.533229  0.000645  2.230363  0.001
O  O78  1  0.18180257  0.69796964  0.39926510  1  -0.528032  -0.000481  1.942978  -0.001  -1.161578  -0.000392  -0.484906  -0.000255  2.153882  0.0  -0.504254  -0.000229  2.146433  0.0  -0.274796  -0.471315  -0.000284  2.158688  0.0
O  O79  1  0.30202852  0.81819468  0.10073337  1  -0.527981  -0.000485  1.943145  -0.001  -1.16164  -0.000392  -0.48484  -0.000255  2.154084  0.0  -0.504189  -0.000229  2.146638  0.0  -0.274755  -0.471249  -0.000284  2.15889  0.0
O  O80  1  0.81820446  0.30203507  0.60073673  1  -0.527983  0.000484  1.94308  0.001  -1.161554  0.000391  -0.484869  0.000254  2.153965  0.0  -0.504216  0.000229  2.146511  0.0  -0.274809  -0.471277  0.000284  2.158779  0.0
O  O81  1  0.69796450  0.18179586  0.89926418  1  -0.528011  0.000485  1.943047  0.001  -1.161563  0.000391  -0.48489  0.000254  2.153926  0.0  -0.504236  0.000229  2.146471  0.0  -0.274812  -0.471297  0.000284  2.158738  0.0
O  O82  1  0.94853609  0.65639673  0.26045754  1  -0.575841  -0.00032  2.107987  0.0  -1.225816  -0.000418  -0.533614  -0.000268  2.341038  0.0  -0.556031  -0.000375  2.321729  0.0  -0.337944  -0.517845  -0.000155  2.354201  0.0
O  O83  1  0.34360703  0.05146430  0.23954148  1  -0.575783  -0.000319  2.107985  0.0  -1.225694  -0.000418  -0.53354  -0.000268  2.341034  0.0  -0.55596  -0.000375  2.321733  0.0  -0.337906  -0.517771  -0.000155  2.354197  0.0
O  O84  1  0.05146359  0.34360151  0.73954451  1  -0.575821  0.000319  2.107848  0.0  -1.225828  0.000417  -0.533629  0.000267  2.340863  0.0  -0.55605  0.000375  2.321562  0.0  -0.337943  -0.517855  0.000155  2.354024  0.0
O  O85  1  0.65639791  0.94853531  0.76045617  1  -0.575831  0.00032  2.107861  0.0  -1.225803  0.000418  -0.533614  0.000268  2.340919  0.0  -0.556035  0.000375  2.321618  0.0  -0.337953  -0.517841  0.000155  2.354079  0.0
