# generated using pymatgen
data_AlH9C15ClO5
_symmetry_space_group_name_H-M   'P 1'
_cell_length_a   6.62449320
_cell_length_b   11.15920991
_cell_length_c   17.59707831
_cell_angle_alpha   82.87532233
_cell_angle_beta   82.19227234
_cell_angle_gamma   71.21024398
_symmetry_Int_Tables_number   1
_chemical_formula_structural   AlH9C15ClO5
_chemical_formula_sum   'Al2 H18 C30 Cl2 O10'
_cell_volume   1215.62860387
_cell_formula_units_Z   2
loop_
 _symmetry_equiv_pos_site_id
 _symmetry_equiv_pos_as_xyz
  1  'x, y, z'
loop_
 _atom_site_type_symbol
 _atom_site_label
 _atom_site_symmetry_multiplicity
 _atom_site_fract_x
 _atom_site_fract_y
 _atom_site_fract_z
 _atom_site_occupancy
 _atom_site_pbe_bader_charge
 _atom_site_pbe_bader_spin_density
 _atom_site_pbe_cm5_charge
 _atom_site_pbe_ddec_charge
 _atom_site_pbe_ddec_spin_density
 _atom_site_pbe_ddec_sum_bond_order
 _atom_site_pbe_magmom
Al  Al0  1  0.48606534  0.50109770  0.50200394  1  2.503175  0  0.393819  1.64223  0  2.583539  0
Al  Al1  1  0.98625242  0.50104575  0.50029096  1  2.502084  0  0.395832  1.632909  0  2.583017  0
H  H2  1  0.30116306  0.34555879  0.54302229  1  0.608943  0  0.353189  0.428252  0  0.859257  0
H  H3  1  0.66810672  0.65822840  0.46501511  1  0.611592  0  0.34163  0.412288  0  0.89519  0
H  H4  1  0.58807276  0.58562708  0.27471326  1  0.11349  0  0.112137  0.121381  0  0.997218  0
H  H5  1  0.67555486  0.58404618  0.13170844  1  0.109975  0  0.103861  0.110611  0  1.005019  0
H  H6  1  0.07442033  0.43380371  0.26223103  1  0.129446  0  0.114374  0.133821  0  0.988137  0
H  H7  1  0.90823564  0.57634190  0.73341651  1  0.123623  0  0.115748  0.137459  0  0.983649  0
H  H8  1  0.39681978  0.41738182  0.73297345  1  0.104247  0  0.113725  0.12425  0  0.98478  0
H  H9  1  0.32840896  0.41909955  0.87646196  1  0.093299  0  0.10404  0.110367  0  1.002856  0
H  H10  1  0.22676278  0.23470263  0.39490169  1  0.082016  0  0.102968  0.114423  0  1.037934  0
H  H11  1  0.42813757  0.76583433  0.40025397  1  0.08123  0  0.105538  0.1072  0  1.056962  0
H  H12  1  0.74800178  0.88637453  0.55145298  1  0.093397  0  0.112524  0.117618  0  0.981303  0
H  H13  1  0.63543991  0.12345242  0.54285261  1  0.065388  0  0.109384  0.110491  0  0.993484  0
H  H14  1  0.76349424  0.10408564  0.32832544  1  0.046104  0  0.092321  0.128652  0  1.005743  0
H  H15  1  0.53432642  0.23815801  0.31359217  1  0.074879  0  0.090068  0.129337  0  1.015773  0
H  H16  1  0.62006804  0.11738109  0.24849310  1  0.046852  0  0.093982  0.128094  0  0.989711  0
H  H17  1  0.71760622  0.88296759  0.25174390  1  0.006809  0  0.094332  0.127687  0  0.990003  0
H  H18  1  0.74731355  0.75359507  0.32418821  1  -0.003593  0  0.094679  0.135042  0  1.000839  0
H  H19  1  0.86349406  0.87462893  0.33012948  1  0.021724  0  0.093259  0.130604  0  1.001213  0
C  C20  1  0.85573034  0.27581476  0.48636426  1  1.573762  0  0.27431  0.656528  0  4.071579  0
C  C21  1  0.69879219  0.49241034  0.63984852  1  1.571273  0  0.266618  0.634969  0  4.105805  0
C  C22  1  0.12218149  0.72812744  0.50203227  1  1.576428  0  0.273654  0.655032  0  4.082558  0
C  C23  1  0.27611895  0.51232932  0.36162551  1  1.544528  0  0.261597  0.622243  0  4.122673  0
C  C24  1  0.32549846  0.51093302  0.27651834  1  0.019751  0  -0.013479  -0.029634  0  3.986404  0
C  C25  1  0.49598055  0.55253261  0.23992645  1  0.008333  0  -0.081533  -0.094171  0  3.975735  0
C  C26  1  0.54472681  0.55120216  0.16091871  1  -0.07019  0  -0.07895  -0.107601  0  3.94959  0
C  C27  1  0.42812596  0.50534197  0.11614292  1  0.116848  0  -0.000557  0.084261  0  4.091029  0
C  C28  1  0.25861891  0.46188882  0.15436128  1  0.004691  0  0.020123  0.105321  0  4.002349  0
C  C29  1  0.20597191  0.46628386  0.23341574  1  0.013312  0  -0.084445  -0.161122  0  3.966516  0
C  C30  1  0.48120479  0.50351007  0.03594761  1  -0.041976  0  -0.043386  -0.090687  0  4.130234  0
C  C31  1  0.52983992  0.50393049  0.96652357  1  -0.244587  0  -0.040881  -0.082834  0  4.126402  0
C  C32  1  0.57529376  0.50171513  0.88604014  1  0.130664  0  -0.001975  0.080087  0  4.092267  0
C  C33  1  0.73845465  0.54723386  0.84436607  1  0.035885  0  0.020706  0.10827  0  4.004665  0
C  C34  1  0.78096222  0.54262184  0.76500839  1  0.010302  0  -0.084017  -0.161808  0  3.958151  0
C  C35  1  0.65716301  0.49565033  0.72514794  1  0.02666  0  -0.010719  -0.020649  0  3.969905  0
C  C36  1  0.49249695  0.45219651  0.76522594  1  0.02012  0  -0.08096  -0.095868  0  3.97895  0
C  C37  1  0.45421094  0.45368775  0.84449836  1  -0.081556  0  -0.07862  -0.105969  0  3.951384  0
C  C38  1  0.93021997  0.13583146  0.48075830  1  -0.002107  0  -0.008097  -0.085265  0  3.935367  0
C  C39  1  0.13352754  0.06946422  0.44252702  1  -0.084992  0  -0.002144  0.059115  0  3.985981  0
C  C40  1  0.79194686  0.07032601  0.51634464  1  -0.03611  0  -0.08112  -0.091653  0  4.003461  0
C  C41  1  0.27222835  0.13147889  0.39783906  1  -0.013712  0  -0.097469  -0.203834  0  3.946333  0
C  C42  1  0.46127627  0.06568390  0.35710284  1  -0.02704  0  -0.005616  0.122394  0  3.949334  0
C  C43  1  0.05549636  0.86921919  0.48893442  1  -0.048237  0  -0.006894  -0.080155  0  3.945837  0
C  C44  1  0.85451745  0.93727381  0.52096628  1  -0.009486  0  -0.082189  -0.096303  0  4.003542  0
C  C45  1  0.19527835  0.93323209  0.44571483  1  0.063535  0  -0.003384  0.059762  0  3.989006  0
C  C46  1  0.38761341  0.86818062  0.40217693  1  -0.076734  0  -0.099804  -0.214478  0  3.97299  0
C  C47  1  0.52020133  0.93024284  0.35903771  1  0.010471  0  -0.007131  0.120838  0  3.958896  0
C  C48  1  0.60125327  0.13538999  0.30959530  1  -0.116154  0  -0.236805  -0.400065  0  3.965625  0
C  C49  1  0.72204220  0.85619476  0.31402245  1  0.040185  0  -0.235325  -0.402405  0  3.963619  0
Cl  Cl50  1  0.11562302  0.40236147  0.10191172  1  -0.207402  0  -0.001432  -0.077244  0  1.49965  0
Cl  Cl51  1  0.88593737  0.60970319  0.89299004  1  -0.202934  0  -0.003987  -0.080216  0  1.495915  0
O  O52  1  0.65782349  0.33323678  0.47975385  1  -1.26337  0  -0.233792  -0.59218  0  2.336573  0
O  O53  1  0.87166773  0.51059802  0.60735583  1  -1.258707  0  -0.236521  -0.583338  0  2.32821  0
O  O54  1  0.98387938  0.67404488  0.49493324  1  -1.254838  0  -0.230807  -0.591534  0  2.347622  0
O  O55  1  0.41270354  0.53555162  0.39727577  1  -1.263266  0  -0.238647  -0.599092  0  2.388231  0
O  O56  1  0.31136771  0.67082684  0.52001200  1  -1.266453  0  -0.235926  -0.590477  0  2.337405  0
O  O57  1  0.10364190  0.49139755  0.39237736  1  -1.254878  0  -0.237064  -0.583223  0  2.333304  0
O  O58  1  0.98993784  0.32835267  0.50037987  1  -1.264464  0  -0.231999  -0.595444  0  2.349356  0
O  O59  1  0.55741534  0.47022987  0.60607447  1  -1.263822  0  -0.238614  -0.600212  0  2.351842  0
O  O60  1  0.25842094  0.43713763  0.53280622  1  -1.411205  0  -0.447887  -0.985336  0  2.198035  0
O  O61  1  0.71267387  0.56593070  0.46908519  1  -1.41721  0  -0.452243  -0.988739  0  2.209397  0
