# generated using pymatgen
data_CdH11C8N5Cl2O3
_symmetry_space_group_name_H-M   'P 1'
_cell_length_a   7.24581353
_cell_length_b   8.14907017
_cell_length_c   12.16679287
_cell_angle_alpha   82.68218657
_cell_angle_beta   72.31222082
_cell_angle_gamma   80.02363658
_symmetry_Int_Tables_number   1
_chemical_formula_structural   CdH11C8N5Cl2O3
_chemical_formula_sum   'Cd2 H22 C16 N10 Cl4 O6'
_cell_volume   671.95549363
_cell_formula_units_Z   2
loop_
 _symmetry_equiv_pos_site_id
 _symmetry_equiv_pos_as_xyz
  1  'x, y, z'
loop_
 _atom_site_type_symbol
 _atom_site_label
 _atom_site_symmetry_multiplicity
 _atom_site_fract_x
 _atom_site_fract_y
 _atom_site_fract_z
 _atom_site_occupancy
 _atom_site_hle17_bader_spin_density
 _atom_site_hle17_ddec_charge
 _atom_site_hle17_ddec_spin_density
 _atom_site_hle17_ddec_sum_bond_order
 _atom_site_hle17_magmom
 _atom_site_hse06_10hf_bader_spin_density
 _atom_site_hse06_10hf_ddec_charge
 _atom_site_hse06_10hf_ddec_spin_density
 _atom_site_hse06_10hf_ddec_sum_bond_order
 _atom_site_hse06_10hf_magmom
 _atom_site_hse06_bader_spin_density
 _atom_site_hse06_ddec_charge
 _atom_site_hse06_ddec_spin_density
 _atom_site_hse06_ddec_sum_bond_order
 _atom_site_hse06_magmom
 _atom_site_pbe_bader_spin_density
 _atom_site_pbe_cm5_charge
 _atom_site_pbe_ddec_charge
 _atom_site_pbe_ddec_spin_density
 _atom_site_pbe_ddec_sum_bond_order
 _atom_site_pbe_magmom
Cd  Cd0  1  0.71809320  0.97630794  0.06464619  1  0  1.016129  0  1.90513  0  0  0.856482  0  2.366498  0  0  0.903726  0  2.323057  0  0  0.599144  0.82301  0  2.396069  0
Cd  Cd1  1  0.28191558  0.02369792  0.93535033  1  0  1.016143  0  1.905082  0  0  0.856508  0  2.366442  0  0  0.90375  0  2.323  0  0  0.599148  0.82303  0  2.396013  0
H  H2  1  0.24174763  0.81744607  0.56724768  1  0  0.33036  0  0.828144  0  0  0.322374  0  0.868641  0  0  0.330172  0  0.863104  0  0  0.343276  0.316818  0  0.87277  0
H  H3  1  0.75824516  0.18254936  0.43276210  1  0  0.33026  0  0.828211  0  0  0.322321  0  0.868702  0  0  0.330122  0  0.863163  0  0  0.343236  0.316764  0  0.872833  0
H  H4  1  0.97608215  0.18225874  0.69807102  1  0  0.348174  0  0.881685  0  0  0.330905  0  0.944604  0  0  0.338797  0  0.937854  0  0  0.313129  0.325241  0  0.949504  0
H  H5  1  0.02391152  0.81774051  0.30193587  1  0  0.348089  0  0.881706  0  0  0.330814  0  0.944641  0  0  0.338707  0  0.937897  0  0  0.313095  0.325152  0  0.949541  0
H  H6  1  0.03340586  0.97088094  0.72644534  1  0  0.330971  0  0.916919  0  0  0.312495  0  0.985619  0  0  0.320316  0  0.978906  0  0  0.281343  0.306936  0  0.990408  0
H  H7  1  0.96659063  0.02912714  0.27355880  1  0  0.33101  0  0.916856  0  0  0.312545  0  0.985532  0  0  0.320366  0  0.978817  0  0  0.281376  0.306987  0  0.990321  0
H  H8  1  0.52813576  0.35482055  0.13615896  1  0  0.102999  0  0.935842  0  0  0.10957  0  1.004112  0  0  0.112314  0  1.000585  0  0  0.131273  0.107511  0  1.006655  0
H  H9  1  0.47187031  0.64517653  0.86383782  1  0  0.10298  0  0.935874  0  0  0.109557  0  1.004137  0  0  0.112292  0  1.000618  0  0  0.131255  0.107499  0  1.00668  0
H  H10  1  0.20680073  0.54111053  0.41064985  1  0  0.091441  0  0.897242  0  0  0.097097  0  0.965396  0  0  0.09931  0  0.96163  0  0  0.127604  0.095343  0  0.968293  0
H  H11  1  0.79321698  0.45888197  0.58933219  1  0  0.091476  0  0.897148  0  0  0.097033  0  0.965393  0  0  0.099254  0  0.961629  0  0  0.127555  0.095285  0  0.968275  0
H  H12  1  0.34102244  0.59344493  0.26220749  1  0  0.065109  0  0.94361  0  0  0.072022  0  1.016295  0  0  0.072999  0  1.01476  0  0  0.108583  0.071175  0  1.017501  0
H  H13  1  0.65898575  0.40653347  0.73778700  1  0  0.065065  0  0.943636  0  0  0.072001  0  1.016293  0  0  0.072983  0  1.014759  0  0  0.108562  0.071153  0  1.017501  0
H  H14  1  0.11928693  0.40920624  0.15075016  1  0  0.057863  0  0.961444  0  0  0.066646  0  1.035599  0  0  0.067322  0  1.034952  0  0  0.084696  0.066097  0  1.03615  0
H  H15  1  0.88071371  0.59079706  0.84924625  1  0  0.057813  0  0.961575  0  0  0.066687  0  1.035672  0  0  0.067366  0  1.035021  0  0  0.084709  0.066139  0  1.036225  0
H  H16  1  0.16315948  0.62327971  0.12155023  1  0  0.061843  0  0.970486  0  0  0.074804  0  1.039242  0  0  0.075168  0  1.039208  0  0  0.083951  0.074404  0  1.039489  0
H  H17  1  0.83684876  0.37672860  0.87844785  1  0  0.061881  0  0.97043  0  0  0.074841  0  1.03924  0  0  0.075198  0  1.039218  0  0  0.083977  0.074438  0  1.039485  0
H  H18  1  0.86010796  0.57718442  0.07836182  1  0  0.050671  0  0.940864  0  0  0.064408  0  1.010184  0  0  0.06368  0  1.011021  0  0  0.090577  0.064819  0  1.009701  0
H  H19  1  0.13988853  0.42282978  0.92164847  1  0  0.0507  0  0.940673  0  0  0.064405  0  1.010045  0  0  0.063677  0  1.010885  0  0  0.09055  0.064817  0  1.009562  0
H  H20  1  0.76139205  0.50415900  0.22587489  1  0  0.049448  0  0.918771  0  0  0.063927  0  0.983134  0  0  0.064587  0  0.98163  0  0  0.096092  0.06328  0  0.984388  0
H  H21  1  0.23861890  0.49585061  0.77412183  1  0  0.049415  0  0.918759  0  0  0.063892  0  0.98313  0  0  0.064556  0  0.981627  0  0  0.096064  0.063242  0  0.984382  0
H  H22  1  0.67335007  0.75881400  0.26857889  1  0  0.375655  0  0.920946  0  0  0.349905  0  0.990573  0  0  0.361112  0  0.978522  0  0  0.291567  0.342024  0  0.998973  0
H  H23  1  0.32665109  0.24118547  0.73142099  1  0  0.375641  0  0.920891  0  0  0.349932  0  0.99045  0  0  0.361119  0  0.978439  0  0  0.291593  0.342049  0  0.99885  0
C  C24  1  0.14406424  0.07313502  0.55806572  1  0  0.662499  0  3.810693  0  0  0.606781  0  4.105562  0  0  0.63539  0  4.109957  0  0  0.351672  0.587666  0  4.101951  0
C  C25  1  0.85593567  0.92686453  0.44193026  1  0  0.66263  0  3.8109  0  0  0.607012  0  4.105713  0  0  0.635625  0  4.1101  0  0  0.351727  0.587895  0  4.102105  0
C  C26  1  0.28276250  0.20806946  0.38984607  1  0  0.323894  0  3.847004  0  0  0.282846  0  4.125907  0  0  0.301056  0  4.140321  0  0  0.219108  0.27097  0  4.115911  0
C  C27  1  0.71723444  0.79193613  0.61015818  1  0  0.323856  0  3.84713  0  0  0.28292  0  4.125952  0  0  0.301151  0  4.140368  0  0  0.219089  0.271036  0  4.115957  0
C  C28  1  0.40382771  0.06678309  0.33968942  1  0  -0.099486  0  3.817444  0  0  -0.102647  0  4.085197  0  0  -0.114216  0  4.109964  0  0  0.054587  -0.095573  0  4.068947  0
C  C29  1  0.59616204  0.93320612  0.66031802  1  0  -0.099509  0  3.817597  0  0  -0.102708  0  4.085334  0  0  -0.114277  0  4.110097  0  0  0.054662  -0.095637  0  4.069086  0
C  C30  1  0.39300151  0.91020275  0.40651540  1  0  0.539257  0  3.868809  0  0  0.487399  0  4.167985  0  0  0.517039  0  4.168841  0  0  0.226732  0.467558  0  4.166901  0
C  C31  1  0.60699151  0.08979280  0.59348940  1  0  0.53927  0  3.869159  0  0  0.487499  0  4.168283  0  0  0.517138  0  4.169135  0  0  0.226755  0.46766  0  4.167202  0
C  C32  1  0.46841380  0.27731475  0.21414867  1  0  0.195558  0  3.657349  0  0  0.129525  0  3.935034  0  0  0.144912  0  3.946114  0  0  0.149464  0.119437  0  3.927328  0
C  C33  1  0.53158850  0.72268594  0.78585259  1  0  0.195556  0  3.657667  0  0  0.129533  0  3.935364  0  0  0.144949  0  3.946457  0  0  0.149464  0.119433  0  3.927655  0
C  C34  1  0.23645035  0.51483374  0.32034758  1  0  0.179334  0  3.64461  0  0  0.104261  0  3.910427  0  0  0.116907  0  3.912299  0  0  0.034547  0.095753  0  3.909135  0
C  C35  1  0.76355839  0.48515851  0.67964254  1  0  0.179417  0  3.644549  0  0  0.104458  0  3.910306  0  0  0.117106  0  3.912201  0  0  0.034665  0.095935  0  3.909014  0
C  C36  1  0.06486585  0.53733449  0.17723827  1  0  0.023599  0  3.646664  0  0  -0.03732  0  3.921125  0  0  -0.031321  0  3.926262  0  0  -0.093445  -0.041347  0  3.917615  0
C  C37  1  0.93512069  0.46267766  0.82274913  1  0  0.023652  0  3.646605  0  0  -0.037361  0  3.92121  0  0  -0.03137  0  3.926357  0  0  -0.093444  -0.04139  0  3.917694  0
C  C38  1  0.85958115  0.58784277  0.16766296  1  0  0.129258  0  3.651547  0  0  0.06454  0  3.929505  0  0  0.072673  0  3.93504  0  0  -0.084118  0.059064  0  3.925707  0
C  C39  1  0.14041884  0.41216293  0.83233749  1  0  0.12916  0  3.651043  0  0  0.064499  0  3.929043  0  0  0.072627  0  3.934591  0  0  -0.084122  0.059027  0  3.925247  0
N  N40  1  0.25698763  0.92667197  0.51656308  1  0  -0.506078  0  3.252748  0  0  -0.443867  0  3.490831  0  0  -0.466471  0  3.494926  0  0  -0.379096  -0.428726  0  3.487888  0
N  N41  1  0.74301885  0.07331238  0.48344361  1  0  -0.506057  0  3.252982  0  0  -0.444033  0  3.491187  0  0  -0.46664  0  3.49528  0  0  -0.379121  -0.428891  0  3.488243  0
N  N42  1  0.01939041  0.06771175  0.66562387  1  0  -0.685751  0  3.058446  0  0  -0.653362  0  3.297237  0  0  -0.674754  0  3.29222  0  0  -0.571175  -0.638424  0  3.300393  0
N  N43  1  0.98061121  0.93229270  0.33437723  1  0  -0.68576  0  3.058485  0  0  -0.653367  0  3.297208  0  0  -0.674758  0  3.292187  0  0  -0.571179  -0.638429  0  3.300365  0
N  N44  1  0.15164826  0.21815436  0.49415190  1  0  -0.511015  0  2.982043  0  0  -0.4889  0  3.274984  0  0  -0.508339  0  3.280988  0  0  -0.347089  -0.475875  0  3.270579  0
N  N45  1  0.84833503  0.78184738  0.50585242  1  0  -0.511107  0  2.982085  0  0  -0.489087  0  3.275032  0  0  -0.508529  0  3.281029  0  0  -0.347187  -0.47606  0  3.27063  0
N  N46  1  0.51746969  0.11377483  0.22947812  1  0  -0.371195  0  3.22069  0  0  -0.310729  0  3.500909  0  0  -0.328284  0  3.519212  0  0  -0.348461  -0.298621  0  3.488349  0
N  N47  1  0.48252821  0.88621830  0.77052441  1  0  -0.37129  0  3.221012  0  0  -0.310813  0  3.501242  0  0  -0.328367  0  3.519534  0  0  -0.348581  -0.298705  0  3.488685  0
N  N48  1  0.32767496  0.34103838  0.30867685  1  0  -0.174462  0  3.463647  0  0  -0.08484  0  3.689562  0  0  -0.102585  0  3.708288  0  0  -0.239512  -0.073079  0  3.676565  0
N  N49  1  0.67232019  0.65896227  0.69132394  1  0  -0.174464  0  3.463597  0  0  -0.084884  0  3.68949  0  0  -0.102699  0  3.708292  0  0  -0.239465  -0.073091  0  3.676459  0
Cl  Cl50  1  0.98265255  0.15835996  0.09309065  1  0  -0.575603  0  0.990011  0  0  -0.509095  0  1.267755  0  0  -0.528926  0  1.247008  0  0  -0.282664  -0.494863  0  1.281855  0
Cl  Cl51  1  0.01734984  0.84164962  0.90690502  1  0  -0.575596  0  0.990056  0  0  -0.509098  0  1.267809  0  0  -0.528929  0  1.247065  0  0  -0.282665  -0.494866  0  1.28191  0
Cl  Cl52  1  0.55785875  0.20262483  0.93537113  1  0  -0.582291  0  0.979039  0  0  -0.520537  0  1.257622  0  0  -0.539509  0  1.236143  0  0  -0.302813  -0.506866  0  1.272122  0
Cl  Cl53  1  0.44214945  0.79737599  0.06462668  1  0  -0.582289  0  0.979007  0  0  -0.520542  0  1.257588  0  0  -0.539513  0  1.23611  0  0  -0.302827  -0.506871  0  1.272089  0
O  O54  1  0.48635676  0.76872797  0.38198488  1  0  -0.547732  0  1.956242  0  0  -0.501253  0  2.173442  0  0  -0.522375  0  2.164988  0  0  -0.298296  -0.486625  0  2.178806  0
O  O55  1  0.51366177  0.23124519  0.61802310  1  0  -0.547537  0  1.956727  0  0  -0.501146  0  2.173982  0  0  -0.522258  0  2.16553  0  0  -0.298264  -0.486524  0  2.179347  0
O  O56  1  0.05425105  0.54587099  0.29685881  1  0  -0.30306  0  2.247041  0  0  -0.23999  0  2.500764  0  0  -0.254989  0  2.498377  0  0  -0.225455  -0.229367  0  2.502022  0
O  O57  1  0.94574209  0.45413346  0.70313957  1  0  -0.30303  0  2.247363  0  0  -0.240003  0  2.501171  0  0  -0.254994  0  2.49878  0  0  -0.225474  -0.229373  0  2.502424  0
O  O58  1  0.78952904  0.75698608  0.19725637  1  0  -0.57742  0  2.200171  0  0  -0.503445  0  2.449165  0  0  -0.525715  0  2.438438  0  0  -0.415208  -0.487739  0  2.456213  0
O  O59  1  0.21046586  0.24302464  0.80274127  1  0  -0.577347  0  2.200104  0  0  -0.50342  0  2.449153  0  0  -0.525647  0  2.438383  0  0  -0.415168  -0.487706  0  2.456188  0
