# generated using pymatgen
data_Cd2H5C2S2N5O8
_symmetry_space_group_name_H-M   'P 1'
_cell_length_a   6.76101832
_cell_length_b   9.22279718
_cell_length_c   9.79636924
_cell_angle_alpha   65.09128132
_cell_angle_beta   72.32183720
_cell_angle_gamma   71.19648676
_symmetry_Int_Tables_number   1
_chemical_formula_structural   Cd2H5C2S2N5O8
_chemical_formula_sum   'Cd4 H10 C4 S4 N10 O16'
_cell_volume   514.33824650
_cell_formula_units_Z   2
loop_
 _symmetry_equiv_pos_site_id
 _symmetry_equiv_pos_as_xyz
  1  'x, y, z'
loop_
 _atom_site_type_symbol
 _atom_site_label
 _atom_site_symmetry_multiplicity
 _atom_site_fract_x
 _atom_site_fract_y
 _atom_site_fract_z
 _atom_site_occupancy
 _atom_site_hle17_bader_spin_density
 _atom_site_hle17_ddec_charge
 _atom_site_hle17_ddec_spin_density
 _atom_site_hle17_ddec_sum_bond_order
 _atom_site_hle17_magmom
 _atom_site_hse06_10hf_bader_spin_density
 _atom_site_hse06_10hf_ddec_charge
 _atom_site_hse06_10hf_ddec_spin_density
 _atom_site_hse06_10hf_ddec_sum_bond_order
 _atom_site_hse06_10hf_magmom
 _atom_site_hse06_bader_spin_density
 _atom_site_hse06_ddec_charge
 _atom_site_hse06_ddec_spin_density
 _atom_site_hse06_ddec_sum_bond_order
 _atom_site_hse06_magmom
 _atom_site_pbe_bader_spin_density
 _atom_site_pbe_cm5_charge
 _atom_site_pbe_ddec_charge
 _atom_site_pbe_ddec_spin_density
 _atom_site_pbe_ddec_sum_bond_order
 _atom_site_pbe_magmom
Cd  Cd0  1  0.86723216  0.78042900  0.60664053  1  0  1.325373  0  1.555611  0  0  1.152413  0  1.999957  0  0  1.203104  0  1.944481  0  0  0.832519  1.115801  0  2.038425  0
Cd  Cd1  1  0.13277290  0.21957398  0.39335882  1  0  1.325413  0  1.555591  0  0  1.152457  0  1.999931  0  0  1.203145  0  1.944461  0  0  0.832516  1.115861  0  2.038367  0
Cd  Cd2  1  0.32329629  0.39876266  0.65828222  1  0  1.308083  0  1.654583  0  0  1.141732  0  2.099863  0  0  1.189967  0  2.046016  0  0  0.830455  1.106839  0  2.137539  0
Cd  Cd3  1  0.67670944  0.60123295  0.34171989  1  0  1.308134  0  1.654545  0  0  1.141779  0  2.099817  0  0  1.190016  0  2.045973  0  0  0.830459  1.106893  0  2.137493  0
H  H4  1  0.74395382  0.49233659  0.92655111  1  0  0.346836  0  0.908076  0  0  0.326195  0  0.974339  0  0  0.333666  0  0.967963  0  0  0.303064  0.320888  0  0.978904  0
H  H5  1  0.25604507  0.50766636  0.07344747  1  0  0.346826  0  0.908109  0  0  0.32618  0  0.97437  0  0  0.33365  0  0.967994  0  0  0.303057  0.320873  0  0.978931  0
H  H6  1  0.68459404  0.46320339  0.11863816  1  0  0.34519  0  0.885289  0  0  0.327865  0  0.94828  0  0  0.334669  0  0.942436  0  0  0.308431  0.322979  0  0.952605  0
H  H7  1  0.31538482  0.53680435  0.88135955  1  0  0.345264  0  0.885225  0  0  0.327869  0  0.948297  0  0  0.334679  0  0.942441  0  0  0.308448  0.322983  0  0.952623  0
H  H8  1  0.74492098  0.12039704  0.02207504  1  0  0.364679  0  0.89465  0  0  0.346319  0  0.953058  0  0  0.354193  0  0.946349  0  0  0.308392  0.340721  0  0.957911  0
H  H9  1  0.25508363  0.87960225  0.97792688  1  0  0.364648  0  0.894666  0  0  0.346319  0  0.953035  0  0  0.354175  0  0.946359  0  0  0.308407  0.340725  0  0.957879  0
H  H10  1  0.67790537  0.97324903  0.20263583  1  0  0.362666  0  0.86432  0  0  0.344968  0  0.927355  0  0  0.351803  0  0.92153  0  0  0.312287  0.340255  0  0.931282  0
H  H11  1  0.32209964  0.02674903  0.79736444  1  0  0.362673  0  0.864318  0  0  0.344968  0  0.927363  0  0  0.351802  0  0.921539  0  0  0.312276  0.340255  0  0.931288  0
H  H12  1  0.87282675  0.02517128  0.78381077  1  0  0.325016  0  0.88476  0  0  0.302964  0  0.950767  0  0  0.310686  0  0.944609  0  0  0.327178  0.297388  0  0.955433  0
H  H13  1  0.12717750  0.97482924  0.21618972  1  0  0.325026  0  0.88476  0  0  0.30301  0  0.950723  0  0  0.31073  0  0.944565  0  0  0.327196  0.297435  0  0.955386  0
C  C14  1  0.75882545  0.68389779  0.97948291  1  0  0.632044  0  3.866074  0  0  0.577843  0  4.155533  0  0  0.605972  0  4.161325  0  0  0.330232  0.558709  0  4.151163  0
C  C15  1  0.24117535  0.31610393  0.02051679  1  0  0.63207  0  3.866082  0  0  0.57787  0  4.155504  0  0  0.605999  0  4.161297  0  0  0.330226  0.558732  0  4.151141  0
C  C16  1  0.76033189  0.89768391  0.02122625  1  0  0.646148  0  3.836453  0  0  0.580316  0  4.13216  0  0  0.609335  0  4.136389  0  0  0.348013  0.560997  0  4.128733  0
C  C17  1  0.23966928  0.10231659  0.97877385  1  0  0.646316  0  3.836419  0  0  0.580458  0  4.132187  0  0  0.609478  0  4.136409  0  0  0.348068  0.561139  0  4.12876  0
S  S18  1  0.63870656  0.19016322  0.42635488  1  0  1.613031  0  5.779779  0  0  1.488394  0  6.308998  0  0  1.545743  0  6.274214  0  0  0.562946  1.448475  0  6.33199  0
S  S19  1  0.36129157  0.80983727  0.57364176  1  0  1.613072  0  5.779553  0  0  1.488429  0  6.308786  0  0  1.545774  0  6.274005  0  0  0.56293  1.448514  0  6.331787  0
S  S20  1  0.17245591  0.62747818  0.30308816  1  0  1.60329  0  5.792443  0  0  1.468571  0  6.335146  0  0  1.52623  0  6.299832  0  0  0.567698  1.428513  0  6.358522  0
S  S21  1  0.82754596  0.37251986  0.69691583  1  0  1.603196  0  5.792502  0  0  1.468474  0  6.33521  0  0  1.526131  0  6.299902  0  0  0.567679  1.428421  0  6.358596  0
N  N22  1  0.81229903  0.79360290  0.84049451  1  0  -0.434135  0  3.024391  0  0  -0.383627  0  3.318649  0  0  -0.406133  0  3.329775  0  0  -0.290445  -0.368108  0  3.310773  0
N  N23  1  0.18770369  0.20639761  0.15950527  1  0  -0.43417  0  3.024364  0  0  -0.383637  0  3.31866  0  0  -0.406141  0  3.329775  0  0  -0.290441  -0.368119  0  3.310781  0
N  N24  1  0.72648882  0.74358427  0.09359046  1  0  -0.666149  0  3.071644  0  0  -0.587726  0  3.364208  0  0  -0.61689  0  3.367575  0  0  -0.385873  -0.567901  0  3.361656  0
N  N25  1  0.27351235  0.25641623  0.90640964  1  0  -0.666188  0  3.071593  0  0  -0.587744  0  3.364157  0  0  -0.616905  0  3.367521  0  0  -0.385882  -0.567922  0  3.361611  0
N  N26  1  0.81082262  0.92978635  0.86896823  1  0  -0.293967  0  3.335443  0  0  -0.238924  0  3.581101  0  0  -0.254029  0  3.5928  0  0  -0.298841  -0.229021  0  3.573326  0
N  N27  1  0.18918237  0.07021171  0.13103307  1  0  -0.293962  0  3.335448  0  0  -0.239  0  3.5812  0  0  -0.254104  0  3.592897  0  0  -0.298863  -0.229097  0  3.573419  0
N  N28  1  0.74095890  0.53218224  0.00953919  1  0  -0.684769  0  3.074127  0  0  -0.649935  0  3.315381  0  0  -0.669053  0  3.308755  0  0  -0.583907  -0.636588  0  3.319936  0
N  N29  1  0.25904228  0.46781826  0.99045988  1  0  -0.684879  0  3.074138  0  0  -0.649953  0  3.315464  0  0  -0.669073  0  3.308826  0  0  -0.583931  -0.636605  0  3.320019  0
N  N30  1  0.74759918  0.00003751  0.08970990  1  0  -0.695182  0  3.035679  0  0  -0.66044  0  3.28029  0  0  -0.679728  0  3.273701  0  0  -0.576928  -0.647187  0  3.284528  0
N  N31  1  0.25240391  0.99996177  0.91029029  1  0  -0.695268  0  3.035696  0  0  -0.660519  0  3.2803  0  0  -0.679798  0  3.27374  0  0  -0.576961  -0.647268  0  3.284533  0
O  O32  1  0.80027053  0.03452434  0.43209281  1  0  -0.754274  0  2.037555  0  0  -0.684325  0  2.325452  0  0  -0.709845  0  2.304096  0  0  -0.366151  -0.66613  0  2.339593  0
O  O33  1  0.19971606  0.96547365  0.56789899  1  0  -0.754387  0  2.037598  0  0  -0.68444  0  2.325501  0  0  -0.709964  0  2.304154  0  0  -0.366157  -0.66621  0  2.339563  0
O  O34  1  0.49582082  0.22878636  0.32115988  1  0  -0.73301  0  1.962749  0  0  -0.668827  0  2.229217  0  0  -0.693085  0  2.210726  0  0  -0.361873  -0.651903  0  2.241697  0
O  O35  1  0.50417785  0.77122765  0.67883338  1  0  -0.733002  0  1.962739  0  0  -0.668759  0  2.229087  0  0  -0.693015  0  2.210596  0  0  -0.361848  -0.651847  0  2.241586  0
O  O36  1  0.02956321  0.76650685  0.34931689  1  0  -0.737095  0  1.995412  0  0  -0.67308  0  2.271822  0  0  -0.697068  0  2.252653  0  0  -0.347646  -0.656019  0  2.284597  0
O  O37  1  0.97043712  0.23349118  0.65068639  1  0  -0.737073  0  1.995424  0  0  -0.673033  0  2.271801  0  0  -0.697018  0  2.252641  0  0  -0.347644  -0.655977  0  2.28456  0
O  O38  1  0.04409402  0.50453572  0.33781479  1  0  -0.809177  0  2.125929  0  0  -0.726936  0  2.423708  0  0  -0.754635  0  2.402426  0  0  -0.374654  -0.707269  0  2.43772  0
O  O39  1  0.95590976  0.49546111  0.66218928  1  0  -0.809085  0  2.125837  0  0  -0.72689  0  2.423677  0  0  -0.754571  0  2.402355  0  0  -0.374633  -0.70719  0  2.437615  0
O  O40  1  0.76416403  0.32160765  0.36144543  1  0  -0.802774  0  2.090294  0  0  -0.72616  0  2.377598  0  0  -0.753886  0  2.358407  0  0  -0.370684  -0.706137  0  2.389897  0
O  O41  1  0.23584205  0.67838673  0.63855914  1  0  -0.802734  0  2.090189  0  0  -0.726128  0  2.37749  0  0  -0.753864  0  2.358327  0  0  -0.370686  -0.706113  0  2.389794  0
O  O42  1  0.51501784  0.17780550  0.58404650  1  0  -0.762381  0  1.989315  0  0  -0.700739  0  2.271223  0  0  -0.724071  0  2.250567  0  0  -0.367619  -0.684178  0  2.285063  0
O  O43  1  0.48497677  0.82219128  0.41595026  1  0  -0.762443  0  1.989359  0  0  -0.700787  0  2.27125  0  0  -0.724117  0  2.250597  0  0  -0.367615  -0.684221  0  2.285087  0
O  O44  1  0.26897785  0.68242928  0.13970596  1  0  -0.694806  0  1.972895  0  0  -0.634547  0  2.213572  0  0  -0.657107  0  2.19943  0  0  -0.332607  -0.618581  0  2.222969  0
O  O45  1  0.73102402  0.31756876  0.86029803  1  0  -0.69487  0  1.973151  0  0  -0.634557  0  2.213789  0  0  -0.657127  0  2.199648  0  0  -0.33259  -0.618569  0  2.223123  0
O  O46  1  0.34524664  0.53934219  0.39589779  1  0  -0.80461  0  2.173829  0  0  -0.722325  0  2.471037  0  0  -0.749844  0  2.449767  0  0  -0.373987  -0.702611  0  2.484749  0
O  O47  1  0.65475641  0.46065708  0.60410547  1  0  -0.804606  0  2.173812  0  0  -0.722356  0  2.471056  0  0  -0.749877  0  2.449786  0  0  -0.374013  -0.702625  0  2.484718  0
