# generated using pymatgen
data_ZnH12C27N2O11
_symmetry_space_group_name_H-M   'P 1'
_cell_length_a   9.61984631
_cell_length_b   10.71390520
_cell_length_c   23.75107700
_cell_angle_alpha   89.25567234
_cell_angle_beta   91.08405847
_cell_angle_gamma   92.15363444
_symmetry_Int_Tables_number   1
_chemical_formula_structural   ZnH12C27N2O11
_chemical_formula_sum   'Zn2 H24 C54 N4 O22'
_cell_volume   2445.57973258
_cell_formula_units_Z   2
loop_
 _symmetry_equiv_pos_site_id
 _symmetry_equiv_pos_as_xyz
  1  'x, y, z'
loop_
 _atom_site_type_symbol
 _atom_site_label
 _atom_site_symmetry_multiplicity
 _atom_site_fract_x
 _atom_site_fract_y
 _atom_site_fract_z
 _atom_site_occupancy
 _atom_site_pbe_bader_charge
 _atom_site_pbe_bader_spin_density
 _atom_site_pbe_cm5_charge
 _atom_site_pbe_ddec_charge
 _atom_site_pbe_ddec_spin_density
 _atom_site_pbe_ddec_sum_bond_order
 _atom_site_pbe_magmom
Zn  Zn0  1  0.35533492  0.49109266  0.49708496  1  1.296604  0  0.674535  0.8269  0  2.426309  0
Zn  Zn1  1  0.64608205  0.51396798  0.50333956  1  1.310996  0  0.675098  0.826535  0  2.427223  0
H  H2  1  0.80611980  0.66625520  0.05461196  1  0.114955  0  0.122343  0.127971  0  0.972376  0
H  H3  1  0.63342238  0.91561743  0.57896747  1  0.115032  0  0.104126  0.102322  0  0.992466  0
H  H4  1  0.24963071  0.96086711  0.51410948  1  0.078749  0  0.096089  0.088366  0  1.002722  0
H  H5  1  0.75122926  0.04423888  0.48546549  1  0.069611  0  0.096049  0.088771  0  1.004355  0
H  H6  1  0.43213762  0.10265361  0.58649215  1  0.083998  0  0.101409  0.091046  0  0.984285  0
H  H7  1  0.56909571  0.90240935  0.41309845  1  0.071866  0  0.097382  0.085054  0  0.990414  0
H  H8  1  0.21546983  0.68815765  0.41434171  1  0.132244  0  0.11944  0.079482  0  0.972121  0
H  H9  1  0.78696472  0.31355211  0.58611521  1  0.14889  0  0.123171  0.084304  0  0.961504  0
H  H10  1  0.03458173  0.78488203  0.57032011  1  0.133632  0  0.124947  0.073902  0  0.942315  0
H  H11  1  0.96524339  0.21848407  0.43064421  1  0.110377  0  0.123317  0.071764  0  0.943636  0
H  H12  1  0.16321277  0.39738087  0.62346898  1  0.113054  0  0.127071  0.081847  0  0.938142  0
H  H13  1  0.18856857  0.34829277  0.94540595  1  0.117815  0  0.121214  0.126612  0  0.973157  0
H  H14  1  0.83857146  0.60732643  0.37715150  1  0.095774  0  0.125316  0.078911  0  0.938597  0
H  H15  1  0.62227643  0.29936462  0.84183659  1  0.060514  0  0.103081  0.035377  0  0.965904  0
H  H16  1  0.34523548  0.78809975  0.23558492  1  0.06733  0  0.104163  0.033432  0  0.950856  0
H  H17  1  0.39324681  0.70121807  0.62345083  1  0.039722  0  0.100786  0.045142  0  0.994534  0
H  H18  1  0.60842958  0.30501491  0.37674637  1  0.040961  0  0.102279  0.048286  0  0.991818  0
H  H19  1  0.80683856  0.66471021  0.94790909  1  0.107702  0  0.121664  0.12713  0  0.972174  0
H  H20  1  0.18892588  0.34847768  0.05210849  1  0.1016  0  0.121548  0.126676  0  0.972926  0
H  H21  1  0.60533805  0.32025026  0.68405757  1  0.116261  0  0.114004  0.117652  0  0.994008  0
H  H22  1  0.40176034  0.68725807  0.31624380  1  0.093028  0  0.109372  0.10473  0  1.002653  0
H  H23  1  0.40330620  0.67716549  0.78157424  1  0.115621  0  0.125118  0.139963  0  0.964705  0
H  H24  1  0.59288116  0.32641348  0.21841787  1  0.138167  0  0.124749  0.139018  0  0.965539  0
H  H25  1  0.36740595  0.08976528  0.42057972  1  0.107259  0  0.101432  0.098105  0  0.998413  0
C  C26  1  0.46074131  0.74049749  0.50588691  1  1.467443  0  0.217579  0.593566  0  4.177984  0
C  C27  1  0.55550997  0.40888155  0.29856007  1  -0.035471  0  0.002702  0.030109  0  3.925824  0
C  C28  1  0.44545136  0.59746750  0.76047289  1  0.152123  0  -0.055027  -0.138301  0  3.876851  0
C  C29  1  0.55284479  0.40710205  0.23948865  1  0.01137  0  -0.053274  -0.138549  0  3.87197  0
C  C30  1  0.50116702  0.49966112  0.79105111  1  0.294634  0  0.107309  0.176923  0  3.992016  0
C  C31  1  0.50002982  0.50549206  0.20860644  1  0.330418  0  0.113906  0.192421  0  3.971005  0
C  C32  1  0.36085978  0.97921282  0.50788176  1  -0.051838  0  -0.07841  -0.067357  0  3.633396  0
C  C33  1  0.63998764  0.02596852  0.49169118  1  -0.015523  0  -0.078521  -0.068461  0  3.637183  0
C  C34  1  0.42584451  0.04903415  0.45573755  1  -0.028389  0  -0.072521  -0.062201  0  3.614599  0
C  C35  1  0.57488919  0.95614952  0.54380119  1  -0.050236  0  -0.070214  -0.059479  0  3.608033  0
C  C36  1  0.52781337  0.12726564  0.49553750  1  0.037767  0  -0.011535  -0.040074  0  3.673541  0
C  C37  1  0.54006523  0.26471825  0.49356794  1  1.478551  0  0.218275  0.59493  0  4.177213  0
C  C38  1  0.47304828  0.87795118  0.50394181  1  0.06086  0  -0.012022  -0.042041  0  3.674188  0
C  C39  1  0.46159328  0.05631136  0.54794707  1  -0.03457  0  -0.06941  -0.056641  0  3.61464  0
C  C40  1  0.53929163  0.94895985  0.45157286  1  -0.033923  0  -0.071886  -0.05888  0  3.624225  0
C  C41  1  0.49975939  0.48704671  0.61052877  1  1.566082  0  0.224849  0.602006  0  4.170366  0
C  C42  1  0.50182823  0.51887351  0.38951478  1  1.563307  0  0.222952  0.598521  0  4.17634  0
C  C43  1  0.97641748  0.60735109  0.52792063  1  0.211067  0  0.099932  0.073144  0  3.603052  0
C  C44  1  0.02488335  0.39610143  0.47234962  1  0.199727  0  0.09984  0.074682  0  3.606249  0
C  C45  1  0.06378463  0.59855969  0.47403657  1  0.190524  0  0.101837  0.075176  0  3.574322  0
C  C46  1  0.93752382  0.40492024  0.52620788  1  0.202617  0  0.102455  0.074425  0  3.574694  0
C  C47  1  0.05580850  0.49400071  0.55162901  1  0.208481  0  0.107262  0.084098  0  3.542067  0
C  C48  1  0.55938445  0.39894372  0.76367514  1  0.076882  0  -0.001592  -0.030575  0  3.942883  0
C  C49  1  0.94546828  0.50949041  0.44864990  1  0.210286  0  0.107226  0.084019  0  3.542002  0
C  C50  1  0.38355295  0.44635607  0.12105026  1  1.393251  0  0.248858  0.450229  0  4.092269  0
C  C51  1  0.61551684  0.56232059  0.87903943  1  1.37705  0  0.244318  0.437547  0  4.10594  0
C  C52  1  0.61334467  0.56609808  0.12190920  1  1.339998  0  0.248877  0.451344  0  4.095599  0
C  C53  1  0.38329588  0.44479779  0.87803746  1  1.33754  0  0.244756  0.437698  0  4.106261  0
C  C54  1  0.61128308  0.56496070  0.05956180  1  -0.061217  0  0.002487  -0.049106  0  3.962574  0
C  C55  1  0.38431529  0.44803556  0.94035290  1  0.030587  0  -0.003355  -0.059089  0  3.98532  0
C  C56  1  0.49799607  0.50638381  0.02995808  1  0.105853  0  0.009535  0.035685  0  3.981969  0
C  C57  1  0.49778131  0.50638963  0.96995985  1  -0.054559  0  0.006025  0.031572  0  3.995728  0
C  C58  1  0.38481004  0.44808101  0.05868557  1  -0.059642  0  0.003184  -0.048271  0  3.964598  0
C  C59  1  0.44478071  0.60819705  0.23590892  1  0.089454  0  0.000707  -0.02548  0  3.941813  0
C  C60  1  0.61156409  0.56400807  0.94130700  1  -0.081313  0  -0.003046  -0.061091  0  3.986944  0
C  C61  1  0.72093477  0.62178046  0.03045962  1  0.069722  0  -0.057241  -0.064516  0  3.918778  0
C  C62  1  0.27409883  0.39225928  0.96952796  1  -0.028923  0  -0.057974  -0.06449  0  3.924957  0
C  C63  1  0.72122708  0.62110479  0.97134740  1  -0.012857  0  -0.057792  -0.063738  0  3.924025  0
C  C64  1  0.27437308  0.39228112  0.02865444  1  -0.015047  0  -0.057897  -0.065416  0  3.921461  0
C  C65  1  0.12740070  0.70757311  0.44187888  1  1.000012  0  0.111128  0.270721  0  3.920809  0
C  C66  1  0.87403424  0.29508564  0.55790946  1  0.982871  0  0.114275  0.273023  0  3.907046  0
C  C67  1  0.94362774  0.72118784  0.56078061  1  0.991833  0  0.11759  0.259949  0  3.931112  0
C  C68  1  0.05669959  0.28209974  0.43951447  1  1.01836  0  0.116489  0.259915  0  3.932795  0
C  C69  1  0.11338133  0.48526857  0.61097035  1  1.004418  0  0.118937  0.272813  0  3.894792  0
C  C70  1  0.55889861  0.39842573  0.70477708  1  -0.032941  0  -0.061847  -0.091254  0  3.906417  0
C  C71  1  0.88773241  0.51889980  0.38938714  1  1.015018  0  0.118231  0.274623  0  3.892827  0
C  C72  1  0.62327651  0.29406428  0.79503444  1  0.949155  0  0.106299  0.289522  0  3.944708  0
C  C73  1  0.38304996  0.71637913  0.20627075  1  0.928702  0  0.10997  0.28974  0  3.944646  0
C  C74  1  0.38967318  0.70598995  0.67010724  1  1.006431  0  0.100465  0.272393  0  3.948923  0
C  C75  1  0.60705070  0.29813458  0.33010015  1  0.990414  0  0.101203  0.27448  0  3.942361  0
C  C76  1  0.44567509  0.60858990  0.29479606  1  -0.033651  0  -0.066182  -0.112551  0  3.941562  0
C  C77  1  0.49977398  0.49439973  0.67358199  1  -0.047609  0  0.004078  -0.040738  0  3.922735  0
C  C78  1  0.50219003  0.51150594  0.32641601  1  -0.024123  0  0.004189  -0.033821  0  3.917232  0
C  C79  1  0.44333938  0.59591528  0.70152469  1  -0.040105  0  0.001495  0.02878  0  3.927476  0
N  N80  1  0.50179330  0.50106347  0.14810444  1  -1.146595  0  -0.233088  -0.236724  0  3.61762  0
N  N81  1  0.49975953  0.50287721  0.85176464  1  -1.223337  0  -0.235596  -0.24203  0  3.612012  0
N  N82  1  0.14080398  0.48378244  0.49712318  1  -0.797686  0  -0.277144  -0.202722  0  2.9763  0
N  N83  1  0.86054238  0.51982270  0.50309127  1  -0.80953  0  -0.276907  -0.199259  0  2.976173  0
O  O84  1  0.34138959  0.68343643  0.50773579  1  -1.161581  0  -0.311862  -0.553222  0  2.333819  0
O  O85  1  0.71226679  0.60723782  0.85148797  1  -1.091732  0  -0.270316  -0.422564  0  2.051491  0
O  O86  1  0.70553222  0.61873829  0.15025650  1  -1.099166  0  -0.274861  -0.432593  0  2.051366  0
O  O87  1  0.28990126  0.39414350  0.84960764  1  -1.093797  0  -0.272172  -0.425462  0  2.05486  0
O  O88  1  0.07112994  0.80775921  0.44354527  1  -1.05401  0  -0.239824  -0.323839  0  2.101907  0
O  O89  1  0.92942087  0.19473370  0.55487835  1  -1.054587  0  -0.235744  -0.319518  0  2.100041  0
O  O90  1  0.82612960  0.73961897  0.57589139  1  -1.044458  0  -0.221222  -0.289904  0  2.166843  0
O  O91  1  0.17346683  0.26332309  0.42362817  1  -1.04168  0  -0.223489  -0.292949  0  2.164415  0
O  O92  1  0.09387196  0.56936370  0.64364367  1  -1.032156  0  -0.212103  -0.288704  0  2.116411  0
O  O93  1  0.90624722  0.43506034  0.35644453  1  -1.032377  0  -0.216533  -0.294404  0  2.111093  0
O  O94  1  0.67536846  0.20618919  0.77196853  1  -1.053611  0  -0.256774  -0.34174  0  2.072011  0
O  O95  1  0.65943047  0.32171611  0.49186379  1  -1.162045  0  -0.312069  -0.554597  0  2.333568  0
O  O96  1  0.37114242  0.73071466  0.15527528  1  -1.046612  0  -0.255756  -0.340761  0  2.103784  0
O  O97  1  0.34580337  0.79772019  0.69313836  1  -1.066513  0  -0.258971  -0.342433  0  2.077604  0
O  O98  1  0.64424814  0.20372304  0.30709645  1  -1.060305  0  -0.261209  -0.34717  0  2.077199  0
O  O99  1  0.57627247  0.68620837  0.50463839  1  -1.164718  0  -0.315158  -0.543905  0  2.403421  0
O  O100  1  0.42443493  0.31896897  0.49449821  1  -1.163264  0  -0.315976  -0.545302  0  2.403281  0
O  O101  1  0.38259330  0.48851161  0.58474585  1  -1.16164  0  -0.304532  -0.559446  0  2.377637  0
O  O102  1  0.61887694  0.51713265  0.41526809  1  -1.158564  0  -0.303492  -0.557955  0  2.377919  0
O  O103  1  0.61749928  0.47834923  0.58776978  1  -1.158863  0  -0.310317  -0.542194  0  2.323685  0
O  O104  1  0.38383929  0.52740822  0.41204227  1  -1.157781  0  -0.309999  -0.541481  0  2.318437  0
O  O105  1  0.28750978  0.40030035  0.14869823  1  -1.096027  0  -0.274062  -0.430356  0  2.046197  0
