# generated using pymatgen
data_CuH18C26(NO4)2
_symmetry_space_group_name_H-M   'P 1'
_cell_length_a   7.67142888
_cell_length_b   7.67179765
_cell_length_c   19.67500000
_cell_angle_alpha   95.45659562
_cell_angle_beta   95.45685872
_cell_angle_gamma   92.74721691
_symmetry_Int_Tables_number   1
_chemical_formula_structural   CuH18C26(NO4)2
_chemical_formula_sum   'Cu2 H36 C52 N4 O16'
_cell_volume   1145.57644159
_cell_formula_units_Z   2
loop_
 _symmetry_equiv_pos_site_id
 _symmetry_equiv_pos_as_xyz
  1  'x, y, z'
loop_
 _atom_site_type_symbol
 _atom_site_label
 _atom_site_symmetry_multiplicity
 _atom_site_fract_x
 _atom_site_fract_y
 _atom_site_fract_z
 _atom_site_occupancy
 _atom_site_hle17_ddec_charge
 _atom_site_hle17_ddec_spin_density
 _atom_site_hle17_ddec_sum_bond_order
 _atom_site_hle17_magmom
 _atom_site_hse06_10hf_ddec_charge
 _atom_site_hse06_10hf_ddec_spin_density
 _atom_site_hse06_10hf_ddec_sum_bond_order
 _atom_site_hse06_10hf_magmom
 _atom_site_hse06_ddec_charge
 _atom_site_hse06_ddec_spin_density
 _atom_site_hse06_ddec_sum_bond_order
 _atom_site_hse06_magmom
 _atom_site_pbe_bader_charge
 _atom_site_pbe_bader_spin_density
 _atom_site_pbe_cm5_charge
 _atom_site_pbe_ddec_charge
 _atom_site_pbe_ddec_spin_density
 _atom_site_pbe_ddec_sum_bond_order
 _atom_site_pbe_magmom
Cu  Cu0  1  0.64539624  0.35459704  0.24999945  1  0.819456  -0.733481  1.808742  -0.504  0.785763  -0.80654  2.199816  -0.614  0.879155  -0.881377  2.12716  -0.695  1.034077  -0.563827  0.734264  0.729555  -0.755193  2.249285  -0.563
Cu  Cu1  1  0.35460348  0.64540152  0.74999937  1  0.819313  0.733465  1.808806  0.504  0.785697  0.80654  2.199846  0.614  0.87906  0.881384  2.127272  0.695  1.033989  0.563824  0.734196  0.729467  0.755179  2.249308  0.563
H  H2  1  0.70552452  0.35147548  0.50569946  1  0.108134  1.3e-05  0.971432  0.0  0.112237  1.7e-05  1.03999  0.0  0.116766  1.2e-05  1.036357  0.0  0.147485  2.6e-05  0.101735  0.108944  2e-05  1.042687  0.0
H  H3  1  0.64852229  0.29445330  0.99429953  1  0.107921  4e-06  0.971791  0.0  0.112083  1.7e-05  1.040286  0.0  0.116639  1.2e-05  1.036627  0.0  0.147509  2.6e-05  0.101652  0.108791  2e-05  1.042982  0.0
H  H4  1  0.29447265  0.64852439  0.49429880  1  0.108162  -4e-06  0.971434  0.0  0.112283  -1.7e-05  1.039972  0.0  0.116776  -1.2e-05  1.036375  0.0  0.147497  -2.7e-05  0.101767  0.108988  -2e-05  1.042671  0.0
H  H5  1  0.35147327  0.70554133  0.00570153  1  0.107965  -1e-05  0.97173  0.0  0.112161  -1.7e-05  1.040191  0.0  0.116694  -1.2e-05  1.036549  0.0  0.147433  -2.7e-05  0.101689  0.108866  -2e-05  1.04289  0.0
H  H6  1  0.08702409  0.58260183  0.38834298  1  0.095878  -0.000249  0.952988  0.0  0.104078  -0.000229  1.015933  0.0  0.1073  -0.000165  1.014658  0.0  0.083868  -0.000256  0.0993  0.101853  -0.000284  1.0168  0.0
H  H7  1  0.41739328  0.91297664  0.11165676  1  0.09585  -0.000249  0.952939  0.0  0.104018  -0.000229  1.015931  0.0  0.107238  -0.000165  1.014658  0.0  0.083716  -0.000256  0.099281  0.101796  -0.000284  1.016798  0.0
H  H8  1  0.91297177  0.41739804  0.61165625  1  0.095882  0.000251  0.95297  0.0  0.104086  0.000229  1.015911  0.0  0.107309  0.000165  1.014635  0.0  0.083755  0.000255  0.099299  0.101867  0.000283  1.016776  0.0
H  H9  1  0.58260767  0.08702061  0.88834358  1  0.095869  0.000248  0.952953  0.0  0.104053  0.000229  1.015924  0.0  0.107274  0.000165  1.01465  0.0  0.083768  0.000256  0.099279  0.101836  0.000284  1.01679  0.0
H  H10  1  0.55545669  0.64865424  0.34861946  1  0.097621  -0.000772  0.963269  -0.001  0.102994  -0.000663  1.029016  -0.001  0.105727  -0.000479  1.026172  -0.001  0.125795  -0.001788  0.121534  0.10085  -0.000809  1.031192  -0.001
H  H11  1  0.35134608  0.44455558  0.15138243  1  0.097601  -0.000773  0.963426  -0.001  0.102984  -0.000663  1.029151  -0.001  0.105715  -0.000479  1.026308  -0.001  0.125878  -0.001788  0.121537  0.100842  -0.00081  1.031325  -0.001
H  H12  1  0.44453895  0.35134170  0.65138013  1  0.097603  0.000775  0.963257  0.001  0.102972  0.000663  1.029008  0.001  0.105707  0.000479  1.026161  0.001  0.125768  0.001788  0.121521  0.100824  0.000809  1.031186  0.001
H  H13  1  0.64866202  0.55545216  0.84861551  1  0.097626  0.000771  0.963329  0.001  0.102997  0.000663  1.02908  0.001  0.105733  0.000479  1.026229  0.001  0.125912  0.001788  0.121534  0.100849  0.00081  1.031257  0.001
H  H14  1  0.34204559  0.87884806  0.35147147  1  0.131407  -0.000436  0.949633  0.0  0.138401  -0.000422  1.011972  0.0  0.142131  -0.000303  1.010714  0.0  0.139463  -0.000974  0.115141  0.135681  -0.000519  1.013064  -0.001
H  H15  1  0.12114177  0.65795464  0.14852602  1  0.131373  -0.00043  0.949716  0.0  0.138383  -0.000422  1.012045  0.0  0.14211  -0.000303  1.010796  0.0  0.139319  -0.000974  0.115169  0.135663  -0.000519  1.013137  -0.001
H  H16  1  0.65795128  0.12114657  0.64852913  1  0.131386  0.000434  0.949641  0.0  0.138367  0.000422  1.011998  0.0  0.142095  0.000303  1.010746  0.0  0.139434  0.000974  0.115125  0.13564  0.000519  1.013093  0.001
H  H17  1  0.87886341  0.34204785  0.85147213  1  0.131397  0.000432  0.94965  0.0  0.13841  0.000422  1.011974  0.0  0.142138  0.000303  1.010721  0.0  0.139325  0.000974  0.115166  0.135683  0.000519  1.013068  0.001
H  H18  1  0.26519860  0.14203214  0.24755500  1  0.130637  -0.000299  0.941543  0.0  0.138179  -0.000334  1.003254  -0.001  0.141622  -0.000201  1.001513  0.0  0.139862  -0.000965  0.115359  0.135471  -0.000451  1.004944  -0.001
H  H19  1  0.85796608  0.73481838  0.25244445  1  0.130398  -0.000303  0.941746  0.0  0.138025  -0.000334  1.003385  -0.001  0.141466  -0.000202  1.001649  0.0  0.140009  -0.000966  0.115332  0.135316  -0.000451  1.005074  -0.001
H  H20  1  0.73480112  0.85796642  0.75244382  1  0.130684  0.000304  0.941664  0.0  0.138237  0.000334  1.003358  0.001  0.141679  0.000201  1.001619  0.0  0.139896  0.000965  0.115392  0.135529  0.00045  1.005047  0.001
H  H21  1  0.14203217  0.26517755  0.74755625  1  0.130441  0.000304  0.941747  0.0  0.138073  0.000334  1.003373  0.001  0.141512  0.000202  1.001639  0.0  0.139957  0.000966  0.115364  0.135364  0.000451  1.005061  0.001
H  H22  1  0.03163680  0.35923478  0.24921526  1  0.085905  -0.001018  0.938077  -0.002  0.093174  -0.000821  1.001558  -0.001  0.094746  -0.000588  1.000487  -0.001  0.121209  -0.002161  0.121118  0.091799  -0.001006  1.00263  -0.002
H  H23  1  0.64073906  0.96835804  0.25078450  1  0.086059  -0.001017  0.937931  -0.002  0.093305  -0.000821  1.001393  -0.001  0.094876  -0.000588  1.000326  -0.001  0.120958  -0.002161  0.121133  0.09191  -0.001006  1.002487  -0.002
H  H24  1  0.96836160  0.64076378  0.75078402  1  0.085906  0.001017  0.938094  0.002  0.09318  0.00082  1.001567  0.001  0.094752  0.000587  1.000498  0.001  0.121181  0.00216  0.121113  0.091805  0.001005  1.002641  0.002
H  H25  1  0.35925796  0.03163921  0.74921621  1  0.086044  0.001022  0.937931  0.002  0.09329  0.000821  1.001405  0.001  0.094861  0.000588  1.000335  0.001  0.120993  0.002162  0.121119  0.091894  0.001006  1.002502  0.002
H  H26  1  0.51728433  0.76788459  0.58809868  1  0.421416  2.5e-05  0.86811  0.0  0.391907  2.2e-05  0.939901  0.0  0.404616  1.1e-05  0.921616  0.0  0.672182  -1.2e-05  0.307492  0.382986  3.6e-05  0.95272  0.0
H  H27  1  0.23211898  0.48271071  0.91190421  1  0.42148  2.5e-05  0.867991  0.0  0.391995  2.2e-05  0.939759  0.0  0.404698  1.1e-05  0.921487  0.0  0.672141  -1.2e-05  0.307548  0.383075  3.7e-05  0.952577  0.0
H  H28  1  0.48271677  0.23211528  0.41190074  1  0.421397  -2.4e-05  0.868184  0.0  0.391905  -2.2e-05  0.939912  0.0  0.40461  -1.1e-05  0.921634  0.0  0.672118  1.2e-05  0.307476  0.382982  -3.6e-05  0.952734  0.0
H  H29  1  0.76788344  0.51728916  0.08809729  1  0.421451  -2.6e-05  0.868018  0.0  0.39197  -2.2e-05  0.939784  0.0  0.404671  -1.1e-05  0.921514  0.0  0.672153  1.2e-05  0.307545  0.383046  -3.6e-05  0.952605  0.0
H  H30  1  0.93923434  0.91553684  0.61452250  1  0.089068  -1.9e-05  0.981308  0.0  0.094644  -1.9e-05  1.051599  0.0  0.096827  -1.5e-05  1.05212  0.0  0.094086  -1.9e-05  0.097243  0.093104  -2.4e-05  1.051304  0.0
H  H31  1  0.08447150  0.06076543  0.88547923  1  0.089079  -2.4e-05  0.981309  0.0  0.094659  -1.9e-05  1.051593  0.0  0.096839  -1.5e-05  1.052115  0.0  0.093914  -1.8e-05  0.09725  0.093118  -2.4e-05  1.051298  0.0
H  H32  1  0.06076714  0.08446959  0.38547719  1  0.089096  2.1e-05  0.981254  0.0  0.094657  1.9e-05  1.051573  0.0  0.096841  1.4e-05  1.052089  0.0  0.094027  1.8e-05  0.097237  0.09311  2.3e-05  1.051282  0.0
H  H33  1  0.91552844  0.93923706  0.11452178  1  0.089044  1.9e-05  0.981333  0.0  0.094607  1.9e-05  1.051642  0.0  0.096792  1.4e-05  1.052155  0.0  0.093995  1.8e-05  0.09722  0.09306  2.3e-05  1.051352  0.0
H  H34  1  0.76924571  0.94205696  0.40169334  1  0.097448  1.3e-05  0.949977  0.0  0.103895  4e-06  1.016284  0.0  0.107309  5e-06  1.014254  0.0  0.091788  1.6e-05  0.102299  0.101468  4e-06  1.017762  0.0
H  H35  1  0.05793644  0.23073944  0.09830577  1  0.097452  1.4e-05  0.950121  0.0  0.103882  4e-06  1.016444  0.0  0.107296  5e-06  1.014417  0.0  0.091875  1.6e-05  0.102287  0.101454  4e-06  1.017922  0.0
H  H36  1  0.23075562  0.05794685  0.59830625  1  0.097424  -1.5e-05  0.949992  0.0  0.103874  -4e-06  1.016299  0.0  0.107288  -5e-06  1.014269  0.0  0.091786  -1.7e-05  0.102299  0.10145  -4e-06  1.017776  0.0
H  H37  1  0.94206351  0.76926305  0.90169575  1  0.097497  -1.6e-05  0.950121  0.0  0.10393  -4e-06  1.016431  0.0  0.107345  -5e-06  1.014401  0.0  0.091936  -1.7e-05  0.10231  0.101505  -4e-06  1.017907  0.0
C  C38  1  0.76735772  0.41934442  0.37710331  1  0.638015  0.00498  3.882958  0.008  0.593396  0.000838  4.179777  0.004  0.630473  0.001238  4.17274  0.003  1.494245  0.00168  0.204539  0.568389  0.00045  4.183718  0.004
C  C39  1  0.58065474  0.23263729  0.12289586  1  0.63808  0.004978  3.882828  0.008  0.593522  0.000838  4.179561  0.004  0.630602  0.001239  4.172518  0.003  1.494065  0.00168  0.204593  0.568513  0.00045  4.183505  0.004
C  C40  1  0.23264222  0.58065807  0.62289515  1  0.638042  -0.004976  3.882755  -0.008  0.59345  -0.00084  4.17954  -0.004  0.630529  -0.001239  4.172499  -0.003  1.494788  -0.001679  0.204595  0.568449  -0.000448  4.18348  -0.004
C  C41  1  0.41934236  0.76736127  0.87710591  1  0.638145  -0.004983  3.882564  -0.008  0.593532  -0.000839  4.179398  -0.004  0.630613  -0.001239  4.172352  -0.003  1.493814  -0.001675  0.204599  0.568519  -0.000447  4.183353  -0.004
C  C42  1  0.88543649  0.46391054  0.44096117  1  -0.058958  -0.008159  3.766807  -0.008  -0.037221  -0.004107  3.996847  -0.005  -0.04495  -0.003076  4.019635  -0.004  -0.023839  -0.006651  -0.015641  -0.032106  -0.004888  3.981409  -0.005
C  C43  1  0.53608873  0.11455720  0.05904050  1  -0.059069  -0.008164  3.766823  -0.008  -0.037377  -0.004108  3.996915  -0.005  -0.045118  -0.003077  4.019727  -0.004  -0.023857  -0.006649  -0.01571  -0.032253  -0.004887  3.981463  -0.005
C  C44  1  0.11456076  0.53609064  0.55903765  1  -0.058786  0.008162  3.766471  0.008  -0.037073  0.004109  3.996544  0.005  -0.0448  0.003075  4.01932  0.004  -0.0239  0.006652  -0.015616  -0.03198  0.004889  3.981121  0.005
C  C45  1  0.46390837  0.88544136  0.94096127  1  -0.058826  0.008164  3.766619  0.008  -0.037117  0.004106  3.996718  0.005  -0.044852  0.003074  4.019516  0.004  -0.023186  0.006648  -0.01564  -0.032016  0.004888  3.981293  0.005
C  C46  1  0.83412678  0.41636714  0.50345542  1  -0.063396  0.000941  3.714091  0.001  -0.086446  -0.000236  3.963138  0.0  -0.08833  6.3e-05  3.983953  0.0  0.013043  -0.000571  -0.081164  -0.085048  -0.000454  3.949034  -0.001
C  C47  1  0.58363500  0.16585828  0.99654401  1  -0.063151  0.000967  3.71424  0.001  -0.086237  -0.000235  3.963229  0.0  -0.088136  6.4e-05  3.984023  0.0  0.01322  -0.000572  -0.08106  -0.084841  -0.000454  3.949126  -0.001
C  C48  1  0.16586924  0.58363536  0.49654189  1  -0.063503  -0.000965  3.713947  -0.001  -0.086579  0.000235  3.963012  0.0  -0.08843  -6.4e-05  3.983837  0.0  0.013139  0.000571  -0.081232  -0.085173  0.000454  3.948908  0.001
C  C49  1  0.41636588  0.83413766  0.00345781  1  -0.063387  -0.000949  3.714219  -0.001  -0.086511  0.000236  3.963226  0.0  -0.088393  -6.3e-05  3.984032  0.0  0.013378  0.000572  -0.081171  -0.085105  0.000454  3.949122  0.001
C  C50  1  0.05062310  0.54736366  0.43760740  1  -0.063599  0.001647  3.721671  0.002  -0.086044  6.1e-05  3.970587  0.0  -0.086389  0.000221  3.990649  0.0  -0.093494  0.000134  -0.082327  -0.085651  -3.8e-05  3.9568  0.0
C  C51  1  0.45263418  0.94937819  0.06239297  1  -0.063438  0.001641  3.721629  0.002  -0.085862  6.1e-05  3.970563  0.0  -0.086206  0.000221  3.99064  0.0  -0.093663  0.000134  -0.082264  -0.085474  -3.9e-05  3.956776  0.0
C  C52  1  0.94937276  0.45263621  0.56239132  1  -0.063682  -0.001644  3.721693  -0.002  -0.086133  -6.1e-05  3.970605  0.0  -0.086481  -0.000221  3.990681  0.0  -0.093302  -0.000135  -0.082363  -0.08574  3.8e-05  3.956818  0.0
C  C53  1  0.54736554  0.05062037  0.93760890  1  -0.063631  -0.001646  3.721735  -0.002  -0.086064  -6e-05  3.970658  0.0  -0.086411  -0.000221  3.990743  0.0  -0.093516  -0.000134  -0.082289  -0.085677  3.9e-05  3.956877  0.0
C  C54  1  0.45962948  0.65546395  0.30470177  1  0.13654  0.00697  3.67462  0.007  0.109921  0.000712  3.924602  0.001  0.119427  0.001693  3.943018  0.002  0.483271  0.000981  0.051393  0.103879  -3.7e-05  3.912566  0.001
C  C55  1  0.34453575  0.54037557  0.19529881  1  0.136589  0.006968  3.674677  0.007  0.109954  0.000714  3.92469  0.001  0.119461  0.001693  3.943105  0.002  0.48329  0.000983  0.051409  0.103912  -3.6e-05  3.912654  0.001
C  C56  1  0.54037016  0.34453330  0.69529852  1  0.136594  -0.006981  3.674759  -0.007  0.109984  -0.000713  3.924729  -0.001  0.119491  -0.001692  3.943144  -0.002  0.483318  -0.000981  0.051414  0.103943  3.8e-05  3.912694  -0.001
C  C57  1  0.65546805  0.45962562  0.80469975  1  0.136635  -0.006968  3.674625  -0.007  0.11  -0.000714  3.924641  -0.001  0.119507  -0.001693  3.943055  -0.002  0.48324  -0.000981  0.051417  0.103958  3.7e-05  3.912608  -0.001
C  C58  1  0.33845867  0.78437113  0.30622980  1  -0.156586  -0.009266  3.67124  -0.009  -0.170246  -0.003516  3.909878  -0.004  -0.1786  -0.003261  3.928837  -0.004  -0.009497  -0.005319  -0.074309  -0.164917  -0.003708  3.897323  -0.004
C  C59  1  0.21562642  0.66154705  0.19376615  1  -0.156534  -0.00928  3.671223  -0.009  -0.170219  -0.003516  3.909889  -0.004  -0.178574  -0.003261  3.92885  -0.004  -0.00949  -0.005319  -0.074344  -0.164892  -0.003708  3.897333  -0.004
C  C60  1  0.66154090  0.21562481  0.69377095  1  -0.15656  0.009276  3.671252  0.009  -0.170215  0.003516  3.909894  0.004  -0.178572  0.003262  3.928857  0.004  -0.009504  0.005317  -0.074274  -0.164882  0.003707  3.897341  0.004
C  C61  1  0.78437738  0.33845413  0.80623190  1  -0.156558  0.009278  3.671282  0.009  -0.170235  0.003516  3.909924  0.004  -0.17859  0.003262  3.928886  0.004  -0.009443  0.005317  -0.074335  -0.164901  0.003707  3.897373  0.004
C  C62  1  0.21251469  0.78748744  0.24999723  1  0.104097  0.007865  3.751811  0.007  0.114934  0.002505  3.982719  0.002  0.120328  0.002717  4.003026  0.003  -0.031119  0.003488  0.019887  0.111377  0.00234  3.968958  0.002
C  C63  1  0.78748750  0.21250850  0.75000260  1  0.104073  -0.007865  3.75186  -0.007  0.114893  -0.002505  3.982757  -0.002  0.120288  -0.002717  4.003064  -0.003  -0.031137  -0.003488  0.019872  0.111337  -0.00234  3.968997  -0.002
C  C64  1  0.07934670  0.92065724  0.24999832  1  0.10433  0.008932  3.741504  0.008  0.114781  0.002641  3.975252  0.003  0.119056  0.002938  3.995035  0.003  -0.068962  0.003565  0.023779  0.111965  0.002389  3.961832  0.002
C  C65  1  0.92065425  0.07934000  0.75000253  1  0.104304  -0.008933  3.741479  -0.008  0.114788  -0.002641  3.975183  -0.003  0.119063  -0.002938  3.994968  -0.003  -0.068985  -0.003565  0.023732  0.111975  -0.002389  3.961766  -0.002
C  C66  1  0.12861935  0.09866873  0.24944661  1  -0.143664  -0.010262  3.661882  -0.01  -0.160266  -0.003667  3.905631  -0.004  -0.16712  -0.003414  3.923744  -0.004  0.027488  -0.005377  -0.069702  -0.155871  -0.003849  3.893703  -0.004
C  C67  1  0.90132481  0.87139305  0.25055198  1  -0.143406  -0.010253  3.661901  -0.01  -0.160058  -0.003667  3.905616  -0.004  -0.16691  -0.003414  3.92373  -0.004  0.027572  -0.005376  -0.069668  -0.155661  -0.003849  3.893679  -0.004
C  C68  1  0.87137906  0.90132982  0.75055368  1  -0.143715  0.01025  3.662032  0.01  -0.160329  0.003667  3.905748  0.004  -0.167186  0.003414  3.923867  0.004  0.02763  0.005374  -0.069675  -0.155934  0.003848  3.893824  0.004
C  C69  1  0.09867491  0.12860551  0.74944887  1  -0.143493  0.010257  3.661997  0.01  -0.160157  0.003667  3.905703  0.004  -0.167009  0.003414  3.923815  0.004  0.027653  0.005375  -0.069722  -0.15576  0.003848  3.893771  0.004
C  C70  1  0.99941281  0.21952807  0.24942600  1  0.137537  0.008064  3.678624  0.008  0.110658  0.000864  3.930405  0.002  0.119866  0.001957  3.949011  0.003  0.416911  0.000959  0.054919  0.104741  1.2e-05  3.918213  0.001
C  C71  1  0.78045570  0.00058496  0.25057423  1  0.137341  0.008053  3.678689  0.008  0.110473  0.000863  3.930474  0.002  0.119677  0.001956  3.949083  0.003  0.416905  0.000958  0.054857  0.104572  1.1e-05  3.918283  0.001
C  C72  1  0.00058422  0.78046918  0.75057368  1  0.137523  -0.008055  3.678683  -0.008  0.110637  -0.000864  3.930483  -0.002  0.119845  -0.001957  3.94909  -0.003  0.416757  -0.000956  0.054892  0.104716  -1e-05  3.918298  -0.001
C  C73  1  0.21954264  0.99941228  0.74942652  1  0.137416  -0.00807  3.678798  -0.008  0.110539  -0.000863  3.930597  -0.002  0.119748  -0.001956  3.949203  -0.003  0.4169  -0.000957  0.054914  0.104634  -1e-05  3.918411  -0.001
C  C74  1  0.66168971  0.83731561  0.51700180  1  0.650784  1e-06  3.834255  0.0  0.601177  5e-06  4.135662  0.0  0.634194  4e-06  4.127049  0.0  1.534856  1.3e-05  0.229631  0.578674  8e-06  4.141058  0.0
C  C75  1  0.16268592  0.33829936  0.98299724  1  0.650834  -1.4e-05  3.833961  0.0  0.601068  4e-06  4.13561  0.0  0.634092  4e-06  4.126993  0.0  1.534874  1.3e-05  0.229635  0.578582  8e-06  4.140973  0.0
C  C76  1  0.33831278  0.16268557  0.48299620  1  0.650704  -1.2e-05  3.833988  0.0  0.601091  -5e-06  4.135466  0.0  0.634116  -4e-06  4.126829  0.0  1.534844  -1.3e-05  0.229563  0.578589  -9e-06  4.140863  0.0
C  C77  1  0.83731957  0.66170838  0.01700569  1  0.650834  -1.2e-05  3.834003  0.0  0.601006  -5e-06  4.135719  0.0  0.634031  -3e-06  4.127106  0.0  1.534629  -1.3e-05  0.229509  0.578518  -8e-06  4.141084  0.0
C  C78  1  0.83666274  0.92140222  0.50901604  1  -0.061211  4.2e-05  3.75398  0.0  -0.038664  1.4e-05  3.983371  0.0  -0.045983  9e-06  4.006766  0.0  -0.040966  2.3e-05  -0.010848  -0.033825  2.1e-05  3.967637  0.0
C  C79  1  0.07860159  0.16333086  0.99098478  1  -0.061203  4.5e-05  3.754065  0.0  -0.038591  1.8e-05  3.983456  0.0  -0.045911  7e-06  4.006852  0.0  -0.041106  2.3e-05  -0.010883  -0.033756  2.1e-05  3.967715  0.0
C  C80  1  0.16333866  0.07860290  0.49098258  1  -0.061184  -2.9e-05  3.753874  0.0  -0.038688  -1.7e-05  3.983372  0.0  -0.046009  -9e-06  4.006761  0.0  -0.040977  -2.3e-05  -0.010828  -0.033847  -2.2e-05  3.967638  0.0
C  C81  1  0.92140097  0.83667163  0.00901683  1  -0.06131  -2.9e-05  3.754239  0.0  -0.038632  -1.4e-05  3.983582  0.0  -0.045955  -1.1e-05  4.006979  0.0  -0.041231  -2.3e-05  -0.010915  -0.033794  -2.1e-05  3.96784  0.0
C  C82  1  0.96634768  0.95422185  0.56466031  1  -0.069404  -3.2e-05  3.727036  0.0  -0.093259  -8e-06  3.978716  0.0  -0.094474  -5e-06  4.000747  0.0  -0.078507  -3e-06  -0.084253  -0.09235  -1.2e-05  3.963768  0.0
C  C83  1  0.04578524  0.03365379  0.93533940  1  -0.069351  -2.2e-05  3.72698  0.0  -0.093208  -1.1e-05  3.978641  0.0  -0.094419  -5e-06  4.000673  0.0  -0.078377  -3e-06  -0.084173  -0.0923  -1.2e-05  3.963694  0.0
C  C84  1  0.03365234  0.04578196  0.43533922  1  -0.069444  2.4e-05  3.727086  0.0  -0.093292  1e-05  3.978809  0.0  -0.094502  6e-06  4.000835  0.0  -0.078515  3e-06  -0.084254  -0.092377  1.2e-05  3.963861  0.0
C  C85  1  0.95421856  0.96634739  0.06466323  1  -0.069288  1.9e-05  3.727038  0.0  -0.093158  8e-06  3.978681  0.0  -0.094367  7e-06  4.000709  0.0  -0.078549  3e-06  -0.084156  -0.092245  1.2e-05  3.963734  0.0
C  C86  1  0.87157939  0.96726418  0.44427855  1  -0.057662  1e-06  3.724957  0.0  -0.082182  4e-06  3.978065  0.0  -0.082763  7e-06  3.99794  0.0  0.036592  4e-06  -0.078247  -0.08171  0.0  3.964576  0.0
C  C87  1  0.03273465  0.12841533  0.05572009  1  -0.0577  3e-06  3.725172  0.0  -0.082219  2e-06  3.978268  0.0  -0.082796  7e-06  3.998127  0.0  0.036586  4e-06  -0.078228  -0.081746  1e-06  3.964778  0.0
C  C88  1  0.12842194  0.03273962  0.55572103  1  -0.057559  -6e-06  3.7247  0.0  -0.08208  -3e-06  3.977841  0.0  -0.082661  -6e-06  3.997719  0.0  0.036677  -5e-06  -0.078198  -0.081612  -1e-06  3.964352  0.0
C  C89  1  0.96726784  0.87158585  0.94428147  1  -0.057735  -2e-06  3.725144  0.0  -0.082278  -4e-06  3.978225  0.0  -0.082852  -5e-06  3.998084  0.0  0.036757  -5e-06  -0.078245  -0.081809  -1e-06  3.964734  0.0
N  N90  1  0.46405354  0.53595030  0.25000035  1  -0.310067  -0.075913  3.323034  -0.092  -0.261883  -0.052632  3.617732  -0.068  -0.292623  -0.044394  3.637943  -0.061  -1.213065  -0.082351  -0.345846  -0.243652  -0.057244  3.606091  -0.072
N  N91  1  0.53594895  0.46405088  0.74999816  1  -0.310102  0.075922  3.323161  0.092  -0.261931  0.052632  3.617865  0.068  -0.292668  0.044392  3.638088  0.061  -1.212945  0.082344  -0.345846  -0.243686  0.057238  3.606208  0.072
N  N92  1  0.82858672  0.17140101  0.25000076  1  -0.287681  -0.083941  3.32772  -0.101  -0.235556  -0.057848  3.606508  -0.075  -0.266125  -0.048606  3.63058  -0.066  -1.186519  -0.090501  -0.340178  -0.217274  -0.062888  3.592014  -0.079
N  N93  1  0.17141184  0.82860018  0.75000014  1  -0.287641  0.083948  3.327779  0.101  -0.235541  0.057848  3.606608  0.075  -0.266108  0.048603  3.630689  0.066  -1.186626  0.090495  -0.340175  -0.217245  0.062883  3.592104  0.079
O  O94  1  0.80536430  0.49264329  0.32326443  1  -0.600085  -0.104451  2.038622  -0.132  -0.575684  -0.06635  2.32025  -0.092  -0.618191  -0.052239  2.313307  -0.077  -1.114571  -0.112698  -0.326519  -0.547402  -0.075247  2.324823  -0.101
O  O95  1  0.50734844  0.19463562  0.17673516  1  -0.600151  -0.104458  2.038664  -0.132  -0.575767  -0.06635  2.32023  -0.092  -0.618276  -0.05224  2.313278  -0.077  -1.114633  -0.112697  -0.326557  -0.547486  -0.075247  2.324807  -0.101
O  O96  1  0.19463826  0.50735920  0.67673515  1  -0.600076  0.104459  2.038556  0.132  -0.57573  0.066351  2.320215  0.092  -0.618235  0.052239  2.31328  0.077  -1.11485  0.112687  -0.326546  -0.547436  0.075237  2.324779  0.101
O  O97  1  0.49264989  0.80536163  0.82326610  1  -0.600174  0.104457  2.038478  0.132  -0.575766  0.06635  2.320069  0.092  -0.618271  0.052238  2.313126  0.077  -1.114879  0.112686  -0.326544  -0.547469  0.075236  2.32464  0.101
O  O98  1  0.63761341  0.30960465  0.37394350  1  -0.636377  0.000935  2.013419  -0.001  -0.592845  0.000852  2.252127  0.0  -0.620553  0.001478  2.238855  0.001  -1.17641  9.6e-05  -0.316214  -0.573935  0.00025  2.261093  -0.001
O  O99  1  0.69039182  0.36237732  0.12605135  1  -0.636411  0.000937  2.013351  -0.001  -0.592889  0.000853  2.25203  0.0  -0.620598  0.001478  2.238757  0.001  -1.176212  9.7e-05  -0.316253  -0.573981  0.00025  2.260999  -0.001
O  O100  1  0.36238400  0.69039915  0.62605340  1  -0.636402  -0.000937  2.013367  0.001  -0.592863  -0.000852  2.252078  0.0  -0.620574  -0.001478  2.2388  -0.001  -1.176639  -9.6e-05  -0.316222  -0.57395  -0.00025  2.261041  0.001
O  O101  1  0.30960382  0.63761861  0.87394925  1  -0.636473  -0.000932  2.013304  0.001  -0.592938  -0.000853  2.252003  0.0  -0.620646  -0.001479  2.238729  -0.001  -1.176284  -9.6e-05  -0.316261  -0.574021  -0.00025  2.260972  0.001
O  O102  1  0.55319172  0.78465312  0.46814587  1  -0.55874  -4.3e-05  1.909825  0.0  -0.515288  -4.4e-05  2.120144  0.0  -0.535997  -3.4e-05  2.112524  0.0  -1.16319  -8.1e-05  -0.292554  -0.501007  -5.9e-05  2.125108  0.0
O  O103  1  0.21534758  0.44679969  0.03185781  1  -0.558791  -3.6e-05  1.90944  0.0  -0.51531  -4.5e-05  2.119873  0.0  -0.536028  -3.4e-05  2.112258  0.0  -1.163089  -8.1e-05  -0.292585  -0.501036  -5.9e-05  2.124828  0.0
O  O104  1  0.44681070  0.21534675  0.53185412  1  -0.558706  5.2e-05  1.909674  0.0  -0.515222  4.6e-05  2.119977  0.0  -0.535941  3.4e-05  2.112365  0.0  -1.16317  8e-05  -0.292517  -0.500936  5.8e-05  2.124935  0.0
O  O105  1  0.78464959  0.55320018  0.96814198  1  -0.558831  5.3e-05  1.909148  0.0  -0.515319  4.6e-05  2.119599  0.0  -0.53604  3.4e-05  2.11199  0.0  -1.162984  8e-05  -0.292568  -0.501039  5.9e-05  2.124554  0.0
O  O106  1  0.63589748  0.82627737  0.58275027  1  -0.56578  0.000174  2.099211  0.0  -0.515535  9.7e-05  2.315141  0.0  -0.537526  5.3e-05  2.297273  0.0  -1.188846  0.000215  -0.335858  -0.500004  0.000146  2.327014  0.0
O  O107  1  0.17372983  0.36410073  0.91725033  1  -0.565801  0.000179  2.099146  0.0  -0.515519  9.8e-05  2.315145  0.0  -0.537517  5.2e-05  2.297292  0.0  -1.188785  0.000215  -0.335874  -0.499992  0.000146  2.32701  0.0
O  O108  1  0.36410362  0.17372250  0.41724763  1  -0.56579  -0.000177  2.099135  0.0  -0.515523  -9.8e-05  2.314998  0.0  -0.53754  -5.2e-05  2.297183  0.0  -1.188903  -0.000216  -0.335855  -0.499992  -0.000146  2.326876  0.0
O  O109  1  0.82627382  0.63589782  0.08274965  1  -0.565715  -0.000174  2.099342  0.0  -0.515411  -9.8e-05  2.315359  0.0  -0.537417  -5.3e-05  2.297523  0.0  -1.188779  -0.000216  -0.335769  -0.499884  -0.000146  2.327227  0.0
