# generated using pymatgen
data_Zn3H34C46(NO7)2
_symmetry_space_group_name_H-M   'P 1'
_cell_length_a   14.96899146
_cell_length_b   14.97214807
_cell_length_c   15.84385932
_cell_angle_alpha   103.48157566
_cell_angle_beta   103.49331965
_cell_angle_gamma   116.68008271
_symmetry_Int_Tables_number   1
_chemical_formula_structural   Zn3H34C46(NO7)2
_chemical_formula_sum   'Zn6 H68 C92 N4 O28'
_cell_volume   2842.37222478
_cell_formula_units_Z   2
loop_
 _symmetry_equiv_pos_site_id
 _symmetry_equiv_pos_as_xyz
  1  'x, y, z'
loop_
 _atom_site_type_symbol
 _atom_site_label
 _atom_site_symmetry_multiplicity
 _atom_site_fract_x
 _atom_site_fract_y
 _atom_site_fract_z
 _atom_site_occupancy
 _atom_site_pbe_bader_charge
 _atom_site_pbe_bader_spin_density
 _atom_site_pbe_cm5_charge
 _atom_site_pbe_ddec_charge
 _atom_site_pbe_ddec_spin_density
 _atom_site_pbe_ddec_sum_bond_order
 _atom_site_pbe_magmom
Zn  Zn0  1  0.55716675  0.93527184  0.04715352  1  1.387497  0  0.705459  0.994155  0  2.279252  0
Zn  Zn1  1  0.06440821  0.44257073  0.45233644  1  1.387798  0  0.705237  0.993549  0  2.28051  0
Zn  Zn2  1  0.44286979  0.06493252  0.95280407  1  1.386629  0  0.705556  0.99414  0  2.281119  0
Zn  Zn3  1  0.93531990  0.55729770  0.54756462  1  1.387521  0  0.705418  0.993852  0  2.27985  0
Zn  Zn4  1  0.83138326  0.16845968  0.24983515  1  1.332677  0  0.697508  0.960326  0  2.260443  0
Zn  Zn5  1  0.16867558  0.83151316  0.75017842  1  1.332522  0  0.697576  0.960451  0  2.260688  0
H  H6  1  0.96028143  0.01643310  0.16001057  1  0.082077  0  0.10986  0.116944  0  0.998041  0
H  H7  1  0.05309764  0.91486016  0.15261032  1  0.104673  0  0.105975  0.113942  0  1.011678  0
H  H8  1  0.75007518  0.61907739  0.08040170  1  0.083898  0  0.108678  0.12119  0  1.003867  0
H  H9  1  0.65943649  0.72430854  0.09070541  1  0.104172  0  0.112467  0.118677  0  0.992505  0
H  H10  1  0.90509024  0.36777731  0.08202810  1  0.126045  0  0.100654  0.102409  0  1.052703  0
H  H11  1  0.93419123  0.51325958  0.01974081  1  0.067377  0  0.104772  0.111466  0  1.011147  0
H  H12  1  0.92183521  0.69782732  0.26542631  1  0.073049  0  0.109455  0.120686  0  0.986024  0
H  H13  1  0.89162714  0.55132027  0.32671129  1  0.17473  0  0.110397  0.126774  0  1.033522  0
H  H14  1  0.15886631  0.87957165  0.95549431  1  0.138129  0  0.111576  0.131013  0  1.017512  0
H  H15  1  0.98749467  0.79061458  0.98142236  1  0.086656  0  0.112389  0.124773  0  0.982537  0
H  H16  1  0.13555424  0.69320213  0.17898397  1  0.08715  0  0.105601  0.115228  0  1.020946  0
H  H17  1  0.30327832  0.77466200  0.14542382  1  0.118451  0  0.110344  0.117658  0  0.982487  0
H  H18  1  0.40022898  0.67035037  0.81492738  1  0.040266  0  0.09044  0.047459  0  0.992068  0
H  H19  1  0.34371673  0.73063499  0.87636688  1  0.054984  0  0.093313  0.06189  0  0.98269  0
H  H20  1  0.31807508  0.56618470  0.90533787  1  0.02569  0  0.077908  0.106895  0  1.048362  0
H  H21  1  0.46190512  0.62411876  0.95218568  1  0.0052  0  0.083112  0.116555  0  1.010431  0
H  H22  1  0.40325842  0.68379789  0.01292907  1  0.026705  0  0.087053  0.13026  0  1.013646  0
H  H23  1  0.98345728  0.03973863  0.33996304  1  0.08121  0  0.109963  0.117046  0  0.99795  0
H  H24  1  0.08499942  0.94688992  0.34738282  1  0.104099  0  0.106021  0.114141  0  1.011756  0
H  H25  1  0.38088514  0.24972735  0.41938879  1  0.083979  0  0.108538  0.12085  0  1.004243  0
H  H26  1  0.27568042  0.34038901  0.40905723  1  0.106032  0  0.112336  0.118413  0  0.992697  0
H  H27  1  0.63220649  0.09481359  0.41774316  1  0.127451  0  0.100865  0.10287  0  1.05232  0
H  H28  1  0.48671974  0.06571424  0.48006664  1  0.070791  0  0.104689  0.111699  0  1.011457  0
H  H29  1  0.30199397  0.07803896  0.23438091  1  0.073113  0  0.109798  0.121254  0  0.985998  0
H  H30  1  0.44851281  0.10826754  0.17307220  1  0.172118  0  0.110374  0.126575  0  1.03358  0
H  H31  1  0.12050887  0.84111487  0.54450804  1  0.139112  0  0.111632  0.131126  0  1.01695  0
H  H32  1  0.20934235  0.01239701  0.51846598  1  0.087835  0  0.11225  0.124314  0  0.982666  0
H  H33  1  0.30671744  0.86438314  0.32088818  1  0.087074  0  0.105615  0.115245  0  1.02122  0
H  H34  1  0.22532118  0.69672520  0.35449421  1  0.118333  0  0.110431  0.117652  0  0.982406  0
H  H35  1  0.32924586  0.59953525  0.68486946  1  0.022394  0  0.090633  0.04775  0  0.991961  0
H  H36  1  0.26912006  0.65615320  0.62344629  1  0.055952  0  0.093428  0.062397  0  0.982477  0
H  H37  1  0.43373974  0.68188124  0.59475218  1  0.026664  0  0.077791  0.106837  0  1.048085  0
H  H38  1  0.37583791  0.53811466  0.54780040  1  0.005761  0  0.08302  0.116413  0  1.01068  0
H  H39  1  0.31628850  0.59683712  0.48702210  1  0.035394  0  0.087028  0.130217  0  1.013438  0
H  H40  1  0.03976097  0.98356945  0.84009607  1  0.082062  0  0.109903  0.11696  0  0.99803  0
H  H41  1  0.94692499  0.08512334  0.84745284  1  0.104932  0  0.106031  0.113908  0  1.011701  0
H  H42  1  0.24987451  0.38086359  0.91941064  1  0.085016  0  0.108639  0.121024  0  1.003858  0
H  H43  1  0.34053538  0.27565614  0.90914935  1  0.104192  0  0.112385  0.118649  0  0.992336  0
H  H44  1  0.09523616  0.63229987  0.91792945  1  0.127707  0  0.100859  0.103027  0  1.052564  0
H  H45  1  0.06606751  0.48678317  0.98021243  1  0.06882  0  0.104658  0.111613  0  1.011421  0
H  H46  1  0.07814909  0.30207633  0.73440188  1  0.073867  0  0.109771  0.120904  0  0.98591  0
H  H47  1  0.10837146  0.44859071  0.67311069  1  0.173018  0  0.110372  0.126535  0  1.033568  0
H  H48  1  0.84097536  0.12052185  0.04433995  1  0.141362  0  0.111703  0.131324  0  1.017077  0
H  H49  1  0.01236861  0.20933613  0.01842001  1  0.087731  0  0.112193  0.124438  0  0.982855  0
H  H50  1  0.86453894  0.30694147  0.82089384  1  0.084624  0  0.105772  0.115309  0  1.021397  0
H  H51  1  0.69679882  0.22560640  0.85442055  1  0.112373  0  0.110735  0.11817  0  0.98251  0
H  H52  1  0.59995670  0.32999961  0.18496751  1  0.040401  0  0.090647  0.047897  0  0.991742  0
H  H53  1  0.65651745  0.26974209  0.12362337  1  0.052451  0  0.093361  0.062194  0  0.982419  0
H  H54  1  0.68199441  0.43402476  0.09439029  1  0.024077  0  0.077808  0.106843  0  1.048786  0
H  H55  1  0.53815897  0.37602046  0.04756895  1  0.008085  0  0.083208  0.116596  0  1.010153  0
H  H56  1  0.59682412  0.31631204  0.98689148  1  0.034737  0  0.087172  0.130407  0  1.013786  0
H  H57  1  0.01660340  0.96022563  0.66000366  1  0.07995  0  0.109809  0.116732  0  0.997894  0
H  H58  1  0.91507695  0.05309125  0.65262543  1  0.104536  0  0.106078  0.114135  0  1.011742  0
H  H59  1  0.61920620  0.75031979  0.58082454  1  0.084994  0  0.108507  0.119502  0  1.005745  0
H  H60  1  0.72437813  0.65961482  0.59108273  1  0.105494  0  0.112281  0.118265  0  0.993176  0
H  H61  1  0.36779066  0.90494936  0.58238406  1  0.128685  0  0.101101  0.103378  0  1.052251  0
H  H62  1  0.51329870  0.93412476  0.52005695  1  0.071293  0  0.104518  0.111063  0  1.011831  0
H  H63  1  0.69815144  0.92198268  0.76582452  1  0.075835  0  0.109939  0.120967  0  0.986223  0
H  H64  1  0.55161125  0.89169027  0.82713119  1  0.170156  0  0.110239  0.1267  0  1.033995  0
H  H65  1  0.87945278  0.15899289  0.45563464  1  0.141157  0  0.111723  0.131455  0  1.016826  0
H  H66  1  0.79075120  0.98770950  0.48169584  1  0.087679  0  0.11224  0.124288  0  0.982737  0
H  H67  1  0.69321233  0.13556209  0.67924540  1  0.084824  0  0.105777  0.115435  0  1.021387  0
H  H68  1  0.77449373  0.30321380  0.64562981  1  0.113658  0  0.11058  0.117985  0  0.98264  0
H  H69  1  0.67020225  0.40010968  0.31516173  1  0.041834  0  0.090592  0.047893  0  0.992094  0
H  H70  1  0.73041868  0.34352652  0.37649308  1  0.051338  0  0.093609  0.062754  0  0.981904  0
H  H71  1  0.56599319  0.31796369  0.40556039  1  0.023831  0  0.077854  0.106996  0  1.048693  0
H  H72  1  0.62399763  0.46175083  0.45248050  1  0.006215  0  0.083004  0.116512  0  1.010243  0
H  H73  1  0.68364550  0.40302167  0.51314226  1  0.034132  0  0.087323  0.130692  0  1.014001  0
C  C74  1  0.75367209  0.94297322  0.13429613  1  1.593941  0  0.221604  0.595106  0  4.172055  0
C  C75  1  0.80438958  0.87688560  0.12556508  1  -0.095638  0  -0.01404  -0.034643  0  3.947356  0
C  C76  1  0.91503840  0.92928845  0.14166212  1  0.083049  0  -0.07973  -0.073285  0  3.992618  0
C  C77  1  0.96656094  0.87239118  0.13729947  1  -0.081995  0  -0.090944  -0.174159  0  4.000364  0
C  C78  1  0.90758947  0.75974623  0.11475126  1  0.274319  0  0.103652  0.181644  0  4.012223  0
C  C79  1  0.79617170  0.70633070  0.09846201  1  -0.006247  0  -0.090332  -0.177506  0  3.971405  0
C  C80  1  0.74563914  0.76470589  0.10399132  1  0.013784  0  -0.073835  -0.06793  0  3.961823  0
C  C81  1  0.89136570  0.36966656  0.24964944  1  1.551764  0  0.215912  0.582045  0  4.189359  0
C  C82  1  0.89949127  0.45234175  0.20889078  1  -0.006226  0  -0.004567  -0.015516  0  3.919364  0
C  C83  1  0.90983696  0.44074901  0.12177492  1  -0.078885  0  -0.078141  -0.072068  0  3.95776  0
C  C84  1  0.92608563  0.52148452  0.08729761  1  -0.020161  0  -0.09087  -0.172089  0  3.992164  0
C  C85  1  0.93219315  0.61518049  0.13984397  1  0.269544  0  0.095318  0.166544  0  4.0318  0
C  C86  1  0.91701291  0.62492877  0.22501352  1  -0.026465  0  -0.086229  -0.166481  0  3.965337  0
C  C87  1  0.90137175  0.54409499  0.25958542  1  -0.008204  0  -0.071433  -0.06359  0  3.913245  0
C  C88  1  0.34501033  0.89195135  0.03617823  1  1.579994  0  0.228237  0.601845  0  4.178827  0
C  C89  1  0.24201310  0.83443079  0.05065634  1  -0.037246  0  -0.009733  -0.028825  0  3.943089  0
C  C90  1  0.15264270  0.83869369  0.00433090  1  -0.021019  0  -0.073656  -0.06101  0  3.938788  0
C  C91  1  0.05761867  0.78958161  0.01922326  1  -0.011378  0  -0.089455  -0.173976  0  3.980662  0
C  C92  1  0.05176816  0.73980855  0.08479126  1  0.284954  0  0.10058  0.17834  0  4.010823  0
C  C93  1  0.14015445  0.73248167  0.12901905  1  -0.046666  0  -0.094483  -0.180624  0  3.985255  0
C  C94  1  0.23385891  0.77872297  0.11100043  1  -0.001835  0  -0.079916  -0.082485  0  3.983103  0
C  C95  1  0.41128170  0.71576958  0.88760383  1  0.529435  0  -0.078069  0.138172  0  4.04066  0
C  C96  1  0.39776740  0.64241387  0.94311904  1  -0.049473  0  -0.252879  -0.404591  0  3.946835  0
C  C97  1  0.05693135  0.24621965  0.36546724  1  1.591779  0  0.221077  0.594657  0  4.170993  0
C  C98  1  0.12305535  0.19553693  0.37429070  1  -0.096431  0  -0.013984  -0.035266  0  3.947415  0
C  C99  1  0.07062979  0.08493745  0.35827618  1  0.081146  0  -0.079899  -0.073118  0  3.992815  0
C  C100  1  0.12750023  0.03339351  0.36265377  1  -0.080342  0  -0.091018  -0.175402  0  4.002458  0
C  C101  1  0.24016166  0.09229486  0.38511768  1  0.275564  0  0.103197  0.175908  0  4.008952  0
C  C102  1  0.29360824  0.20365994  0.40135137  1  -0.005418  0  -0.090142  -0.177639  0  3.973275  0
C  C103  1  0.23525256  0.25422347  0.39581322  1  0.012309  0  -0.073549  -0.067089  0  3.96108  0
C  C104  1  0.63019854  0.10848587  0.25004683  1  1.558525  0  0.216009  0.581966  0  4.190834  0
C  C105  1  0.54753490  0.10034165  0.29085068  1  0.026463  0  -0.005141  -0.015832  0  3.918012  0
C  C106  1  0.55917321  0.09002379  0.37798313  1  -0.080273  0  -0.078616  -0.072899  0  3.958653  0
C  C107  1  0.47845371  0.07378246  0.41247688  1  -0.019999  0  -0.090416  -0.172699  0  3.995402  0
C  C108  1  0.38469997  0.06764576  0.35993515  1  0.265232  0  0.095192  0.161636  0  4.030422  0
C  C109  1  0.37492483  0.08284514  0.27477701  1  -0.020516  0  -0.087204  -0.168907  0  3.970008  0
C  C110  1  0.45574618  0.09849071  0.24018500  1  -0.051032  0  -0.071031  -0.062732  0  3.91234  0
C  C111  1  0.10803055  0.65496008  0.46375456  1  1.579189  0  0.228191  0.60154  0  4.177417  0
C  C112  1  0.16557054  0.75796080  0.44929378  1  -0.036415  0  -0.009353  -0.028182  0  3.942575  0
C  C113  1  0.16133408  0.84730890  0.49561968  1  -0.024501  0  -0.073827  -0.061563  0  3.939183  0
C  C114  1  0.21037588  0.94229403  0.48068792  1  -0.011961  0  -0.089541  -0.173827  0  3.981674  0
C  C115  1  0.26012235  0.94813963  0.41506846  1  0.287336  0  0.100575  0.172273  0  4.009128  0
C  C116  1  0.26745609  0.85976961  0.37086948  1  -0.050262  0  -0.094681  -0.181331  0  3.987769  0
C  C117  1  0.22125500  0.76612236  0.38892389  1  0.000509  0  -0.080033  -0.082575  0  3.983649  0
C  C118  1  0.28396770  0.58859226  0.61216995  1  0.5507  0  -0.078448  0.137502  0  4.039874  0
C  C119  1  0.35752093  0.60221499  0.55684130  1  -0.060636  0  -0.252576  -0.404121  0  3.946996  0
C  C120  1  0.24633446  0.05702127  0.86567504  1  1.595779  0  0.221324  0.594709  0  4.172992  0
C  C121  1  0.19561543  0.12310540  0.87440946  1  -0.096436  0  -0.013967  -0.034784  0  3.947372  0
C  C122  1  0.08499346  0.07071192  0.85838250  1  0.083064  0  -0.079793  -0.073267  0  3.99272  0
C  C123  1  0.03345994  0.12758686  0.86273061  1  -0.082168  0  -0.091042  -0.174809  0  4.002325  0
C  C124  1  0.09239881  0.24021355  0.88517663  1  0.276009  0  0.103556  0.176122  0  4.009995  0
C  C125  1  0.20378618  0.29362014  0.90141219  1  -0.006629  0  -0.090365  -0.177938  0  3.973401  0
C  C126  1  0.25434837  0.23526201  0.89590717  1  0.012691  0  -0.073687  -0.067611  0  3.961251  0
C  C127  1  0.10873929  0.63030629  0.75026646  1  1.537231  0  0.215724  0.581615  0  4.188648  0
C  C128  1  0.10065663  0.54764285  0.79100942  1  0.004531  0  -0.004717  -0.015496  0  3.918275  0
C  C129  1  0.09039920  0.55926320  0.87815205  1  -0.082696  0  -0.078765  -0.073295  0  3.958609  0
C  C130  1  0.07411258  0.47853252  0.91261738  1  -0.015247  0  -0.089929  -0.171861  0  3.994943  0
C  C131  1  0.06788638  0.38478603  0.86002172  1  0.265102  0  0.095479  0.161557  0  4.031165  0
C  C132  1  0.08303603  0.37501778  0.77485232  1  -0.020233  0  -0.087095  -0.167947  0  3.970118  0
C  C133  1  0.09870014  0.45583939  0.74027321  1  -0.012952  0  -0.071177  -0.063278  0  3.913102  0
C  C134  1  0.65495205  0.10827582  0.96369852  1  1.586485  0  0.22799  0.600803  0  4.178247  0
C  C135  1  0.75794118  0.16575356  0.94919966  1  -0.06759  0  -0.00944  -0.027882  0  3.940558  0
C  C136  1  0.84725531  0.16141812  0.99550825  1  0.002286  0  -0.073797  -0.061677  0  3.939376  0
C  C137  1  0.94228955  0.21044597  0.98063071  1  -0.012089  0  -0.089617  -0.174245  0  3.983051  0
C  C138  1  0.94821758  0.26023781  0.91505130  1  0.286087  0  0.100937  0.172903  0  4.00917  0
C  C139  1  0.85988297  0.26764451  0.87084598  1  -0.043455  0  -0.094921  -0.181025  0  3.986787  0
C  C140  1  0.76616705  0.22148288  0.88886371  1  -0.000629  0  -0.080047  -0.083495  0  3.9822  0
C  C141  1  0.58892016  0.28454994  0.11230512  1  0.533362  0  -0.07873  0.137142  0  4.040226  0
C  C142  1  0.60233511  0.35777187  0.05667989  1  -0.062991  0  -0.252831  -0.404511  0  3.948114  0
C  C143  1  0.94308439  0.75371054  0.63456375  1  1.591858  0  0.221173  0.594478  0  4.171527  0
C  C144  1  0.87700231  0.80444477  0.62576489  1  -0.030483  0  -0.013817  -0.034986  0  3.946696  0
C  C145  1  0.92943693  0.91502780  0.64173493  1  0.015012  0  -0.079872  -0.073201  0  3.992477  0
C  C146  1  0.87258443  0.96659724  0.63739106  1  -0.080652  0  -0.091011  -0.175195  0  4.001556  0
C  C147  1  0.75992307  0.90772168  0.61500958  1  0.277131  0  0.103356  0.179697  0  4.010596  0
C  C148  1  0.70647155  0.79636052  0.59879904  1  -0.005201  0  -0.089923  -0.176575  0  3.972269  0
C  C149  1  0.76481389  0.74576899  0.60429697  1  0.011719  0  -0.073852  -0.067228  0  3.960837  0
C  C150  1  0.36986520  0.89140569  0.75004989  1  1.539822  0  0.216429  0.582034  0  4.191314  0
C  C151  1  0.45253419  0.89949015  0.70928138  1  0.038744  0  -0.005204  -0.015697  0  3.917909  0
C  C152  1  0.44085521  0.90976691  0.62213750  1  -0.075727  0  -0.078904  -0.073977  0  3.95992  0
C  C153  1  0.52158827  0.92606748  0.58765520  1  -0.01542  0  -0.089739  -0.17118  0  3.994615  0
C  C154  1  0.61538451  0.93229038  0.64023332  1  0.263331  0  0.095379  0.165982  0  4.030194  0
C  C155  1  0.62519142  0.91712063  0.72540242  1  -0.025197  0  -0.087401  -0.168737  0  3.969229  0
C  C156  1  0.54436991  0.90144011  0.75999844  1  -0.050919  0  -0.071273  -0.063558  0  3.912844  0
C  C157  1  0.89169561  0.34503575  0.53627375  1  1.585992  0  0.228255  0.601001  0  4.176831  0
C  C158  1  0.83428627  0.24206683  0.55081525  1  -0.068486  0  -0.009297  -0.027867  0  3.939802  0
C  C159  1  0.83860352  0.15274099  0.50450839  1  0.002075  0  -0.073863  -0.062234  0  3.939196  0
C  C160  1  0.78964205  0.05777667  0.51947141  1  -0.01259  0  -0.089552  -0.173717  0  3.982102  0
C  C161  1  0.73990083  0.05188517  0.58509057  1  0.285885  0  0.100511  0.175938  0  4.008767  0
C  C162  1  0.73248118  0.14019328  0.62927000  1  -0.042948  0  -0.09512  -0.181558  0  3.986619  0
C  C163  1  0.77861222  0.23385400  0.61119868  1  -0.000161  0  -0.079821  -0.083034  0  3.982647  0
C  C164  1  0.71560007  0.41110331  0.38782995  1  0.534748  0  -0.079011  0.136864  0  4.04037  0
C  C165  1  0.64227036  0.39760047  0.44335926  1  -0.060418  0  -0.252844  -0.40501  0  3.949119  0
N  N166  1  0.96003547  0.70193463  0.10871435  1  -1.189822  0  -0.224578  -0.098173  0  3.640361  0
N  N167  1  0.29793765  0.03979163  0.39109281  1  -1.185425  0  -0.223764  -0.077629  0  3.612861  0
N  N168  1  0.03992892  0.29801173  0.89113565  1  -1.185569  0  -0.224243  -0.078261  0  3.614742  0
N  N169  1  0.70215973  0.96021439  0.60908920  1  -1.183782  0  -0.223727  -0.087829  0  3.624247  0
O  O170  1  0.81626981  0.04410043  0.15393438  1  -1.190375  0  -0.320035  -0.566967  0  2.390703  0
O  O171  1  0.65395066  0.89578353  0.12231847  1  -1.168183  0  -0.314339  -0.547935  0  2.279715  0
O  O172  1  0.85909680  0.27511487  0.19127968  1  -1.150956  0  -0.31292  -0.54264  0  2.328376  0
O  O173  1  0.91605786  0.39543772  0.33714694  1  -1.148253  0  -0.302484  -0.569789  0  2.357778  0
O  O174  1  0.35269958  0.96144598  0.00108664  1  -1.160714  0  -0.299361  -0.544276  0  2.441713  0
O  O175  1  0.41604025  0.86833828  0.06267701  1  -1.158276  0  -0.305194  -0.545072  0  2.338445  0
O  O176  1  0.51059958  0.81131519  0.92803545  1  -0.976377  0  -0.31633  -0.438191  0  2.097904  0
O  O177  1  0.95579816  0.18362438  0.34583707  1  -1.190921  0  -0.3198  -0.566417  0  2.389543  0
O  O178  1  0.10410087  0.34587718  0.37733634  1  -1.164589  0  -0.313796  -0.547314  0  2.277898  0
O  O179  1  0.72479223  0.14077930  0.30841752  1  -1.150812  0  -0.312843  -0.542378  0  2.329016  0
O  O180  1  0.60440112  0.08381114  0.16255622  1  -1.152835  0  -0.302447  -0.569994  0  2.357577  0
O  O181  1  0.03876841  0.64738739  0.49915447  1  -1.16111  0  -0.299567  -0.544241  0  2.439405  0
O  O182  1  0.13137656  0.58378452  0.43693190  1  -1.156937  0  -0.305159  -0.545123  0  2.338142  0
O  O183  1  0.18833881  0.48928151  0.57160780  1  -0.979043  0  -0.31602  -0.438172  0  2.096184  0
O  O184  1  0.18376799  0.95592765  0.84605730  1  -1.192094  0  -0.319728  -0.56645  0  2.391819  0
O  O185  1  0.34604039  0.10423315  0.87760802  1  -1.168231  0  -0.314214  -0.547762  0  2.280228  0
O  O186  1  0.14114589  0.72489130  0.80871116  1  -1.150762  0  -0.312681  -0.542379  0  2.328292  0
O  O187  1  0.08391233  0.60456301  0.66275353  1  -1.149959  0  -0.30255  -0.569734  0  2.356859  0
O  O188  1  0.64728057  0.03888899  0.99894077  1  -1.161762  0  -0.299221  -0.543786  0  2.441537  0
O  O189  1  0.58386026  0.13180100  0.93707118  1  -1.157583  0  -0.305381  -0.544735  0  2.337949  0
O  O190  1  0.48961752  0.18891324  0.07189804  1  -0.973527  0  -0.316213  -0.438278  0  2.095656  0
O  O191  1  0.04422880  0.81628743  0.65422778  1  -1.191611  0  -0.319803  -0.566482  0  2.390846  0
O  O192  1  0.89588994  0.65405813  0.62266083  1  -1.16525  0  -0.314047  -0.547301  0  2.279718  0
O  O193  1  0.27530525  0.85907026  0.69163581  1  -1.150068  0  -0.31294  -0.542404  0  2.330231  0
O  O194  1  0.39567213  0.91622732  0.83755554  1  -1.153244  0  -0.302757  -0.57012  0  2.35767  0
O  O195  1  0.96088236  0.35261160  0.50075392  1  -1.160512  0  -0.299596  -0.543763  0  2.438988  0
O  O196  1  0.86833933  0.41616718  0.56311344  1  -1.158145  0  -0.305641  -0.545339  0  2.338768  0
O  O197  1  0.81127555  0.51039940  0.42825610  1  -0.973481  0  -0.315631  -0.437894  0  2.093863  0
