# generated using pymatgen
data_GdH6C7SO8
_symmetry_space_group_name_H-M   'P 1'
_cell_length_a   5.88063681
_cell_length_b   10.25187251
_cell_length_c   18.70524050
_cell_angle_alpha   80.91105018
_cell_angle_beta   80.95206898
_cell_angle_gamma   73.32684932
_symmetry_Int_Tables_number   1
_chemical_formula_structural   GdH6C7SO8
_chemical_formula_sum   'Gd4 H24 C28 S4 O32'
_cell_volume   1059.22244501
_cell_formula_units_Z   4
loop_
 _symmetry_equiv_pos_site_id
 _symmetry_equiv_pos_as_xyz
  1  'x, y, z'
loop_
 _atom_site_type_symbol
 _atom_site_label
 _atom_site_symmetry_multiplicity
 _atom_site_fract_x
 _atom_site_fract_y
 _atom_site_fract_z
 _atom_site_occupancy
 _atom_site_hle17_bader_spin_density
 _atom_site_hle17_ddec_charge
 _atom_site_hle17_ddec_spin_density
 _atom_site_hle17_ddec_sum_bond_order
 _atom_site_hle17_magmom
 _atom_site_hse06_10hf_bader_spin_density
 _atom_site_hse06_10hf_ddec_charge
 _atom_site_hse06_10hf_ddec_spin_density
 _atom_site_hse06_10hf_ddec_sum_bond_order
 _atom_site_hse06_10hf_magmom
 _atom_site_hse06_bader_spin_density
 _atom_site_hse06_ddec_charge
 _atom_site_hse06_ddec_spin_density
 _atom_site_hse06_ddec_sum_bond_order
 _atom_site_hse06_magmom
 _atom_site_pbe_bader_spin_density
 _atom_site_pbe_cm5_charge
 _atom_site_pbe_ddec_charge
 _atom_site_pbe_ddec_spin_density
 _atom_site_pbe_ddec_sum_bond_order
 _atom_site_pbe_magmom
Gd  Gd0  1  0.94887194  0.19621326  0.52966868  1  0  2.149047  0  1.788429  0  0  2.058433  0  2.141869  0  0  2.112627  0  2.088  0  0  1.459771  2.01732  0  2.183909  0
Gd  Gd1  1  0.67491455  0.30382196  0.97031645  1  0  2.149003  0  1.788264  0  0  2.056742  0  2.144603  0  0  2.111995  0  2.089114  0  0  1.45988  2.015756  0  2.186285  0
Gd  Gd2  1  0.05112812  0.80378524  0.47032846  1  0  2.149056  0  1.788383  0  0  2.058408  0  2.141841  0  0  2.112608  0  2.087965  0  0  1.459761  2.017267  0  2.183935  0
Gd  Gd3  1  0.32509055  0.69617874  0.02968648  1  0  2.149063  0  1.788188  0  0  2.056789  0  2.144518  0  0  2.112062  0  2.088993  0  0  1.459835  2.015788  0  2.186196  0
H  H4  1  0.57845805  0.24650474  0.65842371  1  0  0.444286  0  0.807937  0  0  0.42346  0  0.868304  0  0  0.431375  0  0.856992  0  0  0.330063  0.418  0  0.874796  0
H  H5  1  0.48348265  0.25357105  0.84154702  1  0  0.444217  0  0.808171  0  0  0.423242  0  0.86867  0  0  0.431189  0  0.857317  0  0  0.329983  0.417859  0  0.875194  0
H  H6  1  0.42153363  0.75349895  0.34157556  1  0  0.444386  0  0.807834  0  0  0.423525  0  0.868225  0  0  0.431442  0  0.856912  0  0  0.330085  0.418057  0  0.874759  0
H  H7  1  0.51652496  0.74642659  0.15845675  1  0  0.444139  0  0.808147  0  0  0.423158  0  0.868763  0  0  0.431106  0  0.857406  0  0  0.329917  0.417774  0  0.875198  0
H  H8  1  0.43393159  0.31525754  0.58986642  1  0  0.446864  0  0.847895  0  0  0.414452  0  0.913308  0  0  0.426033  0  0.896469  0  0  0.303726  0.406217  0  0.925298  0
H  H9  1  0.33948124  0.18468856  0.91013066  1  0  0.446826  0  0.847865  0  0  0.41388  0  0.914159  0  0  0.425559  0  0.89717  0  0  0.303474  0.40558  0  0.926219  0
H  H10  1  0.56607242  0.68474302  0.41013083  1  0  0.446811  0  0.847958  0  0  0.414406  0  0.913361  0  0  0.425987  0  0.896522  0  0  0.303704  0.406172  0  0.925348  0
H  H11  1  0.66053018  0.81530911  0.08987443  1  0  0.447022  0  0.847612  0  0  0.413951  0  0.914077  0  0  0.425625  0  0.897097  0  0  0.303519  0.405657  0  0.926126  0
H  H12  1  0.48012031  0.25036913  0.46793026  1  0  0.445467  0  0.827826  0  0  0.419788  0  0.892196  0  0  0.428831  0  0.87902  0  0  0.321116  0.413386  0  0.901561  0
H  H13  1  0.19854681  0.24956555  0.03194673  1  0  0.444845  0  0.827012  0  0  0.419052  0  0.892896  0  0  0.428118  0  0.879675  0  0  0.32111  0.412665  0  0.901811  0
H  H14  1  0.51987846  0.74962628  0.53206638  1  0  0.445433  0  0.827778  0  0  0.419742  0  0.892241  0  0  0.428784  0  0.879067  0  0  0.321072  0.41334  0  0.901609  0
H  H15  1  0.80146258  0.75043395  0.96804917  1  0  0.444788  0  0.827054  0  0  0.418999  0  0.892957  0  0  0.428062  0  0.879742  0  0  0.321069  0.412608  0  0.901849  0
H  H16  1  0.64177455  0.10551011  0.44938596  1  0  0.444157  0  0.859364  0  0  0.411436  0  0.925815  0  0  0.422088  0  0.910541  0  0  0.307073  0.403913  0  0.936588  0
H  H17  1  0.19670146  0.39437852  0.05056230  1  0  0.443074  0  0.860916  0  0  0.410672  0  0.927084  0  0  0.421355  0  0.911767  0  0  0.30708  0.403223  0  0.937739  0
H  H18  1  0.35822803  0.89448534  0.55061201  1  0  0.444148  0  0.859391  0  0  0.411434  0  0.925837  0  0  0.42208  0  0.910571  0  0  0.307088  0.403915  0  0.936605  0
H  H19  1  0.80330391  0.60561807  0.94944084  1  0  0.443118  0  0.860829  0  0  0.410731  0  0.926985  0  0  0.421416  0  0.911665  0  0  0.30712  0.403279  0  0.937645  0
H  H20  1  0.93015736  0.80693800  0.75083779  1  0  0.11542  0  0.969351  0  0  0.122786  0  1.035213  0  0  0.124697  0  1.036989  0  0  0.103048  0.121508  0  1.033897  0
H  H21  1  0.48803582  0.69311826  0.74909978  1  0  0.114209  0  0.970303  0  0  0.121455  0  1.036543  0  0  0.123366  0  1.038345  0  0  0.102451  0.120306  0  1.034972  0
H  H22  1  0.06983861  0.19306465  0.24916120  1  0  0.115412  0  0.969417  0  0  0.122785  0  1.035268  0  0  0.124699  0  1.037036  0  0  0.103049  0.121509  0  1.033948  0
H  H23  1  0.51194298  0.30688854  0.25090036  1  0  0.114148  0  0.970341  0  0  0.121384  0  1.036609  0  0  0.123292  0  1.03841  0  0  0.102416  0.120235  0  1.035038  0
H  H24  1  0.61423341  0.88602482  0.86385634  1  0  0.149612  0  0.957045  0  0  0.157778  0  1.014709  0  0  0.16194  0  1.011208  0  0  0.118746  0.154677  0  1.017405  0
H  H25  1  0.36431527  0.61368921  0.63614341  1  0  0.149527  0  0.956897  0  0  0.15762  0  1.014571  0  0  0.161769  0  1.011092  0  0  0.118844  0.154504  0  1.017314  0
H  H26  1  0.38575514  0.11398089  0.13614155  1  0  0.14964  0  0.95703  0  0  0.157772  0  1.014731  0  0  0.161931  0  1.01123  0  0  0.118783  0.154673  0  1.017424  0
H  H27  1  0.63566891  0.38631661  0.36385875  1  0  0.1495  0  0.956918  0  0  0.157628  0  1.014558  0  0  0.161777  0  1.011077  0  0  0.118827  0.154509  0  1.017295  0
C  C28  1  0.78254981  0.88853030  0.60787233  1  0  0.726626  0  3.82813  0  0  0.681533  0  4.122059  0  0  0.716899  0  4.10962  0  0  0.230036  0.657388  0  4.12969  0
C  C29  1  0.27900643  0.61152294  0.89215204  1  0  0.72581  0  3.831678  0  0  0.681079  0  4.123914  0  0  0.716524  0  4.111547  0  0  0.230372  0.656968  0  4.131568  0
C  C30  1  0.21745808  0.11147131  0.39212565  1  0  0.726675  0  3.828092  0  0  0.681476  0  4.122131  0  0  0.716843  0  4.109694  0  0  0.230061  0.657324  0  4.129766  0
C  C31  1  0.72099321  0.38847772  0.10784948  1  0  0.725443  0  3.832266  0  0  0.681029  0  4.124103  0  0  0.716478  0  4.111729  0  0  0.23029  0.656921  0  4.131753  0
C  C32  1  0.64901091  0.92234626  0.68042825  1  0  -0.030325  0  3.713626  0  0  -0.024804  0  3.955749  0  0  -0.023806  0  3.971573  0  0  -0.008378  -0.025543  0  3.945471  0
C  C33  1  0.25222214  0.57758183  0.81958080  1  0  -0.031215  0  3.715376  0  0  -0.024065  0  3.955483  0  0  -0.02305  0  3.971188  0  0  -0.008863  -0.024997  0  3.945451  0
C  C34  1  0.35099282  0.07765840  0.31956880  1  0  -0.030381  0  3.713507  0  0  -0.024725  0  3.955508  0  0  -0.023733  0  3.971333  0  0  -0.008413  -0.025464  0  3.945239  0
C  C35  1  0.74777226  0.42242196  0.18042255  1  0  -0.030925  0  3.715338  0  0  -0.023992  0  3.955572  0  0  -0.022987  0  3.971283  0  0  -0.008719  -0.024924  0  3.945544  0
C  C36  1  0.74835710  0.87091006  0.74700709  1  0  -0.109321  0  3.744165  0  0  -0.13215  0  4.000535  0  0  -0.137149  0  4.021652  0  0  -0.10164  -0.129101  0  3.986448  0
C  C37  1  0.36644677  0.62910739  0.75295934  1  0  -0.108645  0  3.744928  0  0  -0.132001  0  4.001329  0  0  -0.137046  0  4.022453  0  0  -0.101346  -0.128783  0  3.986805  0
C  C38  1  0.25163948  0.12909359  0.25299075  1  0  -0.109307  0  3.744268  0  0  -0.132152  0  4.000559  0  0  -0.137149  0  4.021678  0  0  -0.101609  -0.129099  0  3.986468  0
C  C39  1  0.63354273  0.37089636  0.24704206  1  0  -0.108575  0  3.744847  0  0  -0.131875  0  4.00129  0  0  -0.136912  0  4.022413  0  0  -0.10132  -0.128665  0  3.986774  0
C  C40  1  0.58797876  0.91253251  0.80668235  1  0  -0.132097  0  3.64912  0  0  -0.153851  0  3.930975  0  0  -0.150786  0  3.944212  0  0  -0.082659  -0.155526  0  3.921997  0
C  C41  1  0.30734397  0.58737318  0.69332804  1  0  -0.131491  0  3.65022  0  0  -0.153173  0  3.931768  0  0  -0.150099  0  3.944993  0  0  -0.082288  -0.154895  0  3.922979  0
C  C42  1  0.41201184  0.08747113  0.19331462  1  0  -0.132172  0  3.649126  0  0  -0.153911  0  3.931018  0  0  -0.150842  0  3.944252  0  0  -0.082734  -0.155589  0  3.922046  0
C  C43  1  0.69264757  0.41262852  0.30667413  1  0  -0.131519  0  3.650294  0  0  -0.153226  0  3.931803  0  0  -0.150156  0  3.945034  0  0  -0.082277  -0.154951  0  3.923009  0
C  C44  1  0.41401350  0.00274419  0.69131695  1  0  -0.211999  0  3.745827  0  0  -0.198059  0  4.011432  0  0  -0.206928  0  4.031213  0  0  -0.032138  -0.192284  0  3.997816  0
C  C45  1  0.10870275  0.49705245  0.80874217  1  0  -0.209715  0  3.746569  0  0  -0.197205  0  4.012785  0  0  -0.205971  0  4.032368  0  0  -0.031189  -0.191654  0  3.99982  0
C  C46  1  0.58599180  0.99725938  0.30867742  1  0  -0.212018  0  3.745879  0  0  -0.198153  0  4.011521  0  0  -0.20701  0  4.031288  0  0  -0.032143  -0.19238  0  3.997913  0
C  C47  1  0.89129778  0.50294515  0.19126010  1  0  -0.209699  0  3.746669  0  0  -0.197198  0  4.013007  0  0  -0.205957  0  4.032583  0  0  -0.031236  -0.191661  0  4.000056  0
C  C48  1  0.25078195  0.06954555  0.63692617  1  0  0.651856  0  3.964505  0  0  0.602831  0  4.263143  0  0  0.637689  0  4.254735  0  0  0.185888  0.579275  0  4.268051  0
C  C49  1  0.95765624  0.43041185  0.86312517  1  0  0.648953  0  3.965598  0  0  0.600615  0  4.263879  0  0  0.635421  0  4.255547  0  0  0.184479  0.57717  0  4.26868  0
C  C50  1  0.74922029  0.93045290  0.36306883  1  0  0.65192  0  3.964542  0  0  0.602887  0  4.263175  0  0  0.637749  0  4.254768  0  0  0.185901  0.579336  0  4.268078  0
C  C51  1  0.04234859  0.56957652  0.13687775  1  0  0.648858  0  3.965999  0  0  0.600539  0  4.264259  0  0  0.635344  0  4.255928  0  0  0.184402  0.577108  0  4.26905  0
C  C52  1  0.88429552  0.52072967  0.48127859  1  0  0.573006  0  3.8879  0  0  0.528846  0  4.185249  0  0  0.558963  0  4.176168  0  0  0.231025  0.508169  0  4.191268  0
C  C53  1  0.88629004  0.97931090  0.01868640  1  0  0.572395  0  3.886976  0  0  0.528193  0  4.184297  0  0  0.558386  0  4.175171  0  0  0.231385  0.507727  0  4.189762  0
C  C54  1  0.11569732  0.47927497  0.51871733  1  0  0.573292  0  3.887541  0  0  0.529149  0  4.184868  0  0  0.559267  0  4.17578  0  0  0.231046  0.508467  0  4.190897  0
C  C55  1  0.11371170  0.02069710  0.98132109  1  0  0.572394  0  3.887179  0  0  0.528155  0  4.184535  0  0  0.55835  0  4.175411  0  0  0.231264  0.507686  0  4.189997  0
S  S56  1  0.31850433  0.01262479  0.78297036  1  0  0.215667  0  2.614909  0  0  0.215702  0  2.937786  0  0  0.216319  0  2.943566  0  0  0.118513  0.215434  0  2.932748  0
S  S57  1  0.11454546  0.48715069  0.71712631  1  0  0.215275  0  2.615424  0  0  0.215965  0  2.938405  0  0  0.216532  0  2.944126  0  0  0.118005  0.215194  0  2.93419  0
S  S58  1  0.68149117  0.98737881  0.21702518  1  0  0.215748  0  2.614974  0  0  0.215783  0  2.937864  0  0  0.216399  0  2.94364  0  0  0.118556  0.21552  0  2.932833  0
S  S59  1  0.88544792  0.51284586  0.28287507  1  0  0.215262  0  2.615534  0  0  0.215964  0  2.938534  0  0  0.21653  0  2.944255  0  0  0.117986  0.215186  0  2.934323  0
O  O60  1  0.87669311  0.97564801  0.56602380  1  0  -0.777973  0  2.137457  0  0  -0.734792  0  2.394786  0  0  -0.763046  0  2.38507  0  0  -0.412218  -0.7141  0  2.400631  0
O  O61  1  0.41825865  0.52443603  0.93406785  1  0  -0.778893  0  2.138338  0  0  -0.735342  0  2.394988  0  0  -0.763969  0  2.385311  0  0  -0.41324  -0.714814  0  2.400946  0
O  O62  1  0.12331853  0.02435253  0.43397274  1  0  -0.777961  0  2.137461  0  0  -0.734753  0  2.39484  0  0  -0.763008  0  2.385124  0  0  -0.4122  -0.714064  0  2.400696  0
O  O63  1  0.58174965  0.47556358  0.06593248  1  0  -0.778763  0  2.138496  0  0  -0.735303  0  2.395012  0  0  -0.763928  0  2.385329  0  0  -0.413211  -0.714782  0  2.400986  0
O  O64  1  0.80858155  0.77114992  0.58918581  1  0  -0.669709  0  1.956748  0  0  -0.631984  0  2.188938  0  0  -0.657243  0  2.180559  0  0  -0.35526  -0.614042  0  2.194439  0
O  O65  1  0.16867364  0.72890776  0.91079339  1  0  -0.668443  0  1.957629  0  0  -0.630785  0  2.189823  0  0  -0.656194  0  2.181313  0  0  -0.354859  -0.612983  0  2.195093  0
O  O66  1  0.19142654  0.22885476  0.41081204  1  0  -0.669728  0  1.956705  0  0  -0.631963  0  2.188902  0  0  -0.657224  0  2.180525  0  0  -0.355278  -0.614023  0  2.194391  0
O  O67  1  0.83133376  0.27109499  0.08920957  1  0  -0.668345  0  1.957874  0  0  -0.630803  0  2.189969  0  0  -0.656213  0  2.181459  0  0  -0.354858  -0.613018  0  2.195275  0
O  O68  1  0.32201240  0.04993664  0.56921269  1  0  -0.701982  0  2.047169  0  0  -0.642622  0  2.277756  0  0  -0.668086  0  2.267928  0  0  -0.371989  -0.624669  0  2.284  0
O  O69  1  0.94117605  0.45013716  0.93083262  1  0  -0.700699  0  2.046454  0  0  -0.6421  0  2.277157  0  0  -0.667721  0  2.267408  0  0  -0.371946  -0.624263  0  2.283481  0
O  O70  1  0.67798930  0.95006183  0.43078285  1  0  -0.702087  0  2.047273  0  0  -0.642657  0  2.277817  0  0  -0.668129  0  2.267958  0  0  -0.371967  -0.624685  0  2.284032  0
O  O71  1  0.05883293  0.54985639  0.06917197  1  0  -0.700661  0  2.046678  0  0  -0.642062  0  2.277405  0  0  -0.667686  0  2.267655  0  0  -0.37187  -0.624219  0  2.283685  0
O  O72  1  0.04397948  0.14631523  0.65508876  1  0  -0.661337  0  1.940322  0  0  -0.623278  0  2.172107  0  0  -0.646383  0  2.16227  0  0  -0.377757  -0.607131  0  2.178415  0
O  O73  1  0.84590652  0.35363917  0.84492419  1  0  -0.659194  0  1.939676  0  0  -0.620915  0  2.171187  0  0  -0.644128  0  2.161345  0  0  -0.376142  -0.604955  0  2.1775  0
O  O74  1  0.95601772  0.85368119  0.34490719  1  0  -0.661355  0  1.940317  0  0  -0.623308  0  2.172101  0  0  -0.646424  0  2.162285  0  0  -0.377798  -0.607156  0  2.178409  0
O  O75  1  0.15411165  0.64634511  0.15507962  1  0  -0.659212  0  1.93979  0  0  -0.620926  0  2.17127  0  0  -0.644142  0  2.161426  0  0  -0.376153  -0.60497  0  2.177564  0
O  O76  1  0.78430889  0.42938579  0.47823681  1  0  -0.598207  0  2.052154  0  0  -0.556938  0  2.290246  0  0  -0.580365  0  2.282633  0  0  -0.347066  -0.54054  0  2.295431  0
O  O77  1  0.69190343  0.07065197  0.02167502  1  0  -0.597315  0  2.05019  0  0  -0.556276  0  2.28896  0  0  -0.579819  0  2.281227  0  0  -0.347378  -0.539802  0  2.29393  0
O  O78  1  0.21567497  0.57061472  0.52175825  1  0  -0.598209  0  2.052124  0  0  -0.556967  0  2.290243  0  0  -0.580391  0  2.282623  0  0  -0.346974  -0.540566  0  2.295443  0
O  O79  1  0.30810336  0.92934982  0.97833077  1  0  -0.597374  0  2.050108  0  0  -0.556335  0  2.288945  0  0  -0.579885  0  2.281214  0  0  -0.347347  -0.539858  0  2.293911  0
O  O80  1  0.81320141  0.64741172  0.45609929  1  0  -0.684836  0  2.116195  0  0  -0.631242  0  2.345724  0  0  -0.657465  0  2.337438  0  0  -0.342911  -0.612914  0  2.351437  0
O  O81  1  0.91651903  0.85264503  0.04389175  1  0  -0.685536  0  2.116624  0  0  -0.631308  0  2.34621  0  0  -0.657697  0  2.337824  0  0  -0.342813  -0.612814  0  2.351467  0
O  O82  1  0.18678986  0.35258577  0.54389855  1  0  -0.684997  0  2.115971  0  0  -0.631435  0  2.345512  0  0  -0.657659  0  2.337224  0  0  -0.342987  -0.613108  0  2.351227  0
O  O83  1  0.08348904  0.14735997  0.95611959  1  0  -0.685415  0  2.116931  0  0  -0.631205  0  2.346523  0  0  -0.657597  0  2.338141  0  0  -0.34278  -0.612709  0  2.351786  0
O  O84  1  0.59457329  0.28660227  0.60786234  1  0  -0.893241  0  1.878629  0  0  -0.857382  0  2.074571  0  0  -0.876056  0  2.043851  0  0  -0.634217  -0.843854  0  2.095107  0
O  O85  1  0.48933172  0.21344597  0.89209947  1  0  -0.893301  0  1.878906  0  0  -0.856631  0  2.075584  0  0  -0.875535  0  2.044575  0  0  -0.633972  -0.843024  0  2.09603  0
O  O86  1  0.40542575  0.71339727  0.39213526  1  0  -0.893304  0  1.878567  0  0  -0.857414  0  2.074543  0  0  -0.876076  0  2.043795  0  0  -0.634188  -0.843865  0  2.095127  0
O  O87  1  0.51068597  0.78654754  0.10790333  1  0  -0.893422  0  1.878671  0  0  -0.856643  0  2.07561  0  0  -0.875551  0  2.044615  0  0  -0.633986  -0.843028  0  2.095929  0
O  O88  1  0.64706788  0.19814250  0.45883913  1  0  -0.891037  0  1.892481  0  0  -0.850168  0  2.096372  0  0  -0.870349  0  2.067099  0  0  -0.642796  -0.83552  0  2.116791  0
O  O89  1  0.30411889  0.30176144  0.04111273  1  0  -0.889727  0  1.893104  0  0  -0.848534  0  2.097201  0  0  -0.868831  0  2.067726  0  0  -0.642973  -0.834051  0  2.11722  0
O  O90  1  0.35293191  0.80185195  0.54116043  1  0  -0.891046  0  1.892515  0  0  -0.85013  0  2.096404  0  0  -0.870312  0  2.067141  0  0  -0.642775  -0.835484  0  2.116846  0
O  O91  1  0.69588825  0.69823718  0.95888928  1  0  -0.889689  0  1.893036  0  0  -0.848515  0  2.097122  0  0  -0.868812  0  2.067649  0  0  -0.642964  -0.834039  0  2.117129  0
