# generated using pymatgen
data_CdH28C34(NO)4
_symmetry_space_group_name_H-M   'P 1'
_cell_length_a   11.12469001
_cell_length_b   11.12450148
_cell_length_c   15.77206806
_cell_angle_alpha   69.89601411
_cell_angle_beta   69.89544218
_cell_angle_gamma   80.87933278
_symmetry_Int_Tables_number   1
_chemical_formula_structural   CdH28C34(NO)4
_chemical_formula_sum   'Cd2 H56 C68 N8 O8'
_cell_volume   1719.47696856
_cell_formula_units_Z   2
loop_
 _symmetry_equiv_pos_site_id
 _symmetry_equiv_pos_as_xyz
  1  'x, y, z'
loop_
 _atom_site_type_symbol
 _atom_site_label
 _atom_site_symmetry_multiplicity
 _atom_site_fract_x
 _atom_site_fract_y
 _atom_site_fract_z
 _atom_site_occupancy
 _atom_site_pbe_bader_charge
 _atom_site_pbe_bader_spin_density
 _atom_site_pbe_cm5_charge
 _atom_site_pbe_ddec_charge
 _atom_site_pbe_ddec_spin_density
 _atom_site_pbe_ddec_sum_bond_order
 _atom_site_pbe_magmom
Cd  Cd0  1  0.29960838  0.70038851  0.25000189  1  1.241624  0  0.771637  0.886141  0  2.147288  0
Cd  Cd1  1  0.70038515  0.29960770  0.75000257  1  1.241578  0  0.771618  0.886095  0  2.14737  0
H  H2  1  0.68013890  0.87043088  0.03459941  1  0.061246  0  0.100654  0.110242  0  0.999542  0
H  H3  1  0.12957093  0.31985888  0.46540701  1  0.06126  0  0.100687  0.110292  0  0.999545  0
H  H4  1  0.31986898  0.12956366  0.96540277  1  0.06101  0  0.100665  0.110262  0  0.999691  0
H  H5  1  0.87042844  0.68013714  0.53459298  1  0.061278  0  0.100679  0.11029  0  0.99961  0
H  H6  1  0.54245038  0.85797151  0.13538060  1  0.083256  0  0.105936  0.130152  0  1.006903  0
H  H7  1  0.14203262  0.45754667  0.36462358  1  0.083386  0  0.10596  0.130247  0  1.006874  0
H  H8  1  0.45755557  0.14202598  0.86462199  1  0.083779  0  0.105951  0.1302  0  1.006907  0
H  H9  1  0.85796865  0.54245020  0.63537642  1  0.083386  0  0.105939  0.130225  0  1.006908  0
H  H10  1  0.53960643  0.92193914  0.93048310  1  0.039064  0  0.090066  0.085691  0  0.987844  0
H  H11  1  0.07805601  0.46040011  0.56952057  1  0.039022  0  0.090078  0.085718  0  0.987797  0
H  H12  1  0.46040142  0.07806491  0.06951881  1  0.038975  0  0.09006  0.085702  0  0.987844  0
H  H13  1  0.92193954  0.53959612  0.43047962  1  0.038983  0  0.090036  0.085645  0  0.987889  0
H  H14  1  0.40156173  0.89788714  0.03224220  1  0.082768  0  0.092194  0.095893  0  1.008299  0
H  H15  1  0.10210856  0.59844447  0.46776022  1  0.082706  0  0.092185  0.095896  0  1.008295  0
H  H16  1  0.59844423  0.10211703  0.96775948  1  0.082618  0  0.092145  0.095873  0  1.008296  0
H  H17  1  0.89788889  0.40155164  0.53224019  1  0.082624  0  0.092164  0.095887  0  1.008314  0
H  H18  1  0.33010878  0.40671999  0.22679863  1  0.064155  0  0.103225  0.11638  0  1.008052  0
H  H19  1  0.59327318  0.66989412  0.27319659  1  0.064166  0  0.103222  0.11642  0  1.008118  0
H  H20  1  0.66989713  0.59327936  0.77320544  1  0.064176  0  0.103218  0.116392  0  1.008005  0
H  H21  1  0.40671284  0.33011408  0.72680241  1  0.064169  0  0.103228  0.116441  0  1.008067  0
H  H22  1  0.42478597  0.20754020  0.18464171  1  0.065255  0  0.094408  0.091402  0  1.028176  0
H  H23  1  0.79245276  0.57521913  0.31535025  1  0.06487  0  0.094411  0.09148  0  1.028181  0
H  H24  1  0.57521610  0.79245838  0.81536342  1  0.065265  0  0.094423  0.091397  0  1.028178  0
H  H25  1  0.20754007  0.42479363  0.68464233  1  0.064938  0  0.094412  0.091448  0  1.028173  0
H  H26  1  0.63840684  0.20577260  0.06425974  1  0.085276  0  0.099736  0.099571  0  1.017424  0
H  H27  1  0.79422285  0.36159981  0.43573333  1  0.085421  0  0.099748  0.099671  0  1.01743  0
H  H28  1  0.36159148  0.79422433  0.93574346  1  0.085108  0  0.099731  0.099613  0  1.017436  0
H  H29  1  0.20577962  0.63841634  0.56425498  1  0.085123  0  0.099755  0.099657  0  1.017372  0
H  H30  1  0.76431474  0.40116747  0.98239273  1  0.074787  0  0.098436  0.103474  0  1.055978  0
H  H31  1  0.59883172  0.23568902  0.51760548  1  0.074872  0  0.098433  0.103499  0  1.055955  0
H  H32  1  0.23568191  0.59883076  0.01760168  1  0.074878  0  0.098449  0.103506  0  1.055946  0
H  H33  1  0.40117829  0.76431805  0.48238700  1  0.074765  0  0.098385  0.103376  0  1.056022  0
H  H34  1  0.77033400  0.77342001  0.90994786  1  0.080809  0  0.11968  0.104933  0  0.96108  0
H  H35  1  0.22658219  0.22967079  0.59006085  1  0.080732  0  0.119658  0.104886  0  0.961031  0
H  H36  1  0.22966543  0.22658180  0.09004889  1  0.080849  0  0.119703  0.104956  0  0.961107  0
H  H37  1  0.77342090  0.77033163  0.40994126  1  0.080706  0  0.11964  0.10486  0  0.961044  0
H  H38  1  0.82145396  0.61188241  0.91933595  1  0.060089  0  0.120992  0.11031  0  0.971114  0
H  H39  1  0.38812009  0.17855045  0.58066912  1  0.060127  0  0.120973  0.110265  0  0.971275  0
H  H40  1  0.17854454  0.38811853  0.08065994  1  0.06012  0  0.120922  0.110161  0  0.971155  0
H  H41  1  0.61188300  0.82145100  0.41933321  1  0.060053  0  0.120942  0.110182  0  0.971196  0
H  H42  1  0.84530119  0.49518166  0.10760457  1  0.069768  0  0.104087  0.109601  0  1.001868  0
H  H43  1  0.50481795  0.15470100  0.39240422  1  0.069468  0  0.104075  0.109571  0  1.001817  0
H  H44  1  0.15470501  0.50481799  0.89238858  1  0.069732  0  0.104111  0.109598  0  1.001907  0
H  H45  1  0.49518406  0.84528606  0.60760484  1  0.069723  0  0.104119  0.10956  0  1.001828  0
H  H46  1  0.98892578  0.51192784  0.19423351  1  0.086829  0  0.104093  0.107548  0  1.005078  0
H  H47  1  0.48807654  0.01108099  0.30576993  1  0.086486  0  0.104095  0.107544  0  1.005025  0
H  H48  1  0.01107753  0.48807097  0.80576114  1  0.086761  0  0.104084  0.107585  0  1.00507  0
H  H49  1  0.51192448  0.98890608  0.69424062  1  0.086578  0  0.104105  0.107535  0  1.005061  0
H  H50  1  0.06946047  0.89664350  0.01191689  1  0.091005  0  0.103581  0.106403  0  1.011827  0
H  H51  1  0.10335715  0.93054860  0.48807976  1  0.091028  0  0.103562  0.106393  0  1.01179  0
H  H52  1  0.93054277  0.10335620  0.98808010  1  0.090982  0  0.103599  0.106441  0  1.011873  0
H  H53  1  0.89663831  0.06945327  0.51192296  1  0.091138  0  0.103569  0.106419  0  1.011741  0
H  H54  1  0.92406420  0.88320929  0.92481018  1  0.076995  0  0.104737  0.11064  0  0.997654  0
H  H55  1  0.11679315  0.07594052  0.57519192  1  0.076959  0  0.104693  0.110553  0  0.997635  0
H  H56  1  0.07594099  0.11679131  0.07518489  1  0.077022  0  0.104724  0.110674  0  0.997676  0
H  H57  1  0.88320421  0.92406123  0.42481103  1  0.077037  0  0.104709  0.110581  0  0.997718  0
C  C58  1  0.57016853  0.70636864  0.07839066  1  0.986993  0  0.235747  0.322256  0  3.960081  0
C  C59  1  0.29362784  0.42983343  0.42161194  1  0.986812  0  0.235769  0.322352  0  3.960057  0
C  C60  1  0.42983270  0.29362820  0.92161062  1  0.986804  0  0.235712  0.322235  0  3.960028  0
C  C61  1  0.70636763  0.57016558  0.57839080  1  0.98696  0  0.235757  0.322281  0  3.959933  0
C  C62  1  0.57973902  0.84359215  0.06512439  1  0.001092  0  -0.156414  -0.262698  0  3.962253  0
C  C63  1  0.15640582  0.42026290  0.43488172  1  0.001054  0  -0.156568  -0.263023  0  3.962463  0
C  C64  1  0.42026694  0.15640725  0.93487776  1  0.00086  0  -0.156442  -0.262772  0  3.962504  0
C  C65  1  0.84359066  0.57973420  0.56511933  1  0.001012  0  -0.156528  -0.262943  0  3.962342  0
C  C66  1  0.50027782  0.93045964  0.00264713  1  -0.073638  0  -0.161618  -0.127602  0  3.912136  0
C  C67  1  0.06953856  0.49972768  0.49735516  1  -0.07371  0  -0.161532  -0.127514  0  3.912218  0
C  C68  1  0.49972910  0.06954544  0.99735412  1  -0.043903  0  -0.161621  -0.127696  0  3.912275  0
C  C69  1  0.93045891  0.50026845  0.50264461  1  -0.043943  0  -0.161531  -0.127525  0  3.91221  0
C  C70  1  0.49564769  0.51536875  0.12867200  1  0.361025  0  0.085582  0.153712  0  4.070422  0
C  C71  1  0.48463129  0.50435311  0.37132436  1  0.361184  0  0.085616  0.153767  0  4.070397  0
C  C72  1  0.50435264  0.48463105  0.87132691  1  0.360995  0  0.085564  0.153653  0  4.070517  0
C  C73  1  0.51536521  0.49564688  0.62867538  1  0.361115  0  0.085563  0.153657  0  4.070619  0
C  C74  1  0.42417194  0.40533915  0.17437393  1  0.069071  0  -0.09616  -0.156474  0  3.975961  0
C  C75  1  0.59465995  0.57583125  0.32562126  1  0.068724  0  -0.096171  -0.156548  0  3.976044  0
C  C76  1  0.57582929  0.59466340  0.82562667  1  0.069124  0  -0.096147  -0.156462  0  3.975881  0
C  C77  1  0.40533366  0.42417650  0.67437863  1  0.068866  0  -0.096105  -0.156457  0  3.975892  0
C  C78  1  0.47771701  0.29512293  0.14983744  1  -0.114189  0  -0.105568  -0.102908  0  4.050489  0
C  C79  1  0.70487365  0.52228973  0.35015665  1  -0.113839  0  -0.105536  -0.102868  0  4.050354  0
C  C80  1  0.52228322  0.70487677  0.85016532  1  -0.114711  0  -0.105556  -0.102799  0  4.050421  0
C  C81  1  0.29512199  0.47772186  0.64983808  1  -0.113846  0  -0.105597  -0.102963  0  4.050409  0
C  C82  1  0.59918505  0.29354515  0.08178649  1  -0.046626  0  -0.101273  -0.088392  0  4.027022  0
C  C83  1  0.70645062  0.40082135  0.41820977  1  -0.046614  0  -0.101297  -0.088618  0  4.026987  0
C  C84  1  0.40081137  0.70645382  0.91821605  1  -0.046186  0  -0.101349  -0.088615  0  4.027106  0
C  C85  1  0.29354689  0.59919106  0.58178626  1  -0.046513  0  -0.101342  -0.08861  0  4.026986  0
C  C86  1  0.61667145  0.51298650  0.05938019  1  0.336192  0  0.091622  0.086604  0  4.028201  0
C  C87  1  0.48701478  0.38333275  0.44061636  1  0.336158  0  0.091632  0.086607  0  4.028192  0
C  C88  1  0.38332802  0.48701631  0.94061505  1  0.336112  0  0.09165  0.086666  0  4.028239  0
C  C89  1  0.51298460  0.61666997  0.55938209  1  0.336142  0  0.091606  0.086551  0  4.028504  0
C  C90  1  0.67074890  0.40279786  0.03511709  1  -0.017501  0  -0.100182  -0.163945  0  4.015065  0
C  C91  1  0.59720068  0.32925477  0.46487935  1  -0.017473  0  -0.100238  -0.163962  0  4.015157  0
C  C92  1  0.32924773  0.59720035  0.96487795  1  -0.017309  0  -0.100154  -0.163902  0  4.015089  0
C  C93  1  0.40280167  0.67074886  0.53511505  1  -0.017414  0  -0.100125  -0.163725  0  4.014962  0
C  C94  1  0.78448165  0.67967529  0.96028750  1  0.320679  0  -0.03949  -0.098421  0  3.905884  0
C  C95  1  0.32032645  0.21552351  0.53972067  1  0.320846  0  -0.0394  -0.098203  0  3.90583  0
C  C96  1  0.21551876  0.32032650  0.03970840  1  0.3207  0  -0.039449  -0.098309  0  3.905947  0
C  C97  1  0.67967664  0.78447795  0.46028166  1  0.320666  0  -0.039322  -0.098025  0  3.905612  0
C  C98  1  0.87632410  0.68777464  0.00983193  1  -0.052818  0  -0.010194  0.090219  0  3.979242  0
C  C99  1  0.31222866  0.12367826  0.49017491  1  -0.052589  0  -0.010206  0.090096  0  3.979077  0
C  C100  1  0.12367727  0.31222710  0.99016375  1  -0.052865  0  -0.010246  0.090201  0  3.979189  0
C  C101  1  0.68777345  0.87632035  0.50982893  1  -0.052442  0  -0.010241  0.09002  0  3.979255  0
C  C102  1  0.89490361  0.58320762  0.08578265  1  -0.036271  0  -0.092193  -0.13528  0  3.980371  0
C  C103  1  0.41679364  0.10510056  0.41422296  1  -0.036066  0  -0.092172  -0.135207  0  3.980484  0
C  C104  1  0.10510163  0.41679207  0.91421071  1  -0.036146  0  -0.092173  -0.135246  0  3.980359  0
C  C105  1  0.58320747  0.89489138  0.58578328  1  -0.036665  0  -0.092205  -0.135203  0  3.980331  0
C  C106  1  0.97434992  0.59215072  0.13466743  1  -0.003  0  -0.087417  -0.101179  0  4.006713  0
C  C107  1  0.40785421  0.02565652  0.36533582  1  -0.003352  0  -0.087368  -0.101136  0  4.006815  0
C  C108  1  0.02565243  0.40784909  0.86532720  1  -0.003044  0  -0.087432  -0.101328  0  4.006806  0
C  C109  1  0.59214685  0.97433538  0.63467234  1  -0.003006  0  -0.087401  -0.10114  0  4.006697  0
C  C110  1  0.03707758  0.70547645  0.10841983  1  -0.077626  0  -0.020952  -0.036989  0  3.98565  0
C  C111  1  0.29452831  0.96293192  0.39157685  1  -0.077006  0  -0.021027  -0.03695  0  3.985483  0
C  C112  1  0.96292281  0.29452437  0.89157693  1  -0.077598  0  -0.020928  -0.036783  0  3.985536  0
C  C113  1  0.70547103  0.03706694  0.60842377  1  -0.077235  0  -0.020988  -0.036864  0  3.985598  0
C  C114  1  0.01968441  0.80937085  0.03189625  1  -0.03052  0  -0.08298  -0.083668  0  3.977421  0
C  C115  1  0.19063192  0.98032123  0.46810304  1  -0.030519  0  -0.082941  -0.083723  0  3.977252  0
C  C116  1  0.98031502  0.19063097  0.96810049  1  -0.030691  0  -0.082976  -0.083696  0  3.977546  0
C  C117  1  0.80936447  0.01967865  0.53190056  1  -0.030511  0  -0.082948  -0.083756  0  3.977363  0
C  C118  1  0.93946834  0.80072369  0.98313939  1  -0.055672  0  -0.093077  -0.15037  0  3.99722  0
C  C119  1  0.19927790  0.06053603  0.51686120  1  -0.055806  0  -0.093048  -0.150237  0  3.996951  0
C  C120  1  0.06053688  0.19927503  0.01685483  1  -0.055552  0  -0.09306  -0.15048  0  3.99736  0
C  C121  1  0.80072042  0.93946377  0.48314198  1  -0.055815  0  -0.093059  -0.150263  0  3.997192  0
C  C122  1  0.12447861  0.71378828  0.16027014  1  1.545676  0  0.184766  0.551689  0  4.248339  0
C  C123  1  0.28621515  0.87552938  0.33972551  1  1.545515  0  0.184706  0.551553  0  4.248535  0
C  C124  1  0.87551789  0.28621075  0.83972982  1  1.54579  0  0.184708  0.551638  0  4.248165  0
C  C125  1  0.71378037  0.12446873  0.66027553  1  1.545687  0  0.184656  0.55148  0  4.248505  0
N  N126  1  0.47027127  0.63713460  0.13832925  1  -1.210143  0  -0.354519  -0.409034  0  3.429607  0
N  N127  1  0.36286325  0.52972991  0.36167210  1  -1.21017  0  -0.35451  -0.40903  0  3.429523  0
N  N128  1  0.52973086  0.36286307  0.86167417  1  -1.210154  0  -0.354496  -0.409028  0  3.4296  0
N  N129  1  0.63713130  0.47026919  0.63832956  1  -1.210165  0  -0.354474  -0.408965  0  3.429496  0
N  N130  1  0.66026911  0.63594862  0.02809607  1  -1.217372  0  -0.239479  -0.07341  0  3.696999  0
N  N131  1  0.36404812  0.33973713  0.47190782  1  -1.217225  0  -0.239517  -0.073508  0  3.696927  0
N  N132  1  0.33973030  0.36405126  0.97190176  1  -1.217188  0  -0.239477  -0.073337  0  3.696934  0
N  N133  1  0.63595127  0.66026178  0.52809088  1  -1.217197  0  -0.239532  -0.0735  0  3.696978  0
O  O134  1  0.13559321  0.61561074  0.23040405  1  -1.174132  0  -0.344892  -0.574563  0  2.197763  0
O  O135  1  0.38439339  0.86440950  0.26959525  1  -1.174216  0  -0.344821  -0.574455  0  2.197908  0
O  O136  1  0.86438969  0.38439448  0.76960523  1  -1.174123  0  -0.344807  -0.574515  0  2.197615  0
O  O137  1  0.61560591  0.13558549  0.73040754  1  -1.174289  0  -0.344817  -0.574415  0  2.198033  0
O  O138  1  0.18593861  0.81449034  0.13242159  1  -1.168085  0  -0.338916  -0.564833  0  2.137684  0
O  O139  1  0.18551221  0.81406893  0.36757647  1  -1.167917  0  -0.338936  -0.564842  0  2.137747  0
O  O140  1  0.81406561  0.18550361  0.86757523  1  -1.168199  0  -0.338962  -0.564889  0  2.137698  0
O  O141  1  0.81448317  0.18593095  0.63242926  1  -1.167827  0  -0.338882  -0.564813  0  2.137648  0
