# generated using pymatgen
data_CdH11C15N3O7
_symmetry_space_group_name_H-M   'P 1'
_cell_length_a   8.07308956
_cell_length_b   10.15448838
_cell_length_c   11.60514838
_cell_angle_alpha   68.85401019
_cell_angle_beta   77.79451753
_cell_angle_gamma   66.78434431
_symmetry_Int_Tables_number   1
_chemical_formula_structural   CdH11C15N3O7
_chemical_formula_sum   'Cd2 H22 C30 N6 O14'
_cell_volume   812.79656539
_cell_formula_units_Z   2
loop_
 _symmetry_equiv_pos_site_id
 _symmetry_equiv_pos_as_xyz
  1  'x, y, z'
loop_
 _atom_site_type_symbol
 _atom_site_label
 _atom_site_symmetry_multiplicity
 _atom_site_fract_x
 _atom_site_fract_y
 _atom_site_fract_z
 _atom_site_occupancy
 _atom_site_hle17_bader_spin_density
 _atom_site_hle17_ddec_charge
 _atom_site_hle17_ddec_spin_density
 _atom_site_hle17_ddec_sum_bond_order
 _atom_site_hle17_magmom
 _atom_site_hse06_10hf_bader_spin_density
 _atom_site_hse06_10hf_ddec_charge
 _atom_site_hse06_10hf_ddec_spin_density
 _atom_site_hse06_10hf_ddec_sum_bond_order
 _atom_site_hse06_10hf_magmom
 _atom_site_hse06_bader_spin_density
 _atom_site_hse06_ddec_charge
 _atom_site_hse06_ddec_spin_density
 _atom_site_hse06_ddec_sum_bond_order
 _atom_site_hse06_magmom
 _atom_site_pbe_bader_spin_density
 _atom_site_pbe_cm5_charge
 _atom_site_pbe_ddec_charge
 _atom_site_pbe_ddec_spin_density
 _atom_site_pbe_ddec_sum_bond_order
 _atom_site_pbe_magmom
Cd  Cd0  1  0.66867502  0.56765053  0.57110042  1  0  1.196414  0  1.594814  0  0  1.015706  0  2.033369  0  0  1.072438  0  1.979888  0  0  0.780065  0.972538  0  2.071736  0
Cd  Cd1  1  0.33132433  0.43234926  0.42890011  1  0  1.196403  0  1.594824  0  0  1.015702  0  2.033378  0  0  1.072427  0  1.979904  0  0  0.780054  0.972533  0  2.071746  0
H  H2  1  0.26484686  0.32274504  0.94862196  1  0  0.310908  0  0.902558  0  0  0.294217  0  0.959707  0  0  0.302589  0  0.952442  0  0  0.321931  0.288238  0  0.96504  0
H  H3  1  0.73515633  0.67725470  0.05137886  1  0  0.310947  0  0.902582  0  0  0.294228  0  0.959734  0  0  0.302595  0  0.95247  0  0  0.321924  0.288254  0  0.965063  0
H  H4  1  0.66113218  0.05632564  0.53714651  1  0  0.122175  0  0.928917  0  0  0.128176  0  0.99292  0  0  0.132376  0  0.989185  0  0  0.11389  0.125096  0  0.995613  0
H  H5  1  0.33886670  0.94367529  0.46285288  1  0  0.122169  0  0.928884  0  0  0.128177  0  0.992885  0  0  0.132377  0  0.989151  0  0  0.113886  0.125096  0  0.995578  0
H  H6  1  0.00497850  0.29154625  0.28759058  1  0  0.126718  0  0.939823  0  0  0.131534  0  1.008192  0  0  0.135999  0  1.003419  0  0  0.120079  0.128315  0  1.011672  0
H  H7  1  0.99502080  0.70845359  0.71240735  1  0  0.126706  0  0.939819  0  0  0.131518  0  1.008197  0  0  0.135986  0  1.00342  0  0  0.120071  0.128298  0  1.011675  0
H  H8  1  0.00463197  0.88675309  0.24644210  1  0  0.123491  0  0.936224  0  0  0.129976  0  1.000754  0  0  0.134351  0  0.996296  0  0  0.118455  0.126716  0  1.004165  0
H  H9  1  0.99536832  0.11324443  0.75355984  1  0  0.123465  0  0.936225  0  0  0.129931  0  1.000776  0  0  0.134307  0  0.996317  0  0  0.118436  0.126674  0  1.004192  0
H  H10  1  0.45328839  0.31583768  0.74102820  1  0  0.109282  0  0.933347  0  0  0.120634  0  0.991387  0  0  0.123429  0  0.987312  0  0  0.139721  0.118397  0  0.994618  0
H  H11  1  0.54671480  0.68416206  0.25897262  1  0  0.109259  0  0.933327  0  0  0.120617  0  0.991361  0  0  0.123412  0  0.987286  0  0  0.139734  0.118379  0  0.994585  0
H  H12  1  0.13485734  0.53022768  0.09476207  1  0  0.118135  0  0.952086  0  0  0.126825  0  1.014878  0  0  0.130642  0  1.011891  0  0  0.101987  0.124036  0  1.017217  0
H  H13  1  0.86514456  0.46977208  0.90523808  1  0  0.118128  0  0.952081  0  0  0.126812  0  1.014885  0  0  0.130633  0  1.011893  0  0  0.101984  0.124024  0  1.01722  0
H  H14  1  0.16770795  0.76466235  0.09228460  1  0  0.084649  0  0.962533  0  0  0.09766  0  1.022508  0  0  0.099939  0  1.021664  0  0  0.094272  0.095907  0  1.023441  0
H  H15  1  0.83228921  0.23533971  0.90771557  1  0  0.08465  0  0.962555  0  0  0.097659  0  1.022527  0  0  0.099938  0  1.021683  0  0  0.094282  0.095904  0  1.023464  0
H  H16  1  0.35500443  0.88765296  0.92707007  1  0  0.093276  0  0.952798  0  0  0.104185  0  1.012271  0  0  0.107409  0  1.010133  0  0  0.096229  0.101848  0  1.013982  0
H  H17  1  0.64499227  0.11235022  0.07292983  1  0  0.093297  0  0.952789  0  0  0.104208  0  1.012261  0  0  0.107432  0  1.010123  0  0  0.096242  0.101869  0  1.013978  0
H  H18  1  0.51934155  0.78127346  0.75368661  1  0  0.119319  0  0.949888  0  0  0.130362  0  1.008623  0  0  0.133727  0  1.006591  0  0  0.103772  0.127834  0  1.010273  0
H  H19  1  0.48065770  0.21872969  0.24631291  1  0  0.119305  0  0.949934  0  0  0.130366  0  1.00864  0  0  0.133717  0  1.006628  0  0  0.103773  0.127835  0  1.010295  0
H  H20  1  0.01676028  0.38516964  0.66916544  1  0  0.426023  0  0.875972  0  0  0.396372  0  0.937776  0  0  0.407089  0  0.922284  0  0  0.286733  0.388712  0  0.948871  0
H  H21  1  0.98323825  0.61482903  0.33083555  1  0  0.426008  0  0.875984  0  0  0.396369  0  0.937766  0  0  0.407083  0  0.922278  0  0  0.286731  0.388709  0  0.948859  0
H  H22  1  0.99768036  0.55152517  0.62639925  1  0  0.417054  0  0.890912  0  0  0.38542  0  0.957254  0  0  0.396358  0  0.941351  0  0  0.28656  0.377639  0  0.968553  0
H  H23  1  0.00231820  0.44847349  0.37360260  1  0  0.4171  0  0.890852  0  0  0.385499  0  0.957171  0  0  0.396412  0  0.941283  0  0  0.286587  0.377714  0  0.968476  0
C  C24  1  0.82776360  0.95630591  0.39803850  1  0  -0.050128  0  3.724847  0  0  -0.023026  0  3.961596  0  0  -0.034132  0  3.984963  0  0  -0.006835  -0.016304  0  3.946164  0
C  C25  1  0.17223747  0.04369276  0.60196125  1  0  -0.050046  0  3.724867  0  0  -0.022929  0  3.961607  0  0  -0.034034  0  3.984977  0  0  -0.006799  -0.016223  0  3.946202  0
C  C26  1  0.76254767  0.06542869  0.45927796  1  0  -0.023461  0  3.633182  0  0  -0.067697  0  3.888889  0  0  -0.062051  0  3.905682  0  0  -0.055254  -0.070607  0  3.877475  0
C  C27  1  0.23744995  0.93457224  0.54072249  1  0  -0.023398  0  3.633219  0  0  -0.067664  0  3.888951  0  0  -0.062018  0  3.905742  0  0  -0.05524  -0.070569  0  3.877529  0
C  C28  1  0.82459082  0.18639766  0.42094683  1  0  -0.070026  0  3.748749  0  0  -0.041444  0  3.98749  0  0  -0.053809  0  4.012488  0  0  -0.011914  -0.033794  0  3.970861  0
C  C29  1  0.17540977  0.81360216  0.57905178  1  0  -0.070109  0  3.748785  0  0  -0.041498  0  3.987525  0  0  -0.053861  0  4.012516  0  0  -0.011894  -0.033841  0  3.970889  0
C  C30  1  0.95404571  0.19880871  0.32033280  1  0  -0.055772  0  3.646411  0  0  -0.101126  0  3.910568  0  0  -0.094878  0  3.92577  0  0  -0.056635  -0.104722  0  3.900003  0
C  C31  1  0.04595315  0.80119225  0.67966573  1  0  -0.055731  0  3.646368  0  0  -0.101085  0  3.910535  0  0  -0.094836  0  3.92573  0  0  -0.056631  -0.10468  0  3.899968  0
C  C32  1  0.01624818  0.08982869  0.25991313  1  0  0.067266  0  3.708351  0  0  0.056073  0  3.962519  0  0  0.049544  0  3.98637  0  0  0.080888  0.060053  0  3.946341  0
C  C33  1  0.98375032  0.91017002  0.74008613  1  0  0.06726  0  3.708352  0  0  0.056033  0  3.962543  0  0  0.049504  0  3.986394  0  0  0.08085  0.060011  0  3.946369  0
C  C34  1  0.95525522  0.96881566  0.29661131  1  0  -0.066058  0  3.664246  0  0  -0.108265  0  3.922719  0  0  -0.103361  0  3.939134  0  0  -0.058713  -0.110916  0  3.9113  0
C  C35  1  0.04474287  0.03118415  0.70338941  1  0  -0.066052  0  3.664221  0  0  -0.108234  0  3.922702  0  0  -0.10333  0  3.939115  0  0  -0.058684  -0.110883  0  3.911285  0
C  C36  1  0.76199946  0.82579546  0.44226681  1  0  0.64814  0  3.92431  0  0  0.596724  0  4.214759  0  0  0.631516  0  4.209014  0  0  0.200229  0.573368  0  4.217199  0
C  C37  1  0.23799989  0.17420433  0.55773372  1  0  0.647978  0  3.92444  0  0  0.596547  0  4.214918  0  0  0.631337  0  4.209182  0  0  0.200162  0.573195  0  4.217348  0
C  C38  1  0.74577351  0.30419258  0.48567480  1  0  0.654163  0  3.918641  0  0  0.596328  0  4.217029  0  0  0.631396  0  4.211497  0  0  0.206262  0.572647  0  4.21959  0
C  C39  1  0.25422537  0.69580835  0.51432459  1  0  0.654211  0  3.918646  0  0  0.596357  0  4.217054  0  0  0.631426  0  4.211521  0  0  0.206278  0.572665  0  4.219624  0
C  C40  1  0.42312840  0.40074485  0.78586872  1  0  0.270901  0  3.651611  0  0  0.206241  0  3.927257  0  0  0.225168  0  3.936502  0  0  0.162445  0.193859  0  3.920431  0
C  C41  1  0.57687307  0.59925601  0.21413288  1  0  0.271097  0  3.651532  0  0  0.206395  0  3.92716  0  0  0.225315  0  3.936401  0  0  0.162465  0.194021  0  3.920333  0
C  C42  1  0.30489088  0.52861346  0.92139579  1  0  0.151806  0  3.779296  0  0  0.145103  0  4.022942  0  0  0.148357  0  4.046553  0  0  0.092658  0.14288  0  4.007033  0
C  C43  1  0.69510929  0.47138745  0.07860427  1  0  0.151828  0  3.779267  0  0  0.14509  0  4.022877  0  0  0.148336  0  4.046487  0  0  0.092623  0.142876  0  4.006973  0
C  C44  1  0.21417749  0.58568509  0.01921521  1  0  -0.150901  0  3.746969  0  0  -0.171925  0  4.005648  0  0  -0.174739  0  4.025904  0  0  -0.099694  -0.170004  0  3.992071  0
C  C45  1  0.78582269  0.41431580  0.98078572  1  0  -0.150909  0  3.746991  0  0  -0.171941  0  4.005679  0  0  -0.174757  0  4.025936  0  0  -0.099716  -0.170021  0  3.992099  0
C  C46  1  0.23484570  0.71620346  0.01765168  1  0  -0.071002  0  3.782285  0  0  -0.092662  0  4.047804  0  0  -0.09544  0  4.072505  0  0  -0.104228  -0.090764  0  4.031233  0
C  C47  1  0.76515319  0.28379746  0.98234858  1  0  -0.070992  0  3.782301  0  0  -0.092647  0  4.047813  0  0  -0.095426  0  4.072516  0  0  -0.104222  -0.090747  0  4.031243  0
C  C48  1  0.34294992  0.78620258  0.92322382  1  0  -0.079778  0  3.789053  0  0  -0.100052  0  4.053409  0  0  -0.102816  0  4.077471  0  0  -0.10498  -0.09827  0  4.036999  0
C  C49  1  0.65704724  0.21379947  0.07677635  1  0  -0.079771  0  3.789053  0  0  -0.100056  0  4.053421  0  0  -0.102821  0  4.077481  0  0  -0.10498  -0.098273  0  4.037014  0
C  C50  1  0.43491526  0.72811220  0.82654477  1  0  -0.147313  0  3.740846  0  0  -0.165465  0  3.992802  0  0  -0.168993  0  4.014583  0  0  -0.097432  -0.162862  0  3.977986  0
C  C51  1  0.56508319  0.27188982  0.17345608  1  0  -0.147308  0  3.740847  0  0  -0.165477  0  3.992788  0  0  -0.168996  0  4.014577  0  0  -0.097454  -0.162871  0  3.977975  0
C  C52  1  0.41406341  0.59779514  0.82620465  1  0  0.134972  0  3.837562  0  0  0.135745  0  4.075379  0  0  0.138607  0  4.10182  0  0  0.081608  0.133804  0  4.057264  0
C  C53  1  0.58593548  0.40220578  0.17379561  1  0  0.134961  0  3.837528  0  0  0.135755  0  4.075312  0  0  0.138619  0  4.101751  0  0  0.081607  0.133813  0  4.057198  0
N  N54  1  0.14661196  0.10574896  0.15169569  1  0  0.473242  0  3.950011  0  0  0.533843  0  4.200107  0  0  0.555117  0  4.209179  0  0  0.062743  0.519609  0  4.193969  0
N  N55  1  0.85339042  0.89424966  0.84830559  1  0  0.473228  0  3.949851  0  0  0.533866  0  4.199921  0  0  0.555141  0  4.208992  0  0  0.062761  0.519632  0  4.193786  0
N  N56  1  0.48514874  0.51477285  0.74296103  1  0  -0.474181  0  3.222485  0  0  -0.39592  0  3.502671  0  0  -0.421912  0  3.520225  0  0  -0.361581  -0.377663  0  3.489641  0
N  N57  1  0.51485142  0.48522805  0.25703904  1  0  -0.474247  0  3.222525  0  0  -0.396007  0  3.502738  0  0  -0.422  0  3.520295  0  0  -0.361584  -0.377746  0  3.489699  0
N  N58  1  0.31427484  0.40505725  0.89165461  1  0  -0.330073  0  3.389981  0  0  -0.268897  0  3.624735  0  0  -0.286409  0  3.636099  0  0  -0.373951  -0.257263  0  3.616944  0
N  N59  1  0.68572743  0.59494474  0.10834567  1  0  -0.330247  0  3.389972  0  0  -0.268954  0  3.62463  0  0  -0.286445  0  3.635972  0  0  -0.373923  -0.257349  0  3.616858  0
O  O60  1  0.79313034  0.74470082  0.37299973  1  0  -0.657947  0  1.967172  0  0  -0.597426  0  2.190424  0  0  -0.624204  0  2.178934  0  0  -0.328923  -0.577704  0  2.197921  0
O  O61  1  0.20687029  0.25529896  0.62700061  1  0  -0.657901  0  1.967183  0  0  -0.597375  0  2.190445  0  0  -0.624152  0  2.178954  0  0  -0.328897  -0.57765  0  2.197936  0
O  O62  1  0.67868399  0.80103527  0.55005985  1  0  -0.630853  0  1.956881  0  0  -0.567039  0  2.199275  0  0  -0.59716  0  2.190413  0  0  -0.323186  -0.545206  0  2.203982  0
O  O63  1  0.32131666  0.19896449  0.44994135  1  0  -0.630796  0  1.956906  0  0  -0.566971  0  2.1993  0  0  -0.597089  0  2.190436  0  0  -0.323173  -0.545137  0  2.204006  0
O  O64  1  0.59468373  0.31653401  0.54834201  1  0  -0.655277  0  2.015245  0  0  -0.597345  0  2.272487  0  0  -0.624689  0  2.260807  0  0  -0.323357  -0.577558  0  2.279747  0
O  O65  1  0.40531435  0.68346579  0.45165871  1  0  -0.655293  0  2.015256  0  0  -0.597362  0  2.272503  0  0  -0.624706  0  2.260822  0  0  -0.323377  -0.577568  0  2.27976  0
O  O66  1  0.83522214  0.38892468  0.47413033  1  0  -0.655439  0  2.076728  0  0  -0.576973  0  2.323986  0  0  -0.608122  0  2.313909  0  0  -0.313419  -0.554843  0  2.330939  0
O  O67  1  0.16477801  0.61107624  0.52586887  1  0  -0.655429  0  2.076713  0  0  -0.576961  0  2.323989  0  0  -0.608115  0  2.313925  0  0  -0.313426  -0.55483  0  2.330945  0
O  O68  1  0.18188957  0.22432999  0.11215862  1  0  -0.362676  0  1.80828  0  0  -0.350828  0  2.002225  0  0  -0.36426  0  1.998359  0  0  -0.120106  -0.341723  0  2.004982  0
O  O69  1  0.81811325  0.77566753  0.88784208  1  0  -0.362656  0  1.808198  0  0  -0.350819  0  2.002132  0  0  -0.364254  0  1.998267  0  0  -0.120095  -0.341714  0  2.004886  0
O  O70  1  0.21442071  0.00269757  0.10423105  1  0  -0.338244  0  1.752527  0  0  -0.336056  0  1.940396  0  0  -0.347075  0  1.935939  0  0  -0.12073  -0.328702  0  1.943746  0
O  O71  1  0.78558515  0.99729874  0.89577213  1  0  -0.338269  0  1.752452  0  0  -0.336072  0  1.94029  0  0  -0.347089  0  1.935834  0  0  -0.120749  -0.328711  0  1.943643  0
O  O72  1  0.92925529  0.48415932  0.67640714  1  0  -0.828821  0  1.832617  0  0  -0.768991  0  2.017217  0  0  -0.792018  0  1.984306  0  0  -0.589582  -0.752607  0  2.040358  0
O  O73  1  0.07074498  0.51583822  0.32359394  1  0  -0.828834  0  1.832584  0  0  -0.769062  0  2.017098  0  0  -0.792054  0  1.984267  0  0  -0.589613  -0.752679  0  2.040247  0
