# generated using pymatgen
data_Co2PH7(C4O3)2
_symmetry_space_group_name_H-M   'P 1'
_cell_length_a   5.23256914
_cell_length_b   7.39296482
_cell_length_c   12.52751491
_cell_angle_alpha   72.83838341
_cell_angle_beta   89.11440190
_cell_angle_gamma   87.02191499
_symmetry_Int_Tables_number   1
_chemical_formula_structural   Co2PH7(C4O3)2
_chemical_formula_sum   'Co4 P2 H14 C16 O12'
_cell_volume   462.41457623
_cell_formula_units_Z   2
loop_
 _symmetry_equiv_pos_site_id
 _symmetry_equiv_pos_as_xyz
  1  'x, y, z'
loop_
 _atom_site_type_symbol
 _atom_site_label
 _atom_site_symmetry_multiplicity
 _atom_site_fract_x
 _atom_site_fract_y
 _atom_site_fract_z
 _atom_site_occupancy
 _atom_site_hle17_ddec_charge
 _atom_site_hle17_ddec_spin_density
 _atom_site_hle17_ddec_sum_bond_order
 _atom_site_hle17_magmom
 _atom_site_pbe_cm5_charge
 _atom_site_pbe_ddec_charge
 _atom_site_pbe_ddec_spin_density
 _atom_site_pbe_ddec_sum_bond_order
 _atom_site_pbe_magmom
Co  Co0  1  0.62158332  0.86564902  0.93004002  1  1.186899  -2.801811  1.839009  -2.603  0.649092  1.11374  -2.732143  2.266092  -2.579
Co  Co1  1  0.12162631  0.79587032  0.06993202  1  1.186315  -2.801931  1.838913  -2.603  0.648879  1.113416  -2.73143  2.265976  -2.579
Co  Co2  1  0.01721810  0.23196517  0.01332990  1  1.08096  2.742482  1.995952  2.532  0.619149  0.988608  2.671045  2.460974  2.513
Co  Co3  1  0.51696665  0.24559796  0.98671868  1  1.08115  2.744551  1.996446  2.533  0.620774  0.989452  2.676673  2.461696  2.499
P  P4  1  0.16959058  0.65077841  0.85995737  1  1.563577  -0.000851  4.649751  0.001  0.366311  1.384618  -0.002261  5.176062  -0.001
P  P5  1  0.66961305  0.51071638  0.14001588  1  1.562642  -0.000854  4.647959  0.001  0.366154  1.383941  -0.002188  5.174207  -0.001
H  H6  1  0.39147970  0.70375213  0.59676127  1  0.099814  -2e-05  0.938098  0.0  0.104494  0.112521  -6.5e-05  0.992854  0.0
H  H7  1  0.89159648  0.30048350  0.40332654  1  0.099813  -1.3e-05  0.937772  0.0  0.104629  0.112676  -6.5e-05  0.992261  0.0
H  H8  1  0.62615444  0.48208474  0.51262495  1  0.080493  2.1e-05  0.96738  0.0  0.099599  0.089556  3e-06  1.034198  0.0
H  H9  1  0.12589715  0.99455546  0.48742548  1  0.079736  2.4e-05  0.96837  0.0  0.099314  0.088982  3e-06  1.035079  0.0
H  H10  1  0.48846737  0.15007059  0.55105904  1  0.090629  0.0001  0.959594  0.0  0.099807  0.100538  7.5e-05  1.018372  0.0
H  H11  1  0.98820596  0.70087961  0.44895637  1  0.090015  9.1e-05  0.959508  0.0  0.099664  0.100073  7.1e-05  1.018296  0.0
H  H12  1  0.11301460  0.04836968  0.67532432  1  0.092043  2.4e-05  0.985245  0.0  0.102005  0.098526  1.7e-05  1.053625  0.0
H  H13  1  0.61295328  0.72356884  0.32449564  1  0.091704  1.5e-05  0.985734  0.0  0.101893  0.097814  1.6e-05  1.054395  0.0
H  H14  1  0.79647218  0.62252683  0.75991395  1  0.174835  -0.000209  0.946837  0.0  0.11522  0.180181  -0.000392  1.007727  -0.001
H  H15  1  0.29660828  0.38238025  0.24018038  1  0.175496  -0.000206  0.945467  0.0  0.115241  0.18059  -0.000382  1.006777  -0.001
H  H16  1  0.00309093  0.79080947  0.67636041  1  0.133065  0.000432  0.955954  0.001  0.107169  0.145791  0.000427  1.016076  0.001
H  H17  1  0.50314960  0.46707317  0.32364559  1  0.13276  0.000447  0.956086  0.001  0.107343  0.145854  0.000441  1.015712  0.001
H  H18  1  0.73784688  0.94360991  0.12506529  1  0.402351  0.000342  0.873029  0.001  0.298347  0.374803  0.000388  0.948332  0.001
H  H19  1  0.23798110  0.06861630  0.87494784  1  0.402839  0.000335  0.871986  0.001  0.298512  0.375289  0.000385  0.947407  0.001
C  C20  1  0.11857537  0.50439272  0.68462800  1  0.162687  -0.000244  3.700855  0.0  0.00732  0.167082  -0.00056  3.921271  -0.001
C  C21  1  0.61866681  0.18891556  0.31546962  1  0.160326  -0.000234  3.702509  0.0  0.007594  0.16639  -0.000532  3.921384  -0.001
C  C22  1  0.32806321  0.55971683  0.61309939  1  -0.126662  -0.000798  3.707345  -0.001  -0.088835  -0.142629  -0.000573  3.946323  -0.001
C  C23  1  0.82818430  0.17274555  0.38696932  1  -0.126377  -0.000784  3.705122  -0.001  -0.089271  -0.14285  -0.000572  3.94369  -0.001
C  C24  1  0.45983785  0.43496556  0.56490940  1  -0.046468  0.000354  3.766238  0.0  -0.085686  -0.06682  0.000301  4.010957  0.0
C  C25  1  0.95970273  0.99966784  0.43510841  1  -0.046218  0.000317  3.76431  0.0  -0.085885  -0.066831  0.000325  4.009158  0.0
C  C26  1  0.38215299  0.25000676  0.58591252  1  -0.063871  -0.000328  3.756671  0.0  -0.093113  -0.077042  -6.3e-05  3.998203  0.0
C  C27  1  0.88202738  0.83571203  0.41405184  1  -0.062908  -0.000277  3.756091  0.0  -0.092546  -0.076224  -0.000108  3.997352  0.0
C  C28  1  0.17382870  0.19288312  0.65552649  1  -0.059611  0.000878  3.736455  0.001  -0.084841  -0.087305  0.000885  3.975083  0.001
C  C29  1  0.67381650  0.84821867  0.34438950  1  -0.059587  0.000796  3.736153  0.001  -0.084545  -0.086812  0.000806  3.975078  0.001
C  C30  1  0.04160133  0.31556805  0.70678385  1  -0.142535  0.000409  3.705538  0.001  -0.021565  -0.115209  0.000576  3.923111  0.001
C  C31  1  0.54184774  0.02228535  0.29319087  1  -0.140454  0.000451  3.70431  0.001  -0.021255  -0.113898  0.000553  3.92185  0.001
C  C32  1  0.83786171  0.23029963  0.78890475  1  0.651065  0.001346  3.843952  0.001  0.215044  0.575389  0.003596  4.149689  0.004
C  C33  1  0.33811831  0.01926379  0.21107537  1  0.651038  0.001289  3.843208  0.001  0.214738  0.575146  0.003494  4.149908  0.003
C  C34  1  0.99605654  0.64797540  0.73530622  1  -0.490573  -0.00256  3.66106  -0.004  -0.164764  -0.505257  -0.00185  3.889399  -0.002
C  C35  1  0.49621287  0.38318484  0.26471421  1  -0.490461  -0.002582  3.659866  -0.004  -0.165367  -0.505655  -0.001865  3.888285  -0.002
O  O36  1  0.41179719  0.76019764  0.82602061  1  -0.829185  -0.032561  1.935726  -0.055  -0.362217  -0.74808  -0.028987  2.226684  -0.044
O  O37  1  0.91169552  0.58634454  0.17394405  1  -0.828491  -0.032456  1.934348  -0.054  -0.362623  -0.74819  -0.02889  2.225979  -0.044
O  O38  1  0.98272958  0.73718768  0.93173126  1  -0.887425  -0.059586  2.18776  -0.098  -0.365863  -0.804157  -0.054157  2.516869  -0.08
O  O39  1  0.48260990  0.66872064  0.06822907  1  -0.88777  -0.059539  2.18763  -0.098  -0.365427  -0.804197  -0.054162  2.51645  -0.08
O  O40  1  0.23455796  0.43885646  0.92684698  1  -0.857438  0.078144  2.21032  0.129  -0.374436  -0.765042  0.073442  2.546455  0.113
O  O41  1  0.73459789  0.36575895  0.07302789  1  -0.856803  0.078387  2.210526  0.13  -0.374012  -0.764537  0.073755  2.547093  0.113
O  O42  1  0.76867513  0.32029827  0.86040397  1  -0.644275  0.056407  2.207641  0.097  -0.310201  -0.570257  0.051001  2.500508  0.081
O  O43  1  0.26858672  0.18078684  0.13968582  1  -0.644152  0.05645  2.207269  0.097  -0.309958  -0.570257  0.050933  2.500408  0.08
O  O44  1  0.75380733  0.07294053  0.78978828  1  -0.587698  -0.021582  2.080893  -0.037  -0.290888  -0.527544  -0.017877  2.350565  -0.027
O  O45  1  0.25420710  0.86274585  0.21017797  1  -0.588012  -0.021608  2.080229  -0.037  -0.29086  -0.527624  -0.017896  2.34965  -0.027
O  O46  1  0.79965265  0.99307941  0.04829655  1  -0.98258  -0.00278  2.081251  -0.004  -0.542082  -0.922138  -0.002083  2.398197  -0.002
O  O47  1  0.29975050  0.04126284  0.95172333  1  -0.982699  -0.002935  2.080196  -0.005  -0.542053  -0.922421  -0.002241  2.397602  -0.002
