# generated using pymatgen
data_H4PbC5N2O5
_symmetry_space_group_name_H-M   'P 1'
_cell_length_a   6.71734369
_cell_length_b   8.56673819
_cell_length_c   12.32505667
_cell_angle_alpha   93.98948192
_cell_angle_beta   89.99847426
_cell_angle_gamma   90.00095481
_symmetry_Int_Tables_number   1
_chemical_formula_structural   H4PbC5N2O5
_chemical_formula_sum   'H16 Pb4 C20 N8 O20'
_cell_volume   707.53568033
_cell_formula_units_Z   4
loop_
 _symmetry_equiv_pos_site_id
 _symmetry_equiv_pos_as_xyz
  1  'x, y, z'
loop_
 _atom_site_type_symbol
 _atom_site_label
 _atom_site_symmetry_multiplicity
 _atom_site_fract_x
 _atom_site_fract_y
 _atom_site_fract_z
 _atom_site_occupancy
 _atom_site_hle17_bader_spin_density
 _atom_site_hle17_ddec_charge
 _atom_site_hle17_ddec_spin_density
 _atom_site_hle17_ddec_sum_bond_order
 _atom_site_hle17_magmom
 _atom_site_hse06_10hf_bader_spin_density
 _atom_site_hse06_10hf_ddec_charge
 _atom_site_hse06_10hf_ddec_spin_density
 _atom_site_hse06_10hf_ddec_sum_bond_order
 _atom_site_hse06_10hf_magmom
 _atom_site_hse06_bader_spin_density
 _atom_site_hse06_ddec_charge
 _atom_site_hse06_ddec_spin_density
 _atom_site_hse06_ddec_sum_bond_order
 _atom_site_hse06_magmom
 _atom_site_pbe_bader_spin_density
 _atom_site_pbe_cm5_charge
 _atom_site_pbe_ddec_charge
 _atom_site_pbe_ddec_spin_density
 _atom_site_pbe_ddec_sum_bond_order
 _atom_site_pbe_magmom
H  H0  1  0.71425715  0.08368102  0.93395692  1  0  0.329821  0  0.898698  0  0  0.304543  0  0.969814  0  0  0.315765  0  0.959644  0  0  0.308625  0.296612  0  0.977082  0
H  H1  1  0.21427046  0.41631591  0.56604097  1  0  0.329858  0  0.898617  0  0  0.304539  0  0.96981  0  0  0.315765  0  0.959632  0  0  0.308604  0.296607  0  0.977077  0
H  H2  1  0.28572464  0.91632405  0.06604038  1  0  0.329751  0  0.898735  0  0  0.304446  0  0.969893  0  0  0.315669  0  0.959721  0  0  0.308575  0.296517  0  0.977156  0
H  H3  1  0.78575599  0.58367858  0.43395982  1  0  0.329746  0  0.898777  0  0  0.304462  0  0.969904  0  0  0.315687  0  0.959733  0  0  0.308563  0.29653  0  0.97717  0
H  H4  1  0.02952525  0.58104089  0.89587427  1  0  0.430371  0  0.82721  0  0  0.405009  0  0.895748  0  0  0.41352  0  0.88652  0  0  0.311045  0.398924  0  0.902375  0
H  H5  1  0.52955244  0.91896786  0.60413052  1  0  0.430327  0  0.82712  0  0  0.404941  0  0.895711  0  0  0.413453  0  0.886483  0  0  0.311071  0.398855  0  0.902339  0
H  H6  1  0.97045654  0.41895356  0.10412977  1  0  0.430461  0  0.827054  0  0  0.405093  0  0.895607  0  0  0.413604  0  0.886378  0  0  0.311124  0.399005  0  0.902236  0
H  H7  1  0.47046061  0.08103121  0.39588026  1  0  0.430361  0  0.827081  0  0  0.404995  0  0.895634  0  0  0.413501  0  0.886419  0  0  0.311107  0.398911  0  0.902258  0
H  H8  1  0.04190521  0.76141597  0.90635272  1  0  0.43262  0  0.867923  0  0  0.39985  0  0.934425  0  0  0.411121  0  0.918059  0  0  0.295495  0.391862  0  0.945993  0
H  H9  1  0.54188017  0.73858615  0.59363045  1  0  0.432636  0  0.867914  0  0  0.399862  0  0.934418  0  0  0.411132  0  0.918053  0  0  0.295486  0.391873  0  0.945986  0
H  H10  1  0.95810487  0.23858092  0.09364333  1  0  0.432451  0  0.868152  0  0  0.399707  0  0.934604  0  0  0.410975  0  0.918244  0  0  0.295425  0.39172  0  0.94617  0
H  H11  1  0.45812544  0.26141662  0.40636268  1  0  0.432667  0  0.867843  0  0  0.399882  0  0.934372  0  0  0.411154  0  0.918002  0  0  0.295485  0.391892  0  0.945942  0
H  H12  1  0.76069422  0.14705565  0.59733639  1  0  0.14648  0  0.967942  0  0  0.152518  0  1.03594  0  0  0.157695  0  1.032929  0  0  0.112248  0.148856  0  1.038265  0
H  H13  1  0.26068557  0.35294879  0.90266940  1  0  0.14642  0  0.967793  0  0  0.152484  0  1.035819  0  0  0.157659  0  1.032803  0  0  0.112232  0.14882  0  1.038144  0
H  H14  1  0.23929501  0.85295284  0.40266921  1  0  0.146364  0  0.967942  0  0  0.152417  0  1.035957  0  0  0.157588  0  1.032944  0  0  0.112206  0.148759  0  1.038272  0
H  H15  1  0.73933344  0.64704692  0.09732740  1  0  0.146508  0  0.96782  0  0  0.152557  0  1.035825  0  0  0.157738  0  1.032813  0  0  0.112253  0.148888  0  1.038161  0
Pb  Pb16  1  0.59567386  0.69063775  0.85458790  1  0  1.406712  0  1.380371  0  0  1.219901  0  1.785185  0  0  1.277392  0  1.740168  0  0  0.662698  1.177978  0  1.816994  0
Pb  Pb17  1  0.09570316  0.80931477  0.64538702  1  0  1.406739  0  1.380347  0  0  1.219899  0  1.785198  0  0  1.277397  0  1.740171  0  0  0.662684  1.177969  0  1.817009  0
Pb  Pb18  1  0.40431389  0.30934032  0.14541607  1  0  1.406782  0  1.380257  0  0  1.219979  0  1.785077  0  0  1.277468  0  1.740051  0  0  0.662722  1.178049  0  1.816887  0
Pb  Pb19  1  0.90431138  0.19064492  0.35458351  1  0  1.406697  0  1.380397  0  0  1.219875  0  1.785234  0  0  1.277367  0  1.740214  0  0  0.662695  1.177951  0  1.81704  0
C  C20  1  0.72649535  0.35204393  0.70765824  1  0  0.187625  0  3.796218  0  0  0.179816  0  4.051169  0  0  0.191912  0  4.067615  0  0  0.110933  0.171839  0  4.040022  0
C  C21  1  0.22647347  0.14795547  0.79234206  1  0  0.187667  0  3.796476  0  0  0.179875  0  4.051412  0  0  0.191949  0  4.067915  0  0  0.11096  0.171889  0  4.040269  0
C  C22  1  0.27349984  0.64796341  0.29234567  1  0  0.187605  0  3.79641  0  0  0.179731  0  4.051446  0  0  0.191852  0  4.067874  0  0  0.110857  0.171744  0  4.040296  0
C  C23  1  0.77352023  0.85203904  0.20765711  1  0  0.187711  0  3.79646  0  0  0.179936  0  4.051357  0  0  0.19202  0  4.067844  0  0  0.111034  0.171953  0  4.040204  0
C  C24  1  0.74362474  0.19400227  0.68090758  1  0  -0.337009  0  3.663454  0  0  -0.36892  0  3.935098  0  0  -0.385716  0  3.952119  0  0  -0.120259  -0.35816  0  3.924089  0
C  C25  1  0.24363144  0.30600092  0.81908539  1  0  -0.336951  0  3.663593  0  0  -0.368983  0  3.935293  0  0  -0.385764  0  3.952316  0  0  -0.12027  -0.358218  0  3.924285  0
C  C26  1  0.25636003  0.80601330  0.31909272  1  0  -0.336951  0  3.663635  0  0  -0.368865  0  3.935387  0  0  -0.38566  0  3.952396  0  0  -0.12018  -0.358101  0  3.924375  0
C  C27  1  0.75636374  0.69399951  0.18090761  1  0  -0.337033  0  3.66378  0  0  -0.369035  0  3.935422  0  0  -0.385828  0  3.952449  0  0  -0.120326  -0.358272  0  3.924416  0
C  C28  1  0.74020342  0.08975667  0.76625548  1  0  0.607826  0  3.84566  0  0  0.560919  0  4.132361  0  0  0.592583  0  4.13212  0  0  0.222414  0.539782  0  4.131722  0
C  C29  1  0.24021672  0.41023588  0.73374427  1  0  0.607557  0  3.846361  0  0  0.560774  0  4.132913  0  0  0.592439  0  4.132675  0  0  0.222343  0.539637  0  4.132263  0
C  C30  1  0.25977837  0.91024368  0.23374481  1  0  0.607792  0  3.845868  0  0  0.560809  0  4.132702  0  0  0.592473  0  4.132466  0  0  0.222352  0.539667  0  4.13205  0
C  C31  1  0.75979037  0.58976335  0.26625191  1  0  0.607635  0  3.846138  0  0  0.56084  0  4.132711  0  0  0.592503  0  4.132471  0  0  0.222401  0.539701  0  4.13206  0
C  C32  1  0.68946356  0.31732616  0.89396007  1  0  0.72774  0  3.885724  0  0  0.665741  0  4.177643  0  0  0.700673  0  4.175535  0  0  0.328949  0.642281  0  4.178184  0
C  C33  1  0.18946111  0.18266455  0.60604351  1  0  0.727738  0  3.885691  0  0  0.665638  0  4.177768  0  0  0.700569  0  4.175666  0  0  0.328929  0.642176  0  4.1783  0
C  C34  1  0.31053014  0.68268000  0.10604378  1  0  0.727595  0  3.885849  0  0  0.665606  0  4.177803  0  0  0.700499  0  4.175741  0  0  0.328873  0.642146  0  4.178337  0
C  C35  1  0.81054450  0.81733115  0.39395410  1  0  0.727746  0  3.88594  0  0  0.665834  0  4.177733  0  0  0.700747  0  4.175646  0  0  0.328962  0.642372  0  4.178267  0
C  C36  1  0.73625713  0.47143413  0.62194574  1  0  0.637008  0  3.862801  0  0  0.582614  0  4.162913  0  0  0.615919  0  4.153063  0  0  0.221236  0.559961  0  4.168739  0
C  C37  1  0.23624917  0.02857470  0.87805980  1  0  0.637029  0  3.862729  0  0  0.582626  0  4.162866  0  0  0.615909  0  4.153075  0  0  0.221252  0.559986  0  4.168673  0
C  C38  1  0.26374848  0.52858022  0.37805936  1  0  0.636957  0  3.862678  0  0  0.58261  0  4.162734  0  0  0.615882  0  4.152937  0  0  0.221234  0.559971  0  4.168538  0
C  C39  1  0.76374155  0.97142446  0.12194286  1  0  0.637165  0  3.862719  0  0  0.582763  0  4.162847  0  0  0.616041  0  4.153058  0  0  0.221326  0.560125  0  4.168649  0
N  N40  1  0.69918038  0.41296237  0.81072714  1  0  -0.581262  0  3.190838  0  0  -0.507181  0  3.445742  0  0  -0.53877  0  3.461782  0  0  -0.339588  -0.485697  0  3.434369  0
N  N41  1  0.19919097  0.08702843  0.68927874  1  0  -0.581213  0  3.190845  0  0  -0.507104  0  3.445747  0  0  -0.538678  0  3.461795  0  0  -0.339556  -0.48562  0  3.434377  0
N  N42  1  0.30081034  0.58703790  0.18928045  1  0  -0.581279  0  3.190806  0  0  -0.507221  0  3.445767  0  0  -0.538795  0  3.461808  0  0  -0.339527  -0.48573  0  3.434385  0
N  N43  1  0.80081613  0.91295673  0.31071912  1  0  -0.581334  0  3.191074  0  0  -0.507276  0  3.445916  0  0  -0.538851  0  3.46197  0  0  -0.339661  -0.485789  0  3.434538  0
N  N44  1  0.71723099  0.15822680  0.87028948  1  0  -0.506817  0  3.229418  0  0  -0.437926  0  3.462073  0  0  -0.462882  0  3.463257  0  0  -0.375206  -0.421272  0  3.46108  0
N  N45  1  0.21723945  0.34177011  0.62971325  1  0  -0.506845  0  3.229688  0  0  -0.43788  0  3.462218  0  0  -0.462836  0  3.463398  0  0  -0.37515  -0.421252  0  3.461294  0
N  N46  1  0.28275675  0.84178292  0.12971051  1  0  -0.506654  0  3.229533  0  0  -0.437687  0  3.462134  0  0  -0.462645  0  3.463363  0  0  -0.375095  -0.421032  0  3.461137  0
N  N47  1  0.78277361  0.65822674  0.37028605  1  0  -0.506789  0  3.229555  0  0  -0.437907  0  3.462061  0  0  -0.462853  0  3.463242  0  0  -0.375128  -0.421275  0  3.461122  0
O  O48  1  0.69926390  0.61389415  0.65557496  1  0  -0.698203  0  2.087786  0  0  -0.62044  0  2.325321  0  0  -0.650808  0  2.317208  0  0  -0.293766  -0.598938  0  2.330206  0
O  O49  1  0.19927983  0.88611322  0.84442584  1  0  -0.698174  0  2.08756  0  0  -0.620404  0  2.32508  0  0  -0.650765  0  2.316992  0  0  -0.293736  -0.598908  0  2.329958  0
O  O50  1  0.30075808  0.38612372  0.34442952  1  0  -0.698033  0  2.087579  0  0  -0.620275  0  2.325123  0  0  -0.650634  0  2.317022  0  0  -0.293692  -0.598774  0  2.329998  0
O  O51  1  0.80071089  0.11388945  0.15557620  1  0  -0.698206  0  2.087615  0  0  -0.620452  0  2.325134  0  0  -0.650814  0  2.317049  0  0  -0.293746  -0.598952  0  2.330006  0
O  O52  1  0.78251560  0.42798353  0.52572884  1  0  -0.603387  0  1.983574  0  0  -0.54649  0  2.216864  0  0  -0.57216  0  2.209482  0  0  -0.289792  -0.528466  0  2.221483  0
O  O53  1  0.28252877  0.07202708  0.97427293  1  0  -0.603407  0  1.983617  0  0  -0.546507  0  2.216918  0  0  -0.572165  0  2.209549  0  0  -0.289816  -0.528488  0  2.22153  0
O  O54  1  0.21747363  0.57202380  0.47427589  1  0  -0.603486  0  1.983601  0  0  -0.546586  0  2.216904  0  0  -0.572249  0  2.209533  0  0  -0.289838  -0.528567  0  2.221523  0
O  O55  1  0.71746791  0.92797557  0.02573154  1  0  -0.603447  0  1.983692  0  0  -0.546562  0  2.216992  0  0  -0.572216  0  2.209628  0  0  -0.289856  -0.52855  0  2.221605  0
O  O56  1  0.75715514  0.94198286  0.75151843  1  0  -0.673712  0  1.994812  0  0  -0.60372  0  2.239457  0  0  -0.631412  0  2.232023  0  0  -0.29673  -0.583947  0  2.243722  0
O  O57  1  0.25714565  0.55801703  0.74848120  1  0  -0.673677  0  1.994934  0  0  -0.603769  0  2.239623  0  0  -0.631474  0  2.232205  0  0  -0.296759  -0.583989  0  2.243886  0
O  O58  1  0.24281772  0.05802456  0.24847738  1  0  -0.673777  0  1.99487  0  0  -0.603763  0  2.239597  0  0  -0.631428  0  2.232102  0  0  -0.296741  -0.584034  0  2.243971  0
O  O59  1  0.74286591  0.44198097  0.25151978  1  0  -0.673668  0  1.994832  0  0  -0.603732  0  2.239455  0  0  -0.631453  0  2.232081  0  0  -0.296784  -0.583954  0  2.243716  0
O  O60  1  0.65680882  0.37239255  0.98949675  1  0  -0.673145  0  1.995532  0  0  -0.614226  0  2.246887  0  0  -0.640371  0  2.236783  0  0  -0.301793  -0.595654  0  2.253152  0
O  O61  1  0.15681325  0.12760247  0.51050426  1  0  -0.67315  0  1.995576  0  0  -0.614151  0  2.246894  0  0  -0.640299  0  2.236792  0  0  -0.301813  -0.595574  0  2.25316  0
O  O62  1  0.34319381  0.62760423  0.01050904  1  0  -0.673014  0  1.995626  0  0  -0.614083  0  2.246937  0  0  -0.640213  0  2.23685  0  0  -0.301742  -0.595516  0  2.253202  0
O  O63  1  0.84321022  0.87239326  0.48949011  1  0  -0.673127  0  1.995735  0  0  -0.614221  0  2.247  0  0  -0.640363  0  2.236904  0  0  -0.301805  -0.595647  0  2.253267  0
O  O64  1  0.95020201  0.67285134  0.91881414  1  0  -0.832671  0  1.868423  0  0  -0.771986  0  2.068981  0  0  -0.794435  0  2.04257  0  0  -0.556538  -0.755916  0  2.087358  0
O  O65  1  0.45020379  0.82716844  0.58119043  1  0  -0.832527  0  1.868407  0  0  -0.771837  0  2.069003  0  0  -0.794284  0  2.042582  0  0  -0.556454  -0.755764  0  2.08738  0
O  O66  1  0.04979467  0.32715259  0.08117985  1  0  -0.832597  0  1.868498  0  0  -0.771928  0  2.069058  0  0  -0.794375  0  2.042646  0  0  -0.55652  -0.755853  0  2.087432  0
O  O67  1  0.54980480  0.17283417  0.41881810  1  0  -0.832621  0  1.868256  0  0  -0.771976  0  2.068886  0  0  -0.794425  0  2.042478  0  0  -0.55653  -0.7559  0  2.087259  0
