# generated using pymatgen
data_GdCu3H22C24N3Cl3O8
_symmetry_space_group_name_H-M   'P 1'
_cell_length_a   9.62067248
_cell_length_b   13.04950627
_cell_length_c   13.13300000
_cell_angle_alpha   97.43552812
_cell_angle_beta   98.32621317
_cell_angle_gamma   107.08546699
_symmetry_Int_Tables_number   1
_chemical_formula_structural   GdCu3H22C24N3Cl3O8
_chemical_formula_sum   'Gd2 Cu6 H44 C48 N6 Cl6 O16'
_cell_volume   1533.41650787
_cell_formula_units_Z   2
loop_
 _symmetry_equiv_pos_site_id
 _symmetry_equiv_pos_as_xyz
  1  'x, y, z'
loop_
 _atom_site_type_symbol
 _atom_site_label
 _atom_site_symmetry_multiplicity
 _atom_site_fract_x
 _atom_site_fract_y
 _atom_site_fract_z
 _atom_site_occupancy
 _atom_site_hle17_bader_spin_density
 _atom_site_hle17_ddec_charge
 _atom_site_hle17_ddec_spin_density
 _atom_site_hle17_ddec_sum_bond_order
 _atom_site_hle17_magmom
 _atom_site_hse06_10hf_bader_spin_density
 _atom_site_hse06_10hf_ddec_charge
 _atom_site_hse06_10hf_ddec_spin_density
 _atom_site_hse06_10hf_ddec_sum_bond_order
 _atom_site_hse06_10hf_magmom
 _atom_site_hse06_bader_spin_density
 _atom_site_hse06_ddec_charge
 _atom_site_hse06_ddec_spin_density
 _atom_site_hse06_ddec_sum_bond_order
 _atom_site_hse06_magmom
 _atom_site_pbe_bader_charge
 _atom_site_pbe_bader_spin_density
 _atom_site_pbe_cm5_charge
 _atom_site_pbe_ddec_charge
 _atom_site_pbe_ddec_spin_density
 _atom_site_pbe_ddec_sum_bond_order
 _atom_site_pbe_magmom
Gd  Gd0  1  0.76239092  0.51030069  0.52347662  1  0  2.219332  0  1.796498  0  0  2.133445  0  2.158559  0  0  2.186502  0  2.102346  0  2.203611  0  1.469016  2.088288  0  2.210334  0
Gd  Gd1  1  0.23760438  0.48970506  0.47652225  1  0  2.219285  0  1.796576  0  0  2.133287  0  2.158818  0  0  2.18637  0  2.102558  0  2.203596  0  1.468959  2.088108  0  2.210616  0
Cu  Cu2  1  0.16583351  0.20407136  0.78816999  1  0  0.447833  0  1.749931  0  0  0.317029  0  2.20586  0  0  0.322481  0  2.162327  0  0.636545  0  0.474947  0.318784  0  2.231581  0
Cu  Cu3  1  0.83417543  0.79593194  0.21183001  1  0  0.447797  0  1.750008  0  0  0.316959  0  2.205902  0  0  0.32242  0  2.16234  0  0.636563  0  0.474937  0.31872  0  2.231578  0
Cu  Cu4  1  0.09599525  0.00803133  0.10069059  1  0  0.427079  0  1.869975  0  0  0.322998  0  2.345017  0  0  0.331783  0  2.293096  0  0.598089  0  0.355174  0.317087  0  2.379887  0
Cu  Cu5  1  0.90400003  0.99196952  0.89930841  1  0  0.427091  0  1.869884  0  0  0.322934  0  2.344978  0  0  0.331764  0  2.292974  0  0.598134  0  0.355144  0.317023  0  2.379848  0
Cu  Cu6  1  0.05398591  0.25514545  0.03673693  1  0  0.390911  0  1.849407  0  0  0.276078  0  2.346881  0  0  0.304631  0  2.278865  0  0.484366  0  0.251094  0.256489  0  2.393148  0
Cu  Cu7  1  0.94601673  0.74485540  0.96325829  1  0  0.390889  0  1.849426  0  0  0.276048  0  2.346888  0  0  0.304598  0  2.2789  0  0.484453  0  0.251092  0.256458  0  2.393148  0
H  H8  1  0.75109971  0.64115655  0.72735704  1  0  0.408315  0  0.897974  0  0  0.379182  0  0.961362  0  0  0.388861  0  0.947235  0  0.617917  0  0.270418  0.37226  0  0.971485  0
H  H9  1  0.24890397  0.35884186  0.27264178  1  0  0.408358  0  0.897934  0  0  0.37921  0  0.961326  0  0  0.388888  0  0.9472  0  0.617892  0  0.270462  0.372288  0  0.971447  0
H  H10  1  0.58754485  0.56129978  0.68384485  1  0  0.439852  0  0.853708  0  0  0.411034  0  0.914114  0  0  0.421589  0  0.898749  0  0.649637  0  0.300085  0.402961  0  0.925894  0
H  H11  1  0.41245393  0.43870189  0.31615462  1  0  0.43986  0  0.853699  0  0  0.411043  0  0.914102  0  0  0.421599  0  0.898735  0  0.649649  0  0.300092  0.40297  0  0.925883  0
H  H12  1  0.91638765  0.50838070  0.73832697  1  0  0.434595  0  0.812711  0  0  0.419555  0  0.86455  0  0  0.427871  0  0.854857  0  0.62848  0  0.328069  0.413214  0  0.872176  0
H  H13  1  0.08359851  0.49161608  0.26167054  1  0  0.434624  0  0.81268  0  0  0.419579  0  0.864539  0  0  0.427897  0  0.854836  0  0.628441  0  0.328048  0.413234  0  0.872173  0
H  H14  1  0.01011648  0.45936764  0.66604871  1  0  0.443018  0  0.857155  0  0  0.412005  0  0.920809  0  0  0.423064  0  0.904744  0  0.652888  0  0.302249  0.403592  0  0.933008  0
H  H15  1  0.98987531  0.54063485  0.33394784  1  0  0.443035  0  0.857089  0  0  0.412019  0  0.920734  0  0  0.423072  0  0.904681  0  0.652787  0  0.302302  0.403607  0  0.932928  0
H  H16  1  0.14138445  0.83505157  0.71190730  1  0  0.117347  0  0.963467  0  0  0.126543  0  1.024747  0  0  0.129957  0  1.024268  0  0.069579  0  0.098309  0.123711  0  1.025992  0
H  H17  1  0.85860768  0.16494928  0.28809594  1  0  0.1173  0  0.96354  0  0  0.12647  0  1.024846  0  0  0.129881  0  1.02437  0  0.069763  0  0.098278  0.123638  0  1.02609  0
H  H18  1  0.39152434  0.74691969  0.65726727  1  0  0.10486  0  0.954176  0  0  0.111891  0  1.021268  0  0  0.115146  0  1.019345  0  0.10933  0  0.109905  0.109474  0  1.022737  0
H  H19  1  0.60846391  0.25307464  0.34273548  1  0  0.104826  0  0.954082  0  0  0.111864  0  1.021184  0  0  0.115102  0  1.01928  0  0.10909  0  0.109868  0.109447  0  1.022655  0
H  H20  1  0.53022633  0.84704109  0.47388824  1  0  0.10438  0  0.970728  0  0  0.11513  0  1.031173  0  0  0.118185  0  1.031138  0  0.05436  0  0.101323  0.112988  0  1.031452  0
H  H21  1  0.46976160  0.15295976  0.52610465  1  0  0.104438  0  0.970587  0  0  0.115141  0  1.031097  0  0  0.118192  0  1.031069  0  0.054377  0  0.101337  0.113001  0  1.031375  0
H  H22  1  0.82695347  0.81879568  0.56829385  1  0  0.121127  0  0.93312  0  0  0.129897  0  0.993354  0  0  0.133439  0  0.991012  0  0.124386  0  0.11485  0.127177  0  0.995196  0
H  H23  1  0.17302077  0.18119783  0.43170273  1  0  0.120989  0  0.933243  0  0  0.129846  0  0.993413  0  0  0.133388  0  0.991073  0  0.124334  0  0.114784  0.127121  0  0.995264  0
H  H24  1  0.43859619  0.28658187  0.70794543  1  0  0.077555  0  0.961757  0  0  0.087293  0  1.026913  0  0  0.089876  0  1.023887  0  0.090039  0  0.114583  0.085147  0  1.029441  0
H  H25  1  0.56141552  0.71341083  0.29205426  1  0  0.077572  0  0.961655  0  0  0.087286  0  1.026843  0  0  0.089869  0  1.023819  0  0.090386  0  0.114603  0.085152  0  1.029346  0
H  H26  1  0.77547472  0.44415857  0.98349648  1  0  0.106109  0  0.94909  0  0  0.114006  0  1.013686  0  0  0.117499  0  1.010538  0  0.147468  0  0.104003  0.111555  0  1.015733  0
H  H27  1  0.22454225  0.55583902  0.01649603  1  0  0.106115  0  0.948913  0  0  0.114023  0  1.013486  0  0  0.117513  0  1.010343  0  0.147619  0  0.104019  0.111572  0  1.015533  0
H  H28  1  0.31381983  0.29679571  0.99726663  1  0  0.068202  0  0.989823  0  0  0.071652  0  1.072361  0  0  0.076069  0  1.066086  0  0.110581  0  0.095504  0.068532  0  1.076412  0
H  H29  1  0.68620205  0.70320351  0.00273727  1  0  0.068164  0  0.989897  0  0  0.071632  0  1.072401  0  0  0.076046  0  1.066132  0  0.110764  0  0.095477  0.068507  0  1.076461  0
H  H30  1  0.70275882  0.38500341  0.78833447  1  0  0.120209  0  0.940475  0  0  0.130572  0  0.996682  0  0  0.133881  0  0.995755  0  0.131183  0  0.114179  0.128073  0  0.997768  0
H  H31  1  0.29725251  0.61498114  0.21166109  1  0  0.120108  0  0.94047  0  0  0.130484  0  0.996693  0  0  0.133793  0  0.995767  0  0.131096  0  0.114156  0.127983  0  0.997785  0
H  H32  1  0.96616342  0.29088411  0.67625811  1  0  0.093952  0  0.960941  0  0  0.101373  0  1.026512  0  0  0.105014  0  1.022191  0  0.150333  0  0.1159  0.098299  0  1.030387  0
H  H33  1  0.03385007  0.70911756  0.32373760  1  0  0.093959  0  0.961033  0  0  0.101401  0  1.026553  0  0  0.10502  0  1.022256  0  0.15047  0  0.115918  0.098307  0  1.03045  0
H  H34  1  0.73013831  0.21881164  0.54713892  1  0  0.121292  0  0.9627  0  0  0.12796  0  1.026074  0  0  0.1318  0  1.024704  0  0.14961  0  0.11445  0.125093  0  1.027442  0
H  H35  1  0.26986363  0.78119003  0.45286470  1  0  0.121231  0  0.962744  0  0  0.12789  0  1.026136  0  0  0.131729  0  1.024768  0  0.149597  0  0.114457  0.125024  0  1.027502  0
H  H36  1  0.74855994  0.14063679  0.95526478  1  0  0.073338  0  0.95509  0  0  0.077413  0  1.032674  0  0  0.082281  0  1.02516  0  0.080766  0  0.103861  0.074096  0  1.037512  0
H  H37  1  0.25143112  0.85935673  0.04473892  1  0  0.073297  0  0.955131  0  0  0.07738  0  1.032688  0  0  0.082251  0  1.025169  0  0.080711  0  0.103856  0.074058  0  1.037555  0
H  H38  1  0.48386022  0.13721913  0.92728105  1  0  0.105421  0  0.962036  0  0  0.116259  0  1.018517  0  0  0.117934  0  1.021221  0  0.079605  0  0.102807  0.114726  0  1.017767  0
H  H39  1  0.51613223  0.86277520  0.07272214  1  0  0.105454  0  0.962059  0  0  0.116321  0  1.018489  0  0  0.117998  0  1.021198  0  0.079713  0  0.102843  0.114787  0  1.017738  0
H  H40  1  0.63807618  0.84278859  0.75611170  1  0  0.083055  0  0.958833  0  0  0.089569  0  1.028294  0  0  0.091863  0  1.027048  0  0.108445  0  0.106177  0.087689  0  1.029536  0
H  H41  1  0.36191734  0.15720819  0.24388583  1  0  0.083046  0  0.958937  0  0  0.089543  0  1.028417  0  0  0.091838  0  1.027168  0  0.108556  0  0.106192  0.087664  0  1.029658  0
H  H42  1  0.79055125  0.51937069  0.15469635  1  0  0.120535  0  0.976716  0  0  0.126962  0  1.043062  0  0  0.131071  0  1.041599  0  0.111933  0  0.093765  0.124083  0  1.044173  0
H  H43  1  0.20946087  0.48063995  0.84531102  1  0  0.120632  0  0.976747  0  0  0.127085  0  1.043036  0  0  0.1312  0  1.041562  0  0.112047  0  0.093821  0.124207  0  1.044149  0
H  H44  1  0.47952710  0.36333813  0.15543381  1  0  0.093502  0  0.942084  0  0  0.10504  0  1.003216  0  0  0.107915  0  1.00111  0  0.097942  0  0.105519  0.102914  0  1.004728  0
H  H45  1  0.52048500  0.63666761  0.84456303  1  0  0.093564  0  0.942127  0  0  0.105093  0  1.003267  0  0  0.107968  0  1.001162  0  0.09782  0  0.105509  0.102967  0  1.004775  0
H  H46  1  0.29169520  0.98227420  0.80733012  1  0  0.102104  0  0.978216  0  0  0.110435  0  1.044768  0  0  0.114133  0  1.040674  0  0.117855  0  0.094512  0.108143  0  1.047118  0
H  H47  1  0.70829374  0.01771687  0.19267685  1  0  0.102245  0  0.978145  0  0  0.110581  0  1.044678  0  0  0.114278  0  1.040586  0  0.11795  0  0.094599  0.108289  0  1.047028  0
H  H48  1  0.62914022  0.01691300  0.47568218  1  0  0.089399  0  0.950405  0  0  0.102806  0  1.009069  0  0  0.105674  0  1.006576  0  0.086703  0  0.105144  0.100529  0  1.011265  0
H  H49  1  0.37085190  0.98308785  0.52432562  1  0  0.089394  0  0.950363  0  0  0.102791  0  1.009044  0  0  0.10566  0  1.006549  0  0.086637  0  0.105123  0.100518  0  1.011227  0
H  H50  1  0.00268334  0.98204103  0.67769384  1  0  0.085707  0  0.940729  0  0  0.092962  0  1.010331  0  0  0.096343  0  1.006308  0  0.110422  0  0.111547  0.090254  0  1.013694  0
H  H51  1  0.99731368  0.01795656  0.32230492  1  0  0.085682  0  0.940775  0  0  0.092921  0  1.010409  0  0  0.096303  0  1.006383  0  0.110398  0  0.111526  0.090212  0  1.013771  0
C  C52  1  0.55211270  0.68653591  0.48016931  1  0  0.751658  0  3.898628  0  0  0.710506  0  4.18642  0  0  0.746892  0  4.174789  0  1.570407  0  0.224098  0.685453  0  4.193429  0
C  C53  1  0.44788996  0.31347473  0.51983783  1  0  0.751752  0  3.898627  0  0  0.710703  0  4.18625  0  0  0.747086  0  4.174612  0  1.57042  0  0.224131  0.685664  0  4.193244  0
C  C54  1  0.19646246  0.78332851  0.67350293  1  0  -0.236017  0  3.650857  0  0  -0.24726  0  3.896749  0  0  -0.260488  0  3.915749  0  0.018405  0  -0.097052  -0.238676  0  3.884659  0
C  C55  1  0.80353002  0.21667071  0.32650013  1  0  -0.236028  0  3.651134  0  0  -0.247245  0  3.897  0  0  -0.260471  0  3.915995  0  0.018391  0  -0.097107  -0.238658  0  3.884904  0
C  C56  1  0.34458926  0.80478426  0.69575584  1  0  -0.039307  0  3.722586  0  0  -0.062996  0  3.968843  0  0  -0.059952  0  3.989812  0  -0.069426  0  -0.070998  -0.064749  0  3.954665  0
C  C57  1  0.65540425  0.19521251  0.30424854  1  0  -0.039201  0  3.722505  0  0  -0.062886  0  3.968726  0  0  -0.059829  0  3.989702  0  -0.069446  0  -0.07091  -0.06464  0  3.954549  0
C  C58  1  0.61148832  0.80678659  0.49645136  1  0  -0.254209  0  3.681643  0  0  -0.266154  0  3.932763  0  0  -0.279799  0  3.950657  0  -0.00798  0  -0.099729  -0.257643  0  3.921255  0
C  C59  1  0.38849472  0.19321997  0.50354936  1  0  -0.254482  0  3.681582  0  0  -0.266386  0  3.93273  0  0  -0.280028  0  3.950632  0  -0.007637  0  -0.099829  -0.25787  0  3.921195  0
C  C60  1  0.75183783  0.86391170  0.54420349  1  0  -0.02662  0  3.711366  0  0  -0.051725  0  3.957616  0  0  -0.046609  0  3.976229  0  -0.13395  0  -0.06624  -0.054742  0  3.945172  0
C  C61  1  0.24815325  0.13608915  0.45579506  1  0  -0.02637  0  3.711581  0  0  -0.051553  0  3.957862  0  0  -0.046441  0  3.976478  0  -0.134147  0  -0.066115  -0.054566  0  3.945424  0
C  C62  1  0.47329703  0.31317308  0.79221784  1  0  0.122747  0  3.662433  0  0  0.089547  0  3.911344  0  0  0.09748  0  3.927132  0  0.397813  0  0.046393  0.084469  0  3.901196  0
C  C63  1  0.52671293  0.68681799  0.20777994  1  0  0.122583  0  3.662482  0  0  0.089407  0  3.911346  0  0  0.097338  0  3.927139  0  0.397592  0  0.046273  0.08433  0  3.901196  0
C  C64  1  0.66008536  0.40140116  0.94644539  1  0  -0.037726  0  3.646389  0  0  -0.060523  0  3.885331  0  0  -0.05623  0  3.902111  0  -0.015726  0  -0.057972  -0.063099  0  3.873217  0
C  C65  1  0.33993301  0.59859481  0.05355010  1  0  -0.037769  0  3.646099  0  0  -0.060511  0  3.885127  0  0  -0.056213  0  3.901907  0  -0.015622  0  -0.057943  -0.063086  0  3.87301  0
C  C66  1  0.40356701  0.31921186  0.95375846  1  0  0.082188  0  3.656255  0  0  0.049108  0  3.891361  0  0  0.05368  0  3.910584  0  0.40609  0  0.043317  0.045827  0  3.879603  0
C  C67  1  0.59645312  0.68078573  0.04624048  1  0  0.082078  0  3.656125  0  0  0.049061  0  3.891213  0  0  0.053638  0  3.910429  0  0.405856  0  0.043289  0.045781  0  3.879456  0
C  C68  1  0.62084417  0.36868393  0.83828349  1  0  -0.091827  0  3.713032  0  0  -0.103647  0  3.961711  0  0  -0.110824  0  3.982873  0  0.002366  0  -0.071755  -0.099236  0  3.947392  0
C  C69  1  0.37916859  0.63130877  0.16171403  1  0  -0.091633  0  3.712902  0  0  -0.103474  0  3.961549  0  0  -0.11065  0  3.982711  0  0.002525  0  -0.07172  -0.099066  0  3.947232  0
C  C70  1  0.91830681  0.20420099  0.64554408  1  0  0.150912  0  3.621661  0  0  0.117822  0  3.861721  0  0  0.12703  0  3.875635  0  0.444172  0  0.049067  0.111752  0  3.853001  0
C  C71  1  0.08169968  0.79580150  0.35445404  1  0  0.150666  0  3.621966  0  0  0.117588  0  3.861993  0  0  0.12681  0  3.875924  0  0.444431  0  0.048949  0.111536  0  3.85327  0
C  C72  1  0.78589645  0.16241947  0.57288688  1  0  -0.110018  0  3.730543  0  0  -0.119327  0  3.975865  0  0  -0.127221  0  3.997016  0  0.006458  0  -0.080254  -0.114485  0  3.961996  0
C  C73  1  0.21410443  0.83757976  0.42711478  1  0  -0.109801  0  3.73052  0  0  -0.119117  0  3.975822  0  0  -0.127012  0  3.996969  0  0.006078  0  -0.08019  -0.114276  0  3.961945  0
C  C74  1  0.66094630  0.07292118  0.90398069  1  0  0.126372  0  3.672351  0  0  0.09744  0  3.915442  0  0  0.104858  0  3.93179  0  0.496736  0  0.042086  0.093313  0  3.903222  0
C  C75  1  0.33904440  0.92707397  0.09602166  1  0  0.126405  0  3.672343  0  0  0.097452  0  3.915473  0  0  0.104871  0  3.931816  0  0.497127  0  0.042056  0.093316  0  3.903244  0
C  C76  1  0.51405595  0.07106560  0.88690042  1  0  -0.111027  0  3.757308  0  0  -0.121152  0  4.00163  0  0  -0.129195  0  4.025606  0  0.003483  0  -0.086476  -0.115939  0  3.985534  0
C  C77  1  0.48593440  0.92892873  0.11310255  1  0  -0.111029  0  3.757277  0  0  -0.121169  0  4.001573  0  0  -0.129221  0  4.025561  0  0.003098  0  -0.086438  -0.115952  0  3.985473  0
C  C78  1  0.44891958  0.89921337  0.76872281  1  0  0.028886  0  3.814964  0  0  0.055578  0  4.039924  0  0  0.049568  0  4.065376  0  -0.05591  0  -0.00885  0.059376  0  4.023276  0
C  C79  1  0.55107183  0.10078096  0.23128103  1  0  0.028938  0  3.815235  0  0  0.055608  0  4.040212  0  0  0.049595  0  4.065661  0  -0.055764  0  -0.008916  0.059406  0  4.023562  0
C  C80  1  0.59918376  0.90695854  0.79147325  1  0  0.076269  0  3.63751  0  0  0.039921  0  3.880614  0  0  0.045979  0  3.898325  0  0.48146  0  0.040453  0.035347  0  3.869103  0
C  C81  1  0.40080870  0.09303824  0.20852798  1  0  0.076279  0  3.63771  0  0  0.039948  0  3.880791  0  0  0.046013  0  3.898491  0  0.481229  0  0.040471  0.035376  0  3.869279  0
C  C82  1  0.54863172  0.37639404  0.00659743  1  0  0.027248  0  3.814258  0  0  0.052924  0  4.040509  0  0  0.04699  0  4.066702  0  0.038625  0  -0.006942  0.05666  0  4.022852  0
C  C83  1  0.45139297  0.62360437  0.99339981  1  0  0.027397  0  3.814219  0  0  0.052868  0  4.040739  0  0  0.046932  0  4.066935  0  0.038574  0  -0.006981  0.056603  0  4.02308  0
C  C84  1  0.70706532  0.49202779  0.29866998  1  0  0.692406  0  3.905252  0  0  0.647265  0  4.197086  0  0  0.682465  0  4.188787  0  1.491506  0  0.20032  0.623628  0  4.201609  0
C  C85  1  0.29293348  0.50797877  0.70133241  1  0  0.692453  0  3.905199  0  0  0.647257  0  4.197081  0  0  0.682457  0  4.188788  0  1.491496  0  0.200228  0.623621  0  4.201604  0
C  C86  1  0.69517277  0.47318013  0.18420893  1  0  -0.230126  0  3.661786  0  0  -0.241731  0  3.912314  0  0  -0.254853  0  3.930977  0  -0.093178  0  -0.09828  -0.233425  0  3.899829  0
C  C87  1  0.30483584  0.52682725  0.81579157  1  0  -0.230164  0  3.661974  0  0  -0.241736  0  3.912422  0  0  -0.254863  0  3.931086  0  -0.093373  0  -0.098282  -0.233433  0  3.899942  0
C  C88  1  0.57247967  0.40354046  0.12013335  1  0  -0.020512  0  3.721855  0  0  -0.044844  0  3.964717  0  0  -0.041409  0  3.986099  0  0.009931  0  -0.066951  -0.046572  0  3.950049  0
C  C89  1  0.42753838  0.59646203  0.87986218  1  0  -0.020707  0  3.72208  0  0  -0.044994  0  3.965014  0  0  -0.041555  0  3.986395  0  0.009935  0  -0.066966  -0.04672  0  3.950349  0
C  C90  1  0.09418698  0.68631823  0.59907352  1  0  0.747621  0  3.88929  0  0  0.706986  0  4.176904  0  0  0.743198  0  4.165841  0  1.546781  0  0.223277  0.682236  0  4.183071  0
C  C91  1  0.90580481  0.31368670  0.40092030  1  0  0.747492  0  3.889636  0  0  0.706868  0  4.177216  0  0  0.743078  0  4.166156  0  1.54627  0  0.223279  0.682115  0  4.183378  0
C  C92  1  0.40691464  0.98411184  0.81921105  1  0  -0.048934  0  3.672609  0  0  -0.071087  0  3.908815  0  0  -0.066037  0  3.924424  0  -0.067674  0  -0.069352  -0.074663  0  3.897951  0
C  C93  1  0.59307782  0.01588494  0.18079474  1  0  -0.049192  0  3.672832  0  0  -0.071344  0  3.909035  0  0  -0.066293  0  3.924648  0  -0.067734  0  -0.069477  -0.074919  0  3.898168  0
C  C94  1  0.80711738  0.98241524  0.57252720  1  0  0.0308  0  3.821271  0  0  0.055367  0  4.05095  0  0  0.048461  0  4.07759  0  0.026604  0  -0.008799  0.059517  0  4.033454  0
C  C95  1  0.19288351  0.01758643  0.42747783  1  0  0.030824  0  3.821185  0  0  0.055297  0  4.051022  0  0  0.048394  0  4.077666  0  0.026593  0  -0.008845  0.059436  0  4.033536  0
C  C96  1  0.73050866  0.05100480  0.53492414  1  0  -0.058907  0  3.695401  0  0  -0.081769  0  3.933336  0  0  -0.077663  0  3.951998  0  -0.116924  0  -0.069092  -0.084547  0  3.921244  0
C  C97  1  0.26949081  0.94899361  0.46507499  1  0  -0.058933  0  3.695379  0  0  -0.081746  0  3.933331  0  0  -0.077641  0  3.951991  0  -0.116877  0  -0.069052  -0.084518  0  3.921242  0
C  C98  1  0.93985940  0.03157583  0.64535803  1  0  0.072187  0  3.655704  0  0  0.032638  0  3.904909  0  0  0.040772  0  3.918518  0  0.496986  0  0.041905  0.027054  0  3.896872  0
C  C99  1  0.06014147  0.96842095  0.35463951  1  0  0.072209  0  3.655665  0  0  0.032707  0  3.904864  0  0  0.040844  0  3.918468  0  0.497156  0  0.041978  0.027126  0  3.896829  0
N  N100  1  0.70336779  0.99111266  0.85790815  1  0  -0.27757  0  3.42525  0  0  -0.198287  0  3.719589  0  0  -0.211822  0  3.729689  0  -1.225839  0  -0.371289  -0.188188  0  3.711137  0
N  N101  1  0.29662397  0.00888249  0.14209203  1  0  -0.277571  0  3.425295  0  0  -0.198273  0  3.719633  0  0  -0.211804  0  3.729723  0  -1.225802  0  -0.371297  -0.188177  0  3.711186  0
N  N102  1  0.99496810  0.14009218  0.68119763  1  0  -0.287692  0  3.457909  0  0  -0.203917  0  3.757643  0  0  -0.21573  0  3.763596  0  -1.242449  0  -0.376675  -0.197267  0  3.753519  0
N  N103  1  0.00503872  0.85990623  0.31880152  1  0  -0.287555  0  3.458147  0  0  -0.203787  0  3.75786  0  0  -0.215599  0  3.763796  0  -1.242551  0  -0.376652  -0.197131  0  3.75371  0
N  N104  1  0.36526697  0.28836734  0.84901875  1  0  -0.292403  0  3.469943  0  0  -0.209858  0  3.767628  0  0  -0.222054  0  3.776603  0  -1.226721  0  -0.381338  -0.203311  0  3.761564  0
N  N105  1  0.63474616  0.71163107  0.15098487  1  0  -0.292259  0  3.469562  0  0  -0.209672  0  3.7671  0  0  -0.22187  0  3.776072  0  -1.227012  0  -0.381236  -0.203122  0  3.761017  0
Cl  Cl106  1  0.14140010  0.06934780  0.91404656  1  0  -0.549389  0  1.487389  0  0  -0.467145  0  1.894639  0  0  -0.483328  0  1.85097  0  -0.629053  0  -0.290086  -0.455195  0  1.923654  0
Cl  Cl107  1  0.85859590  0.93065713  0.08595761  1  0  -0.549407  0  1.487355  0  0  -0.467224  0  1.894719  0  0  -0.483403  0  1.851041  0  -0.629001  0  -0.290102  -0.45528  0  1.923733  0
Cl  Cl108  1  0.11130277  0.20539048  0.18018916  1  0  -0.517701  0  1.399329  0  0  -0.430741  0  1.776477  0  0  -0.450274  0  1.733528  0  -0.615199  0  -0.277196  -0.417039  0  1.806308  0
Cl  Cl109  1  0.88869600  0.79460874  0.81980620  1  0  -0.517689  0  1.39931  0  0  -0.430715  0  1.776453  0  0  -0.450254  0  1.733511  0  -0.615287  0  -0.277193  -0.417013  0  1.806279  0
Cl  Cl110  1  0.00536801  0.32593141  0.90612449  1  0  -0.566061  0  1.193221  0  0  -0.483158  0  1.538337  0  0  -0.505084  0  1.500954  0  -0.624934  0  -0.332578  -0.467961  0  1.562363  0
Cl  Cl111  1  0.99463951  0.67406618  0.09386854  1  0  -0.566043  0  1.193215  0  0  -0.483135  0  1.538315  0  0  -0.505051  0  1.500924  0  -0.624991  0  -0.332568  -0.467934  0  1.562329  0
O  O112  1  0.69373058  0.56570800  0.69187942  1  0  -0.892669  0  1.881282  0  0  -0.851303  0  2.058113  0  0  -0.871367  0  2.028294  0  -1.272563  0  -0.628693  -0.836252  0  2.080459  0
O  O113  1  0.30626678  0.43428796  0.30812069  1  0  -0.892753  0  1.881253  0  0  -0.851336  0  2.058165  0  0  -0.871405  0  2.028342  0  -1.27263  0  -0.628751  -0.836278  0  2.08051  0
O  O114  1  0.41182801  0.64491989  0.44977506  1  0  -0.723744  0  1.991154  0  0  -0.68039  0  2.241957  0  0  -0.705948  0  2.22881  0  -1.183683  0  -0.402025  -0.661052  0  2.251011  0
O  O115  1  0.58817424  0.35507281  0.55022059  1  0  -0.723719  0  1.991246  0  0  -0.680405  0  2.241948  0  0  -0.705959  0  2.228806  0  -1.183636  0  -0.40199  -0.661075  0  2.250989  0
O  O116  1  0.83062847  0.55523653  0.35573512  1  0  -0.707175  0  2.019236  0  0  -0.655854  0  2.25453  0  0  -0.681627  0  2.24264  0  -1.183135  0  -0.356277  -0.636744  0  2.262371  0
O  O117  1  0.16936439  0.44477329  0.64427087  1  0  -0.707151  0  2.019125  0  0  -0.655825  0  2.254472  0  0  -0.681604  0  2.24258  0  -1.183064  0  -0.356252  -0.636714  0  2.262321  0
O  O118  1  0.60050305  0.44549482  0.34212918  1  0  -0.705375  0  2.015483  0  0  -0.653927  0  2.245615  0  0  -0.680268  0  2.236297  0  -1.199591  0  -0.348613  -0.634523  0  2.251787  0
O  O119  1  0.39949226  0.55451582  0.65787108  1  0  -0.705425  0  2.015491  0  0  -0.653919  0  2.245595  0  0  -0.680265  0  2.236286  0  -1.199547  0  -0.348538  -0.634499  0  2.25174  0
O  O120  1  0.90948241  0.46550426  0.67041580  1  0  -0.87562  0  1.852313  0  0  -0.836558  0  2.038072  0  0  -0.855351  0  2.010856  0  -1.264934  0  -0.618946  -0.822352  0  2.058927  0
O  O121  1  0.09050798  0.53449986  0.32957853  1  0  -0.87567  0  1.852311  0  0  -0.836578  0  2.038066  0  0  -0.855373  0  2.010845  0  -1.264833  0  -0.618974  -0.822367  0  2.058918  0
O  O122  1  0.95614037  0.67405803  0.59030658  1  0  -0.7277  0  2.007866  0  0  -0.685842  0  2.254409  0  0  -0.711672  0  2.242507  0  -1.171197  0  -0.400264  -0.666943  0  2.262635  0
O  O123  1  0.04385283  0.32595016  0.40968400  1  0  -0.727553  0  2.007987  0  0  -0.685692  0  2.254573  0  0  -0.711522  0  2.242661  0  -1.171002  0  -0.400149  -0.666795  0  2.262822  0
O  O124  1  0.14416950  0.61983614  0.54794449  1  0  -0.76979  0  2.087531  0  0  -0.727069  0  2.352011  0  0  -0.753824  0  2.339801  0  -1.228567  0  -0.411585  -0.70666  0  2.359999  0
O  O125  1  0.85582580  0.38016961  0.45204981  1  0  -0.769789  0  2.087601  0  0  -0.727104  0  2.352105  0  0  -0.753852  0  2.339898  0  -1.228298  0  -0.411646  -0.706697  0  2.360091  0
O  O126  1  0.63917362  0.63202866  0.49853228  1  0  -0.75014  0  2.102505  0  0  -0.707793  0  2.363235  0  0  -0.733502  0  2.349635  0  -1.211272  0  -0.413942  -0.688404  0  2.372505  0
O  O127  1  0.36084204  0.36799257  0.50148978  1  0  -0.750201  0  2.102493  0  0  -0.707902  0  2.363224  0  0  -0.733612  0  2.349615  0  -1.211352  0  -0.413995  -0.688509  0  2.37249  0
