# generated using pymatgen
data_NiAg2H16(C6O5)2
_symmetry_space_group_name_H-M   'P 1'
_cell_length_a   6.52623926
_cell_length_b   7.03168606
_cell_length_c   8.83988288
_cell_angle_alpha   92.98399350
_cell_angle_beta   102.14620857
_cell_angle_gamma   105.08769926
_symmetry_Int_Tables_number   1
_chemical_formula_structural   NiAg2H16(C6O5)2
_chemical_formula_sum   'Ni1 Ag2 H16 C12 O10'
_cell_volume   380.45407411
_cell_formula_units_Z   1
loop_
 _symmetry_equiv_pos_site_id
 _symmetry_equiv_pos_as_xyz
  1  'x, y, z'
loop_
 _atom_site_type_symbol
 _atom_site_label
 _atom_site_symmetry_multiplicity
 _atom_site_fract_x
 _atom_site_fract_y
 _atom_site_fract_z
 _atom_site_occupancy
 _atom_site_hle17_ddec_charge
 _atom_site_hle17_ddec_spin_density
 _atom_site_hle17_ddec_sum_bond_order
 _atom_site_hle17_magmom
 _atom_site_hse06_10hf_ddec_charge
 _atom_site_hse06_10hf_ddec_spin_density
 _atom_site_hse06_10hf_ddec_sum_bond_order
 _atom_site_hse06_10hf_magmom
 _atom_site_hse06_ddec_charge
 _atom_site_hse06_ddec_spin_density
 _atom_site_hse06_ddec_sum_bond_order
 _atom_site_hse06_magmom
 _atom_site_pbe_cm5_charge
 _atom_site_pbe_ddec_charge
 _atom_site_pbe_ddec_spin_density
 _atom_site_pbe_ddec_sum_bond_order
 _atom_site_pbe_magmom
Ni  Ni0  1  0.49999989  0.50000132  0.49999964  1  1.017604  -1.76817  1.970232  -1.538  1.044855  -1.828252  2.343793  -1.655  1.121153  -1.875225  2.282616  -1.732  0.625496  0.976353  -1.783099  2.403696  -1.584
Ag  Ag1  1  0.98744978  0.82405442  0.56913078  1  0.638566  -0.001059  1.321172  -0.001  0.514724  -0.000185  1.774131  0.0  0.552897  0.0004  1.711328  0.0  0.447702  0.486717  -0.001353  1.819019  -0.001
Ag  Ag2  1  0.01255290  0.17594229  0.43086871  1  0.638536  -0.00106  1.321205  -0.001  0.514666  -0.000186  1.774214  0.0  0.552831  0.0004  1.711426  0.0  0.447687  0.486659  -0.001353  1.819091  -0.001
H  H3  1  0.73724004  0.49245280  0.29653077  1  0.416759  0.000514  0.890974  0.001  0.388116  -8.6e-05  0.953174  0.0  0.4002  4.9e-05  0.935728  0.0  0.286665  0.379354  -0.000213  0.965756  0.0
H  H4  1  0.26276086  0.50754835  0.70346863  1  0.41678  0.000511  0.890951  0.001  0.388135  -8.6e-05  0.953152  0.0  0.40022  4.9e-05  0.935704  0.0  0.286672  0.379375  -0.000213  0.96573  0.0
H  H5  1  0.60165840  0.27082173  0.30667949  1  0.41234  0.000599  0.897327  0.001  0.384159  5e-06  0.960068  0.0  0.394743  0.000151  0.944764  0.0  0.291071  0.376537  -0.000151  0.971012  0.0
H  H6  1  0.39834406  0.72917942  0.69332015  1  0.412332  0.000596  0.897334  0.001  0.384149  5e-06  0.960082  0.0  0.394734  0.000151  0.944777  0.0  0.291068  0.376522  -0.000151  0.971034  0.0
H  H7  1  0.69091230  0.47436969  0.92569041  1  0.092889  2.3e-05  0.945974  0.0  0.106958  1.6e-05  1.009065  0.0  0.108944  2.4e-05  1.008096  0.0  0.09454  0.105432  -0.0  1.010065  0.0
H  H8  1  0.30908814  0.52562997  0.07430998  1  0.092891  1.7e-05  0.945973  0.0  0.106954  1.6e-05  1.00906  0.0  0.108941  2.4e-05  1.008088  0.0  0.094534  0.105428  -0.0  1.01006  0.0
H  H9  1  0.48678214  0.25254201  0.93126457  1  0.091686  -0.000101  0.924469  0.0  0.113158  -9.8e-05  0.975997  0.0  0.11427  -7.1e-05  0.976522  0.0  0.100219  0.112358  -0.000128  0.97587  0.0
H  H10  1  0.51321830  0.74745766  0.06873470  1  0.091627  -0.000104  0.924472  0.0  0.113045  -9.8e-05  0.976062  0.0  0.114155  -7.1e-05  0.976589  0.0  0.100187  0.11225  -0.000128  0.975934  0.0
H  H11  1  0.77691578  0.14381186  0.10649784  1  0.071329  -0.000103  0.987592  0.0  0.085069  -0.000142  1.056237  0.0  0.086952  -0.000101  1.055169  0.0  0.081687  0.08343  -0.000176  1.057726  0.0
H  H12  1  0.22308108  0.85618633  0.89349966  1  0.071316  -0.000103  0.987557  0.0  0.085055  -0.000142  1.056198  0.0  0.086937  -0.000102  1.05513  0.0  0.081673  0.083417  -0.000176  1.057688  0.0
H  H13  1  0.98303602  0.30871876  0.03436296  1  0.076555  -3e-06  0.950862  0.0  0.095302  5e-06  1.008299  0.0  0.095876  7e-06  1.009635  0.0  0.089325  0.094789  5e-06  1.007547  0.0
H  H14  1  0.01696239  0.69127942  0.96563818  1  0.07656  4e-06  0.950867  0.0  0.095291  5e-06  1.008318  0.0  0.095863  7e-06  1.009655  0.0  0.089345  0.094777  5e-06  1.00757  0.0
H  H15  1  0.65143227  0.92794990  0.85549816  1  0.086586  -0.000134  0.960552  0.0  0.105796  -9.8e-05  1.016214  0.0  0.10749  -5.6e-05  1.016101  0.0  0.0952  0.104346  -0.000169  1.016578  0.0
H  H16  1  0.34856818  0.07204977  0.14449997  1  0.086573  -0.000138  0.960546  0.0  0.105778  -9.8e-05  1.016223  0.0  0.107485  -5.6e-05  1.016092  0.0  0.095185  0.104329  -0.000169  1.01658  0.0
H  H17  1  0.91675923  0.03596664  0.82230192  1  0.071334  -6.3e-05  0.977162  0.0  0.082794  -3.9e-05  1.055481  0.0  0.084703  -1.8e-05  1.053055  0.0  0.082291  0.081406  -7.7e-05  1.057233  0.0
H  H18  1  0.08324166  0.96403452  0.17769747  1  0.071342  -6.6e-05  0.977144  0.0  0.082811  -3.9e-05  1.055471  0.0  0.084721  -1.8e-05  1.053046  0.0  0.08229  0.081418  -7.7e-05  1.057228  0.0
C  C19  1  0.84787488  0.36076772  0.69437350  1  0.663616  0.003941  3.81827  0.003  0.611628  -0.00022  4.122211  -0.001  0.648336  -0.000112  4.114989  -0.001  0.215523  0.585081  -0.000364  4.126644  -0.001
C  C20  1  0.15211547  0.63923489  0.30562655  1  0.663717  0.003935  3.81844  0.003  0.611712  -0.000221  4.122395  -0.001  0.648418  -0.000112  4.115172  -0.001  0.21557  0.58517  -0.000365  4.126832  -0.001
C  C21  1  0.67489251  0.21106026  0.75574733  1  -0.156077  0.000288  3.510153  -0.001  -0.117794  0.000323  3.733075  0.0  -0.131591  0.000409  3.749237  0.0  -0.012194  -0.107643  0.000284  3.721343  0.0
C  C22  1  0.32510838  0.78894089  0.24425207  1  -0.156111  0.000292  3.51009  -0.001  -0.117813  0.000325  3.732994  0.0  -0.131608  0.000409  3.749156  0.0  -0.012211  -0.107673  0.000285  3.721279  0.0
C  C23  1  0.45231612  0.12307088  0.64592092  1  0.692722  0.00642  3.763533  0.005  0.634601  0.0019  4.057177  0.001  0.673509  0.001361  4.050746  0.001  0.230813  0.60686  0.002737  4.060982  0.002
C  C24  1  0.54768477  0.87693027  0.35407960  1  0.692724  0.006438  3.763562  0.005  0.634591  0.001899  4.057215  0.001  0.673499  0.00136  4.050786  0.001  0.230788  0.606846  0.002737  4.061029  0.002
C  C25  1  0.65218046  0.31246080  0.91429387  1  -0.10761  0.000606  3.496785  0.0  -0.153629  0.000134  3.744986  0.0  -0.153401  0.000122  3.755994  0.0  -0.146101  -0.153971  0.00011  3.737874  0.0
C  C26  1  0.34781841  0.68753886  0.08570627  1  -0.10756  0.000621  3.496768  0.0  -0.153523  0.000132  3.744928  0.0  -0.153297  0.000123  3.755935  0.0  -0.146068  -0.153867  0.00011  3.737819  0.0
C  C27  1  0.81619740  0.21060688  0.00338594  1  -0.115559  -0.000169  3.599013  0.0  -0.152135  -0.000222  3.850617  0.0  -0.153724  -0.000159  3.864014  0.0  -0.172854  -0.150743  -0.000297  3.841669  0.0
C  C28  1  0.18380102  0.78939131  0.99661407  1  -0.115567  -0.000188  3.598966  0.0  -0.152122  -0.000222  3.850556  0.0  -0.15371  -0.000159  3.863958  0.0  -0.172882  -0.150728  -0.000297  3.841607  0.0
C  C29  1  0.77473850  0.06692532  0.85483451  1  -0.12847  0.000205  3.585055  0.0  -0.176687  -2e-05  3.828659  0.0  -0.177022  6.5e-05  3.841507  0.0  -0.165766  -0.175814  -0.000252  3.819162  0.0
C  C30  1  0.22526395  0.93307584  0.14516626  1  -0.128438  0.000241  3.58499  0.0  -0.176671  -2e-05  3.828589  0.0  -0.177015  6.4e-05  3.841433  0.0  -0.165728  -0.175797  -0.000252  3.819101  0.0
O  O31  1  0.79627384  0.50645602  0.62925839  1  -0.653479  -0.039624  2.217814  -0.07  -0.6124  -0.026046  2.531116  -0.046  -0.651237  -0.019276  2.516408  -0.036  -0.331584  -0.581452  -0.032159  2.539933  -0.054
O  O32  1  0.20372862  0.49354514  0.37074239  1  -0.653553  -0.039631  2.217759  -0.07  -0.612471  -0.02605  2.531079  -0.046  -0.651312  -0.019278  2.516372  -0.036  -0.331583  -0.581509  -0.032163  2.539872  -0.054
O  O33  1  0.03839010  0.34082248  0.71945516  1  -0.606929  -0.006519  2.006772  -0.011  -0.545128  -0.004046  2.242979  -0.007  -0.571554  -0.002478  2.231504  -0.005  -0.302404  -0.526687  -0.006051  2.251248  -0.01
O  O34  1  0.96161774  0.65917573  0.28054295  1  -0.606912  -0.006516  2.007155  -0.011  -0.545114  -0.004045  2.243366  -0.007  -0.571535  -0.002478  2.231886  -0.005  -0.302411  -0.526675  -0.00605  2.251642  -0.01
O  O35  1  0.37660078  0.21794824  0.53796259  1  -0.621609  -0.036738  2.250581  -0.065  -0.560588  -0.025599  2.545704  -0.045  -0.601547  -0.019589  2.53374  -0.036  -0.312705  -0.528845  -0.031063  2.553084  -0.052
O  O36  1  0.62339786  0.78205587  0.46203884  1  -0.62165  -0.03674  2.250708  -0.065  -0.560612  -0.025598  2.545818  -0.045  -0.601571  -0.019588  2.533855  -0.036  -0.312691  -0.528868  -0.031063  2.553203  -0.052
O  O37  1  0.33947589  0.95661532  0.67236277  1  -0.629497  -0.004861  2.180082  -0.009  -0.545448  -0.003078  2.445551  -0.006  -0.578799  -0.00178  2.433613  -0.003  -0.306961  -0.522286  -0.004478  2.454284  -0.008
O  O38  1  0.66052546  0.04338731  0.32763676  1  -0.629532  -0.004866  2.180063  -0.009  -0.54547  -0.003078  2.445517  -0.006  -0.578824  -0.00178  2.433583  -0.003  -0.306985  -0.522304  -0.004478  2.454247  -0.008
O  O39  1  0.58945063  0.40754130  0.30194697  1  -0.803911  -0.039147  1.944365  -0.067  -0.780867  -0.028376  2.14877  -0.049  -0.809559  -0.021333  2.116146  -0.039  -0.577196  -0.756993  -0.034653  2.172017  -0.056
O  O40  1  0.41054980  0.59245837  0.69805342  1  -0.80392  -0.039145  1.944352  -0.067  -0.780876  -0.028378  2.148764  -0.049  -0.809569  -0.021334  2.116142  -0.039  -0.577205  -0.756998  -0.034655  2.172011  -0.056
