# generated using pymatgen
data_ZnH5C9O4
_symmetry_space_group_name_H-M   'P 1'
_cell_length_a   18.56517859
_cell_length_b   18.61406989
_cell_length_c   18.72274331
_cell_angle_alpha   109.68486521
_cell_angle_beta   109.40414850
_cell_angle_gamma   109.19848858
_symmetry_Int_Tables_number   1
_chemical_formula_structural   ZnH5C9O4
_chemical_formula_sum   'Zn6 H30 C54 O24'
_cell_volume   4988.34513527
_cell_formula_units_Z   6
loop_
 _symmetry_equiv_pos_site_id
 _symmetry_equiv_pos_as_xyz
  1  'x, y, z'
loop_
 _atom_site_type_symbol
 _atom_site_label
 _atom_site_symmetry_multiplicity
 _atom_site_fract_x
 _atom_site_fract_y
 _atom_site_fract_z
 _atom_site_occupancy
 _atom_site_pbe_bader_charge
 _atom_site_pbe_bader_spin_density
 _atom_site_pbe_cm5_charge
 _atom_site_pbe_ddec_charge
 _atom_site_pbe_ddec_spin_density
 _atom_site_pbe_ddec_sum_bond_order
 _atom_site_pbe_magmom
Zn  Zn0  1  0.06297824  0.06539435  0.49995655  1  1.304979  0  0.718177  0.951944  0  2.13279  0
Zn  Zn1  1  0.94375456  0.93349536  0.49803202  1  1.308045  0  0.721016  0.949184  0  2.1645  0
Zn  Zn2  1  0.49965039  0.93081986  0.94025297  1  1.308469  0  0.719897  0.955869  0  2.132664  0
Zn  Zn3  1  0.49456465  0.05885645  0.05769370  1  1.314708  0  0.724157  0.959206  0  2.145702  0
Zn  Zn4  1  0.06321482  0.50414020  0.06404427  1  1.3099  0  0.723352  0.957227  0  2.13746  0
Zn  Zn5  1  0.93446975  0.49631685  0.93519644  1  1.308114  0  0.721795  0.958041  0  2.125518  0
H  H6  1  0.84139220  0.93974395  0.23829424  1  0.084439  0  0.106957  0.111807  0  0.984949  0
H  H7  1  0.18064973  0.91579933  0.37526542  1  0.097849  0  0.111185  0.115143  0  0.983455  0
H  H8  1  0.21716424  0.90382224  0.01406983  1  0.09957  0  0.111285  0.115242  0  0.983709  0
H  H9  1  0.08770900  0.77237016  0.98192519  1  0.08408  0  0.110883  0.114331  0  0.985321  0
H  H10  1  0.23543317  0.63618010  0.98901604  1  0.094796  0  0.109321  0.114869  0  0.98655  0
H  H11  1  0.35888280  0.76162874  0.00686376  1  0.103893  0  0.110622  0.118063  0  0.984455  0
H  H12  1  0.75192576  0.28912824  0.14690697  1  0.073457  0  0.111221  0.115585  0  0.982667  0
H  H13  1  0.86498251  0.39696663  0.13567137  1  0.090788  0  0.109722  0.113929  0  0.984921  0
H  H14  1  0.71841652  0.23386928  0.85517868  1  0.091325  0  0.108929  0.112037  0  0.98744  0
H  H15  1  0.61468971  0.11884771  0.86792819  1  0.080793  0  0.10913  0.113561  0  0.98652  0
H  H16  1  0.63259616  0.03765846  0.46184718  1  0.056077  0  0.099431  0.097631  0  0.999887  0
H  H17  1  0.09996383  0.30928245  0.68932729  1  0.089366  0  0.109502  0.116055  0  0.990996  0
H  H18  1  0.51093924  0.00500602  0.32581138  1  0.066952  0  0.103501  0.101158  0  0.986249  0
H  H19  1  0.52366474  0.97159471  0.19302976  1  0.086694  0  0.098242  0.107903  0  1.035405  0
H  H20  1  0.72921947  0.92818196  0.10943253  1  0.094641  0  0.110073  0.115691  0  0.985262  0
H  H21  1  0.96677814  0.10301425  0.73045000  1  0.108261  0  0.106194  0.115009  0  0.999689  0
H  H22  1  0.09516244  0.41642641  0.80918340  1  0.061306  0  0.10706  0.109718  0  0.984557  0
H  H23  1  0.76894916  0.06976900  0.54326539  1  0.031877  0  0.091483  0.126016  0  0.999161  0
H  H24  1  0.77823119  0.97597936  0.49341605  1  0.052516  0  0.092211  0.138642  0  1.006156  0
H  H25  1  0.84561812  0.07698551  0.50609064  1  0.062631  0  0.090662  0.133026  0  1.008349  0
H  H26  1  0.90207108  0.21615546  0.86468032  1  0.019547  0  0.09447  0.133963  0  0.990712  0
H  H27  1  0.92875597  0.13064793  0.84233326  1  0.049188  0  0.095797  0.13246  0  0.993529  0
H  H28  1  0.10421313  0.81793447  0.60254738  1  0.069869  0  0.110437  0.115096  0  0.985255  0
H  H29  1  0.00443409  0.23566374  0.93848710  1  0.063896  0  0.097989  0.142523  0  0.986925  0
H  H30  1  0.23080787  0.81703047  0.70630259  1  0.095996  0  0.110237  0.113711  0  0.984395  0
H  H31  1  0.37179080  0.09987538  0.84755222  1  0.065182  0  0.109473  0.115246  0  0.985165  0
H  H32  1  0.25171366  0.10019558  0.73551730  1  0.098615  0  0.11016  0.116901  0  0.983871  0
H  H33  1  0.89764692  0.77367538  0.24301270  1  0.086302  0  0.109895  0.115787  0  0.98497  0
H  H34  1  0.89569908  0.64787722  0.13521851  1  0.128867  0  0.110052  0.11624  0  0.985216  0
H  H35  1  0.17861906  0.78390694  0.27606614  1  0.095692  0  0.110772  0.114422  0  0.984322  0
C  C36  1  0.02996542  0.13369069  0.62779668  1  1.521201  0  0.221794  0.600392  0  4.13513  0
C  C37  1  0.06901011  0.34784556  0.79297214  1  0.010211  0  -0.08514  -0.104645  0  4.003269  0
C  C38  1  0.07119041  0.28838322  0.72575214  1  -0.100725  0  -0.082463  -0.095576  0  3.989184  0
C  C39  1  0.85690424  0.97478232  0.38842013  1  1.559492  0  0.224865  0.611288  0  4.136175  0
C  C40  1  0.03346881  0.19975937  0.70299953  1  0.02262  0  -0.020347  -0.034309  0  4.000879  0
C  C41  1  0.16407792  0.87918757  0.65509293  1  -0.019848  0  -0.079596  -0.098293  0  3.972954  0
C  C42  1  0.23413417  0.87871462  0.71307859  1  0.003117  0  -0.078688  -0.095278  0  3.966895  0
C  C43  1  0.30842685  0.95846529  0.78285175  1  -0.026161  0  -0.011223  -0.017064  0  3.962096  0
C  C44  1  0.31419306  0.03848031  0.79206700  1  -0.013005  0  -0.081466  -0.09689  0  3.978689  0
C  C45  1  0.24709026  0.03876144  0.73094842  1  -0.03127  0  -0.08004  -0.092698  0  3.973656  0
C  C46  1  0.17084157  0.95914000  0.66343240  1  -0.010667  0  -0.011325  -0.019486  0  3.969186  0
C  C47  1  0.71460250  0.98463068  0.32536623  1  0.009366  0  0.001363  -0.005624  0  3.872464  0
C  C48  1  0.95865791  0.77631940  0.24777388  1  -0.005763  0  -0.081241  -0.095791  0  3.981103  0
C  C49  1  0.95758512  0.70599454  0.18920122  1  -0.090487  0  -0.080485  -0.092518  0  3.976  0
C  C50  1  0.03703401  0.70807578  0.20079290  1  0.026243  0  -0.012485  -0.019301  0  3.965539  0
C  C51  1  0.03564706  0.92116884  0.38058042  1  1.547035  0  0.219438  0.601447  0  4.140545  0
C  C52  1  0.11745616  0.78316268  0.26812048  1  -0.050051  0  -0.07867  -0.095525  0  3.967455  0
C  C53  1  0.11854547  0.85639591  0.32349533  1  -0.016327  0  -0.078911  -0.098005  0  3.968468  0
C  C54  1  0.03908873  0.85191951  0.31492132  1  -0.06411  0  -0.009613  -0.017875  0  3.966878  0
C  C55  1  0.37027131  0.91073602  0.01998101  1  1.544685  0  0.218999  0.597127  0  4.145458  0
C  C56  1  0.60090989  0.96387844  0.09923320  1  1.536209  0  0.223352  0.613579  0  4.119559  0
C  C57  1  0.61309252  0.13003657  0.01443356  1  1.5348  0  0.223759  0.607622  0  4.134965  0
C  C58  1  0.78387706  0.97054576  0.31811609  1  -0.072511  0  -0.002784  -0.039322  0  3.899624  0
C  C59  1  0.38019707  0.96177282  0.85257946  1  1.524692  0  0.221086  0.60418  0  4.137255  0
C  C60  1  0.08301788  0.61980349  0.97238255  1  1.538885  0  0.218913  0.599832  0  4.138936  0
C  C61  1  0.02618351  0.38529004  0.90742835  1  1.557789  0  0.228256  0.624475  0  4.124041  0
C  C62  1  0.86480956  0.38704735  0.98867649  1  1.53912  0  0.223536  0.608014  0  4.137751  0
C  C63  1  0.09900158  0.96275000  0.60136784  1  1.531296  0  0.219448  0.601685  0  4.139894  0
C  C64  1  0.03216677  0.62949552  0.13796186  1  1.545938  0  0.219647  0.600865  0  4.141882  0
C  C65  1  0.21984869  0.84422920  0.00654915  1  -0.052161  0  -0.078707  -0.097672  0  3.966827  0
C  C66  1  0.14793752  0.77121184  0.98900078  1  -0.035884  0  -0.078352  -0.097328  0  3.968203  0
C  C67  1  0.15392397  0.69646945  0.98269322  1  -0.030983  0  -0.011848  -0.016264  0  3.96183  0
C  C68  1  0.23110056  0.69397219  0.99194092  1  -0.047502  0  -0.080905  -0.094336  0  3.97956  0
C  C69  1  0.78744526  0.94951196  0.24130483  1  -0.005746  0  -0.087795  -0.1092  0  4.004419  0
C  C70  1  0.30010658  0.76406791  0.00354269  1  -0.024391  0  -0.080174  -0.094342  0  3.977133  0
C  C71  1  0.29522307  0.83991046  0.01188009  1  0.014199  0  -0.010761  -0.016332  0  3.959762  0
C  C72  1  0.74628248  0.27685065  0.08357941  1  0.013277  0  -0.078863  -0.095184  0  3.972856  0
C  C73  1  0.80833941  0.33721170  0.07714504  1  -0.017932  0  -0.080266  -0.09432  0  3.971146  0
C  C74  1  0.79772593  0.32195478  0.99470915  1  -0.079651  0  -0.011173  -0.020176  0  3.967507  0
C  C75  1  0.70902707  0.01091880  0.40414483  1  0.014461  0  -0.004974  0.13086  0  3.933792  0
C  C76  1  0.72634658  0.24456032  0.91890093  1  0.013134  0  -0.082316  -0.101603  0  3.982564  0
C  C77  1  0.66807681  0.18122481  0.92591503  1  -0.02734  0  -0.080079  -0.093534  0  3.972337  0
C  C78  1  0.67702928  0.19781194  0.00809594  1  -0.020037  0  -0.010546  -0.018474  0  3.964524  0
C  C79  1  0.63626132  0.01777690  0.40177706  1  -0.077021  0  -0.096167  -0.150324  0  4.00911  0
C  C80  1  0.72426302  0.94248280  0.16852461  1  -0.033645  0  -0.082696  -0.091129  0  4.011783  0
C  C81  1  0.56801937  0.00071056  0.32533880  1  -0.060409  0  -0.095419  -0.077953  0  4.079934  0
C  C82  1  0.57470209  0.98131210  0.25094971  1  0.005166  0  -0.098659  -0.14148  0  4.002729  0
C  C83  1  0.64830493  0.97494522  0.24914640  1  -0.023447  0  0.003542  0.072702  0  3.939728  0
C  C84  1  0.77909550  0.03427136  0.49082579  1  -0.060424  0  -0.244624  -0.415661  0  3.979844  0
C  C85  1  0.95574437  0.20165699  0.86866887  1  -0.045192  0  -0.235892  -0.416214  0  3.973837  0
C  C86  1  0.65710348  0.95741146  0.17258699  1  -0.014621  0  -0.012757  -0.076083  0  3.928751  0
C  C87  1  0.99632574  0.17242267  0.74966740  1  -0.045369  0  -0.082041  -0.151584  0  3.924038  0
C  C88  1  0.99605382  0.23167722  0.81919810  1  0.040113  0  -0.001685  0.14756  0  3.95744  0
C  C89  1  0.03221643  0.32008779  0.83954897  1  -0.058926  0  -0.006823  -0.063084  0  3.904809  0
O  O90  1  0.07754351  0.16287338  0.59630964  1  -1.125657  0  -0.318275  -0.529655  0  2.250481  0
O  O91  1  0.00158312  0.59354361  0.92276549  1  -1.122198  0  -0.317196  -0.526116  0  2.198609  0
O  O92  1  0.07638890  0.41282983  0.98845818  1  -1.132778  0  -0.312775  -0.529693  0  2.228161  0
O  O93  1  0.97969511  0.05276486  0.59871169  1  -1.172985  0  -0.312638  -0.573293  0  2.343568  0
O  O94  1  0.97090427  0.40838207  0.87853278  1  -1.161842  0  -0.309042  -0.564468  0  2.295111  0
O  O95  1  0.94488840  0.41948510  0.04432180  1  -1.167262  0  -0.312763  -0.568058  0  2.314196  0
O  O96  1  0.83696788  0.40506597  0.92777426  1  -1.127098  0  -0.317249  -0.532624  0  2.235706  0
O  O97  1  0.09093383  0.60811724  0.16553119  1  -1.124598  0  -0.318327  -0.528607  0  2.214441  0
O  O98  1  0.96860196  0.58774619  0.06002341  1  -1.186112  0  -0.313326  -0.575665  0  2.339091  0
O  O99  1  0.93463076  0.03277028  0.41656190  1  -1.174015  0  -0.311332  -0.572015  0  2.299532  0
O  O100  1  0.83661764  0.91657962  0.41159431  1  -1.133525  0  -0.312512  -0.525913  0  2.264322  0
O  O101  1  0.39538061  0.99224520  0.06828502  1  -1.132253  0  -0.318894  -0.53127  0  2.199326  0
O  O102  1  0.08940359  0.00322749  0.41344346  1  -1.129553  0  -0.318544  -0.526518  0  2.199005  0
O  O103  1  0.97760399  0.89285690  0.40071353  1  -1.174912  0  -0.311658  -0.573803  0  2.348334  0
O  O104  1  0.12174526  0.02417883  0.58416492  1  -1.174198  0  -0.311692  -0.571851  0  2.322848  0
O  O105  1  0.01870860  0.90445246  0.57003114  1  -1.129773  0  -0.320345  -0.530426  0  2.221745  0
O  O106  1  0.40593968  0.88454056  0.97747836  1  -1.179677  0  -0.311298  -0.575478  0  2.349753  0
O  O107  1  0.57942917  0.91137130  0.02046584  1  -1.133954  0  -0.320718  -0.536318  0  2.221067  0
O  O108  1  0.58020769  0.02354342  0.11907534  1  -1.172144  0  -0.310621  -0.571349  0  2.362601  0
O  O109  1  0.58749835  0.05017737  0.96414801  1  -1.172452  0  -0.313357  -0.567904  0  2.312214  0
O  O110  1  0.58839105  0.15759226  0.06979036  1  -1.12758  0  -0.317164  -0.529332  0  2.235711  0
O  O111  1  0.40462549  0.90422877  0.83163434  1  -1.121786  0  -0.318635  -0.52993  0  2.214227  0
O  O112  1  0.41268687  0.02315305  0.92983546  1  -1.175418  0  -0.313127  -0.574455  0  2.341289  0
O  O113  1  0.10911337  0.58428439  0.01492557  1  -1.178352  0  -0.313798  -0.579646  0  2.350654  0
