# generated using pymatgen
data_CuH10C12N10O
_symmetry_space_group_name_H-M   'P 1'
_cell_length_a   8.02579313
_cell_length_b   8.67185853
_cell_length_c   12.56736751
_cell_angle_alpha   89.99286397
_cell_angle_beta   90.00079868
_cell_angle_gamma   117.55704717
_symmetry_Int_Tables_number   1
_chemical_formula_structural   CuH10C12N10O
_chemical_formula_sum   'Cu2 H20 C24 N20 O2'
_cell_volume   775.43965929
_cell_formula_units_Z   2
loop_
 _symmetry_equiv_pos_site_id
 _symmetry_equiv_pos_as_xyz
  1  'x, y, z'
loop_
 _atom_site_type_symbol
 _atom_site_label
 _atom_site_symmetry_multiplicity
 _atom_site_fract_x
 _atom_site_fract_y
 _atom_site_fract_z
 _atom_site_occupancy
 _atom_site_hle17_ddec_charge
 _atom_site_hle17_ddec_spin_density
 _atom_site_hle17_ddec_sum_bond_order
 _atom_site_hle17_magmom
 _atom_site_hse06_10hf_ddec_charge
 _atom_site_hse06_10hf_ddec_spin_density
 _atom_site_hse06_10hf_ddec_sum_bond_order
 _atom_site_hse06_10hf_magmom
 _atom_site_hse06_ddec_charge
 _atom_site_hse06_ddec_spin_density
 _atom_site_hse06_ddec_sum_bond_order
 _atom_site_hse06_magmom
 _atom_site_pbe_cm5_charge
 _atom_site_pbe_ddec_charge
 _atom_site_pbe_ddec_spin_density
 _atom_site_pbe_ddec_sum_bond_order
 _atom_site_pbe_magmom
Cu  Cu0  1  0.76027884  0.00002245  0.99997839  1  0.71861  0.753012  1.971126  0.525  0.657055  0.813264  2.379218  0.623  0.736423  0.887991  2.320005  0.703  0.785952  0.609604  0.760207  2.420734  0.571
Cu  Cu1  1  0.26027488  0.00000798  0.50002801  1  0.71859  -0.752978  1.970583  -0.525  0.656932  -0.81325  2.37874  -0.623  0.736174  -0.887997  2.319769  -0.703  0.785735  0.609494  -0.760193  2.420268  -0.571
H  H2  1  0.44422174  0.04318563  0.93890971  1  0.38732  -0.000266  0.93258  0.0  0.350674  -0.000212  1.006416  0.0  0.362942  -0.000152  0.988652  0.0  0.275363  0.342364  -0.000268  1.018422  0.0
H  H3  1  0.40098744  0.95671665  0.06116118  1  0.387697  -0.000265  0.932359  0.0  0.350847  -0.000212  1.006468  0.0  0.363117  -0.000151  0.98871  0.0  0.275478  0.342534  -0.000267  1.018467  0.0
H  H4  1  0.90102408  0.95676653  0.43882740  1  0.387936  0.000264  0.932028  0.0  0.351062  0.000212  1.006142  0.0  0.363333  0.000151  0.988381  0.0  0.275557  0.342749  0.000266  1.018144  0.0
H  H5  1  0.94424667  0.04318241  0.56112974  1  0.387931  0.000265  0.931854  0.0  0.35119  0.000212  1.005738  0.0  0.363458  0.000151  0.987971  0.0  0.275481  0.342879  0.000267  1.017747  0.0
H  H6  1  0.17174790  0.37860010  0.55643514  1  0.126026  -0.00059  0.95674  -0.001  0.129181  -0.000537  1.025764  -0.001  0.132422  -0.000377  1.024824  0.0  0.111256  0.126743  -0.000668  1.026723  -0.001
H  H7  1  0.79309865  0.62159744  0.44369917  1  0.12579  -0.000591  0.956493  -0.001  0.128968  -0.000538  1.025707  -0.001  0.132183  -0.000378  1.024851  0.0  0.111274  0.126532  -0.000669  1.026633  -0.001
H  H8  1  0.29310687  0.62158764  0.05633323  1  0.125892  0.000591  0.956485  0.001  0.129126  0.000538  1.025602  0.001  0.132356  0.000378  1.024728  0.0  0.111396  0.126697  0.000669  1.026511  0.001
H  H9  1  0.67183856  0.37866067  0.94350190  1  0.125891  0.000591  0.956994  0.001  0.128979  0.000538  1.026073  0.001  0.132261  0.000378  1.02509  0.0  0.111187  0.126541  0.000669  1.027029  0.001
H  H10  1  0.30367623  0.67186833  0.47156445  1  0.080275  -0.001301  0.944771  -0.002  0.084467  -0.001091  1.011683  -0.002  0.085847  -0.000755  1.010316  -0.001  0.117257  0.083233  -0.001373  1.013013  -0.002
H  H11  1  0.63196793  0.32839095  0.52865884  1  0.079874  -0.001297  0.944638  -0.002  0.084387  -0.001088  1.011377  -0.002  0.085783  -0.000754  1.009995  -0.001  0.117178  0.083157  -0.00137  1.012697  -0.002
H  H12  1  0.13199803  0.32838580  0.97135059  1  0.079789  0.001296  0.944744  0.002  0.084286  0.001087  1.011522  0.002  0.08568  0.000753  1.010143  0.001  0.117156  0.083054  0.001369  1.012844  0.002
H  H13  1  0.80378814  0.67190083  0.02842313  1  0.080129  0.0013  0.944887  0.002  0.084292  0.00109  1.011827  0.002  0.085668  0.000755  1.010471  0.001  0.117328  0.083059  0.001372  1.013151  0.002
H  H14  1  0.97816394  0.81868072  0.66153113  1  0.095189  -0.001375  0.952714  -0.002  0.095766  -0.001127  1.025249  -0.002  0.098086  -0.000809  1.022006  -0.001  0.121111  0.093891  -0.001381  1.027727  -0.002
H  H15  1  0.15988331  0.18119858  0.33842261  1  0.094784  -0.00138  0.953324  -0.002  0.095207  -0.001129  1.025989  -0.002  0.097479  -0.000811  1.022795  -0.001  0.120936  0.093351  -0.001384  1.028434  -0.002
H  H16  1  0.65989473  0.18119172  0.16156061  1  0.094827  0.00138  0.953095  0.002  0.095234  0.001129  1.025747  0.002  0.097509  0.000811  1.022558  0.001  0.120911  0.09337  0.001384  1.028188  0.002
H  H17  1  0.47818204  0.81869927  0.83850930  1  0.094953  0.001377  0.952824  0.002  0.09555  0.001128  1.025395  0.002  0.097869  0.00081  1.022154  0.001  0.120982  0.093676  0.001382  1.027874  0.002
H  H18  1  0.83461519  0.53311028  0.75459408  1  0.110474  -0.000564  0.974849  -0.001  0.118681  -0.000506  1.03712  -0.001  0.120844  -0.000349  1.038393  0.0  0.10716  0.117114  -0.000635  1.036412  -0.001
H  H19  1  0.30172830  0.46662345  0.24527133  1  0.110953  -0.000561  0.974368  -0.001  0.119286  -0.000504  1.036446  -0.001  0.121455  -0.000348  1.037734  0.0  0.107344  0.117715  -0.000633  1.035723  -0.001
H  H20  1  0.80170449  0.46664705  0.25471485  1  0.110861  0.000559  0.974228  0.001  0.119141  0.000503  1.036427  0.001  0.121318  0.000347  1.037696  0.0  0.107229  0.117566  0.000632  1.035711  0.001
H  H21  1  0.33460264  0.53313608  0.74541871  1  0.110638  0.000562  0.974525  0.001  0.118804  0.000505  1.036848  0.001  0.120977  0.000349  1.038105  0.0  0.107215  0.117234  0.000634  1.036143  0.001
C  C22  1  0.92272133  0.26994922  0.72242490  1  0.234377  0.0014  3.808399  0.002  0.215436  0.00124  4.08041  0.002  0.22168  0.000726  4.096632  0.001  0.206393  0.211345  0.001646  4.069253  0.002
C  C23  1  0.65291627  0.73001470  0.27756595  1  0.23493  0.001396  3.807372  0.002  0.214894  0.001238  4.080518  0.002  0.221145  0.000722  4.096715  0.001  0.206041  0.210789  0.001643  4.069376  0.002
C  C24  1  0.15289969  0.73002338  0.22243505  1  0.235003  -0.001392  3.80688  -0.002  0.214972  -0.001238  4.080077  -0.002  0.221207  -0.000722  4.096298  -0.001  0.206074  0.21087  -0.001643  4.068932  -0.002
C  C25  1  0.42270523  0.26996412  0.77757088  1  0.234172  -0.0014  3.807746  -0.002  0.215369  -0.001241  4.07973  -0.002  0.221674  -0.000724  4.095864  -0.001  0.206353  0.211234  -0.001647  4.068628  -0.002
C  C26  1  0.98984248  0.43130464  0.66214549  1  0.072462  0.0095  3.778641  0.009  0.083653  0.003155  4.012314  0.003  0.088946  0.003406  4.031225  0.004  0.018853  0.080008  0.003008  3.999699  0.003
C  C27  1  0.55866728  0.56869356  0.33786910  1  0.07064  0.009485  3.780041  0.009  0.082551  0.003154  4.013162  0.003  0.087844  0.003404  4.032067  0.004  0.018882  0.078934  0.003006  4.000512  0.003
C  C28  1  0.05868167  0.56868935  0.16212663  1  0.070465  -0.009501  3.77948  -0.009  0.082343  -0.003156  4.012757  -0.003  0.087638  -0.003407  4.031673  -0.004  0.018809  0.078724  -0.003008  4.000106  -0.003
C  C29  1  0.48987153  0.43133764  0.83785610  1  0.072538  -0.009504  3.777829  -0.009  0.083565  -0.003158  4.011702  -0.003  0.088834  -0.003408  4.030629  -0.004  0.018841  0.079925  -0.00301  3.999114  -0.003
C  C30  1  0.12171433  0.47094464  0.57984234  1  -0.149965  -0.011058  3.677622  -0.011  -0.1669  -0.00421  3.921512  -0.005  -0.174673  -0.003978  3.940457  -0.005  -0.078857  -0.161827  -0.00444  3.90892  -0.005
C  C31  1  0.65078403  0.52919391  0.42030299  1  -0.149061  -0.011049  3.676883  -0.011  -0.166273  -0.004214  3.9206  -0.005  -0.174064  -0.003979  3.939536  -0.005  -0.078671  -0.161194  -0.004443  3.908019  -0.005
C  C32  1  0.15078903  0.52915430  0.07970261  1  -0.149322  0.011058  3.676895  0.011  -0.166584  0.004212  3.920712  0.005  -0.174386  0.00398  3.939628  0.005  -0.07885  -0.161507  0.004442  3.908135  0.005
C  C33  1  0.62178389  0.47100379  0.92014354  1  -0.150162  0.011061  3.677665  0.011  -0.167  0.004212  3.921687  0.005  -0.174817  0.00398  3.940618  0.005  -0.078909  -0.161923  0.004442  3.909094  0.005
C  C34  1  0.19729303  0.63494374  0.53352123  1  0.133956  0.007402  3.704161  0.008  0.104882  0.000678  3.963005  0.001  0.115435  0.002014  3.980122  0.003  0.050709  0.098105  -0.000328  3.951673  0.0
C  C35  1  0.56244428  0.36519043  0.46667099  1  0.134811  0.007385  3.702912  0.008  0.105528  0.000674  3.961531  0.001  0.116075  0.002008  3.978683  0.003  0.050598  0.098752  -0.000332  3.950206  0.0
C  C36  1  0.06248878  0.36518432  0.03333678  1  0.134997  -0.007392  3.703149  -0.008  0.105764  -0.000671  3.961815  -0.001  0.116315  -0.002007  3.978963  -0.003  0.050547  0.098978  0.000332  3.950486  0.0
C  C37  1  0.69740511  0.63498891  0.96647110  1  0.134558  -0.007397  3.704151  -0.008  0.105522  -0.000677  3.962983  -0.001  0.116076  -0.002013  3.980109  -0.003  0.050757  0.098746  0.000328  3.951644  0.0
C  C38  1  0.01630739  0.71761790  0.64002438  1  0.136564  0.008019  3.683862  0.009  0.108179  0.001044  3.940933  0.002  0.118013  0.002344  3.958617  0.003  0.050482  0.101848  6.3e-05  3.929232  0.001
C  C39  1  0.29899317  0.28234495  0.35999384  1  0.138009  0.008018  3.684395  0.009  0.109402  0.001052  3.941978  0.002  0.119283  0.002348  3.959623  0.003  0.051216  0.103071  7.1e-05  3.930302  0.001
C  C40  1  0.79902525  0.28234539  0.13998755  1  0.137601  -0.008035  3.684387  -0.009  0.109152  -0.001054  3.941961  -0.002  0.119019  -0.002351  3.959629  -0.003  0.05106  0.102829  -7.5e-05  3.930253  -0.001
C  C41  1  0.51637463  0.71765241  0.85999807  1  0.136986  -0.008025  3.683156  -0.009  0.108528  -0.001046  3.94031  -0.002  0.118355  -0.002347  3.958003  -0.003  0.050649  0.1022  -6.5e-05  3.928604  -0.001
C  C42  1  0.93579181  0.55784332  0.69107184  1  -0.139882  -0.011413  3.680009  -0.012  -0.156992  -0.004373  3.919068  -0.005  -0.164878  -0.004065  3.939337  -0.005  -0.078683  -0.151833  -0.004679  3.905485  -0.005
C  C43  1  0.37817453  0.44209084  0.30887876  1  -0.139722  -0.011417  3.679437  -0.012  -0.156762  -0.004376  3.917857  -0.005  -0.164656  -0.004066  3.938108  -0.005  -0.07863  -0.151614  -0.004682  3.904282  -0.005
C  C44  1  0.87815587  0.44207496  0.19111506  1  -0.139271  0.011428  3.679092  0.012  -0.156302  0.004376  3.917457  0.005  -0.164186  0.004067  3.937707  0.005  -0.078362  -0.151156  0.004682  3.903876  0.005
C  C45  1  0.43580489  0.55789041  0.80893740  1  -0.140163  0.011419  3.678973  0.012  -0.157207  0.004377  3.918171  0.005  -0.165099  0.004069  3.938445  0.005  -0.078785  -0.152042  0.004683  3.904589  0.005
N  N46  1  0.87447123  0.25764632  0.82565685  1  -0.275126  0.001539  2.951242  0.002  -0.259137  0.001984  3.236425  0.002  -0.264936  0.001059  3.254218  0.001  -0.212121  -0.254692  0.002689  3.224555  0.003
N  N47  1  0.61694165  0.74231009  0.17432803  1  -0.275632  0.001543  2.951133  0.002  -0.259451  0.001984  3.23662  0.002  -0.265233  0.001064  3.254402  0.001  -0.212275  -0.255011  0.002691  3.224748  0.003
N  N48  1  0.11691701  0.74234834  0.32567236  1  -0.275543  -0.00154  2.951136  -0.002  -0.259293  -0.001982  3.236591  -0.002  -0.265068  -0.00106  3.254367  -0.001  -0.21211  -0.254852  -0.002689  3.224717  -0.003
N  N49  1  0.37442370  0.25761995  0.67433397  1  -0.27514  -0.001535  2.951193  -0.002  -0.259147  -0.00198  3.23632  -0.002  -0.264963  -0.00106  3.254085  -0.001  -0.212152  -0.254685  -0.002688  3.224457  -0.003
N  N50  1  0.84076965  0.09709622  0.85265734  1  -0.103591  0.074718  3.293659  0.091  -0.07876  0.050915  3.639959  0.066  -0.100127  0.042813  3.659793  0.058  -0.140167  -0.066373  0.055576  3.628333  0.07
N  N51  1  0.74373884  0.90285672  0.14731128  1  -0.103567  0.074634  3.293291  0.09  -0.078402  0.050843  3.639147  0.066  -0.099759  0.042753  3.658969  0.058  -0.139969  -0.066019  0.0555  3.627521  0.07
N  N52  1  0.24370519  0.90290081  0.35266134  1  -0.103633  -0.074636  3.292841  -0.09  -0.07852  -0.050854  3.638738  -0.066  -0.099858  -0.04276  3.658566  -0.058  -0.139961  -0.066138  -0.055513  3.627133  -0.07
N  N53  1  0.34068041  0.09705230  0.64737169  1  -0.103515  -0.074725  3.293665  -0.091  -0.078694  -0.050923  3.639935  -0.066  -0.100045  -0.042817  3.659788  -0.058  -0.139948  -0.066307  -0.055587  3.628323  -0.07
N  N54  1  0.86380390  0.01194793  0.76978140  1  -0.07989  -0.002281  2.927865  -0.001  -0.078554  0.000449  3.222346  0.001  -0.074907  -0.000558  3.236706  0.0  -0.09847  -0.08042  0.001114  3.212822  0.002
N  N55  1  0.85188979  0.98802377  0.23018546  1  -0.080366  -0.002277  2.926525  -0.001  -0.079123  0.000448  3.220945  0.001  -0.075482  -0.000555  3.23529  0.0  -0.098677  -0.08099  0.001113  3.211432  0.002
N  N56  1  0.35193840  0.98803385  0.26978403  1  -0.080496  0.002273  2.926412  0.001  -0.079243  -0.00045  3.220856  -0.001  -0.0756  0.000553  3.235188  0.0  -0.098657  -0.081106  -0.001116  3.211348  -0.002
N  N57  1  0.36382065  0.01194321  0.73025520  1  -0.080335  0.002278  2.927864  0.001  -0.078975  -0.00045  3.222315  -0.001  -0.075329  0.000556  3.236668  0.0  -0.098742  -0.080838  -0.001115  3.212791  -0.002
N  N58  1  0.91569342  0.11947858  0.68707313  1  -0.277347  0.006966  3.037447  0.008  -0.237265  0.003254  3.306291  0.004  -0.249054  0.002069  3.318629  0.003  -0.196296  -0.229138  0.004383  3.297735  0.005
N  N59  1  0.79628623  0.88052849  0.31290883  1  -0.276699  0.006951  3.036003  0.008  -0.236269  0.003249  3.305097  0.004  -0.248047  0.002063  3.317429  0.003  -0.196131  -0.22815  0.004373  3.296545  0.005
N  N60  1  0.29629457  0.88054356  0.18708214  1  -0.27664  -0.006951  3.036339  -0.008  -0.236173  -0.00325  3.305423  -0.004  -0.247946  -0.002064  3.317765  -0.003  -0.196179  -0.228053  -0.004374  3.296864  -0.005
N  N61  1  0.41567277  0.11947798  0.81294116  1  -0.276841  -0.006965  3.037362  -0.008  -0.236798  -0.003257  3.306202  -0.004  -0.248607  -0.002067  3.318533  -0.003  -0.196128  -0.228654  -0.004384  3.29765  -0.005
N  N62  1  0.14644267  0.75629470  0.56304460  1  -0.281321  -0.096706  3.341323  -0.118  -0.238224  -0.064975  3.641227  -0.085  -0.268995  -0.053557  3.66302  -0.073  -0.339475  -0.219487  -0.071877  3.627894  -0.091
N  N63  1  0.39035002  0.24376037  0.43705902  1  -0.282874  -0.096693  3.342519  -0.118  -0.239763  -0.064967  3.642733  -0.085  -0.270498  -0.053552  3.664449  -0.073  -0.340027  -0.221048  -0.071868  3.629401  -0.091
N  N64  1  0.89037479  0.24375676  0.06292022  1  -0.282725  0.096665  3.342738  0.118  -0.239759  0.064958  3.642992  0.085  -0.270526  0.053552  3.664742  0.073  -0.339826  -0.221024  0.07186  3.629621  0.091
N  N65  1  0.64650011  0.75631897  0.93697575  1  -0.281719  0.096722  3.341347  0.118  -0.238611  0.064996  3.641232  0.085  -0.269406  0.053576  3.663028  0.073  -0.339528  -0.219873  0.071905  3.627884  0.091
O  O66  1  0.48964921  0.99966532  0.99996098  1  -0.857566  -0.002201  2.012697  -0.002  -0.807008  -0.000822  2.233383  0.0  -0.829468  -0.000846  2.19435  0.0  -0.615015  -0.791151  -0.000863  2.259982  -0.001
O  O67  1  0.98968202  0.99979246  0.50002335  1  -0.858382  0.002198  2.011672  0.002  -0.807666  0.000819  2.232773  0.0  -0.830108  0.000845  2.193742  0.0  -0.615149  -0.791809  0.000861  2.259375  0.001
