# generated using pymatgen
data_NiH30C20(N3O2)2
_symmetry_space_group_name_H-M   'P 1'
_cell_length_a   7.11364001
_cell_length_b   13.50078225
_cell_length_c   12.31715742
_cell_angle_alpha   90.03485062
_cell_angle_beta   89.96366531
_cell_angle_gamma   113.56874357
_symmetry_Int_Tables_number   1
_chemical_formula_structural   NiH30C20(N3O2)2
_chemical_formula_sum   'Ni2 H60 C40 N12 O8'
_cell_volume   1084.25650440
_cell_formula_units_Z   2
loop_
 _symmetry_equiv_pos_site_id
 _symmetry_equiv_pos_as_xyz
  1  'x, y, z'
loop_
 _atom_site_type_symbol
 _atom_site_label
 _atom_site_symmetry_multiplicity
 _atom_site_fract_x
 _atom_site_fract_y
 _atom_site_fract_z
 _atom_site_occupancy
 _atom_site_pbe_bader_charge
 _atom_site_pbe_bader_spin_density
 _atom_site_pbe_cm5_charge
 _atom_site_pbe_ddec_charge
 _atom_site_pbe_ddec_spin_density
 _atom_site_pbe_ddec_sum_bond_order
 _atom_site_pbe_magmom
Ni  Ni0  1  0.00002282  0.99998979  0.99999800  1  0.774515  0  0.60603  0.316169  0  2.668519  0
Ni  Ni1  1  0.99999578  0.50002003  0.50000624  1  0.774658  0  0.606131  0.316571  0  2.668251  0
H  H2  1  0.60418850  0.95865730  0.87438563  1  0.066341  0  0.109973  0.087277  0  0.998662  0
H  H3  1  0.39593674  0.54124063  0.37433978  1  0.065311  0  0.109993  0.087329  0  0.998214  0
H  H4  1  0.39586412  0.04133446  0.12561919  1  0.065864  0  0.109973  0.087295  0  0.998548  0
H  H5  1  0.60405601  0.45879976  0.62567318  1  0.065212  0  0.11009  0.087408  0  0.998263  0
H  H6  1  0.50023886  0.81497122  0.87317688  1  0.069339  0  0.110817  0.095142  0  0.995117  0
H  H7  1  0.49995688  0.68492818  0.37314212  1  0.069228  0  0.110895  0.095073  0  0.995274  0
H  H8  1  0.49978655  0.18502005  0.12683119  1  0.069268  0  0.110824  0.095154  0  0.995168  0
H  H9  1  0.50004094  0.31511105  0.62687895  1  0.069183  0  0.110954  0.095138  0  0.995051  0
H  H10  1  0.84322240  0.82092357  0.81847539  1  0.075901  0  0.120284  0.111878  0  0.960507  0
H  H11  1  0.15708120  0.67898995  0.31847745  1  0.077632  0  0.120322  0.111845  0  0.960698  0
H  H12  1  0.15679508  0.17905787  0.18151725  1  0.076356  0  0.120285  0.111791  0  0.960477  0
H  H13  1  0.84291768  0.32104860  0.68153713  1  0.077606  0  0.120391  0.111894  0  0.960619  0
H  H14  1  0.77394771  0.90081801  0.72329130  1  0.072751  0  0.108038  0.092979  0  0.997156  0
H  H15  1  0.22645740  0.59901437  0.22328477  1  0.073183  0  0.108096  0.093096  0  0.996784  0
H  H16  1  0.22608006  0.09916959  0.27670541  1  0.072718  0  0.108022  0.093013  0  0.997106  0
H  H17  1  0.77353595  0.40102991  0.77672656  1  0.073611  0  0.107999  0.092926  0  0.996792  0
H  H18  1  0.95158152  0.13497150  0.85603824  1  0.107379  0  0.107511  0.100748  0  1.0234  0
H  H19  1  0.04866111  0.36495702  0.35604223  1  0.10035  0  0.107282  0.100316  0  1.024028  0
H  H20  1  0.04849903  0.86501387  0.14392760  1  0.106839  0  0.107404  0.100517  0  1.02375  0
H  H21  1  0.95134636  0.63508985  0.64395368  1  0.099692  0  0.107352  0.100604  0  1.023893  0
H  H22  1  0.92306281  0.08012591  0.72114365  1  0.064205  0  0.10323  0.090638  0  1.000867  0
H  H23  1  0.07729135  0.41969252  0.22112612  1  0.027886  0  0.103321  0.090504  0  1.000524  0
H  H24  1  0.07701003  0.91984734  0.27883275  1  0.062992  0  0.103274  0.090543  0  1.000894  0
H  H25  1  0.92268762  0.58035685  0.77887466  1  0.027872  0  0.103324  0.090515  0  1.000707  0
H  H26  1  0.26915487  0.17133770  0.68664366  1  0.073809  0  0.098735  0.077571  0  1.036174  0
H  H27  1  0.73126948  0.32845553  0.18666131  1  0.074086  0  0.098472  0.077177  0  1.036518  0
H  H28  1  0.73090784  0.82860787  0.31333435  1  0.073982  0  0.098656  0.077296  0  1.036469  0
H  H29  1  0.26872849  0.67159217  0.81334028  1  0.074024  0  0.098486  0.077217  0  1.036468  0
H  H30  1  0.30830525  0.23482153  0.81709224  1  0.039278  0  0.111816  0.105023  0  0.984197  0
H  H31  1  0.69192713  0.26507930  0.31711311  1  0.039916  0  0.111591  0.104569  0  0.984591  0
H  H32  1  0.69179314  0.76514901  0.18287441  1  0.039196  0  0.111573  0.104585  0  0.984439  0
H  H33  1  0.30807379  0.73496863  0.68289498  1  0.039785  0  0.111601  0.104665  0  0.984137  0
H  H34  1  0.21659897  0.91740692  0.84685710  1  0.120785  0  0.123167  0.102712  0  1.011675  0
H  H35  1  0.78362423  0.58251281  0.34690919  1  0.123758  0  0.123076  0.102403  0  1.012103  0
H  H36  1  0.78342599  0.08255893  0.15317045  1  0.121312  0  0.123241  0.102838  0  1.011636  0
H  H37  1  0.21635671  0.41752670  0.65310539  1  0.12428  0  0.123219  0.102766  0  1.011775  0
H  H38  1  0.16374649  0.95628781  0.71328370  1  0.077218  0  0.115584  0.086207  0  0.981563  0
H  H39  1  0.83662283  0.54352905  0.21333159  1  0.079163  0  0.115594  0.086317  0  0.98133  0
H  H40  1  0.83628713  0.04365098  0.28672761  1  0.077299  0  0.115584  0.086277  0  0.981375  0
H  H41  1  0.16335322  0.45651471  0.78667975  1  0.078796  0  0.115645  0.086372  0  0.981411  0
H  H42  1  0.44056342  0.81422424  0.07811324  1  0.08949  0  0.115227  0.081013  0  1.000431  0
H  H43  1  0.55935984  0.68581243  0.57808096  1  0.092917  0  0.115205  0.080935  0  1.000584  0
H  H44  1  0.55947462  0.18574488  0.92186478  1  0.088143  0  0.115321  0.081075  0  1.000486  0
H  H45  1  0.44065522  0.31420808  0.42192306  1  0.090471  0  0.115195  0.080915  0  1.000592  0
H  H46  1  0.52132484  0.95431316  0.05698119  1  0.043806  0  0.115086  0.066855  0  1.026986  0
H  H47  1  0.47864440  0.54571902  0.55691996  1  0.044443  0  0.115106  0.066867  0  1.027083  0
H  H48  1  0.47874437  0.04566137  0.94302931  1  0.043151  0  0.115154  0.067104  0  1.027101  0
H  H49  1  0.52131142  0.45429399  0.44309218  1  0.044563  0  0.115039  0.066918  0  1.027097  0
H  H50  1  0.34999986  0.50107454  0.00903618  1  0.11857  0  0.101723  0.107698  0  1.030729  0
H  H51  1  0.64993977  0.99896785  0.50911316  1  0.118145  0  0.101656  0.107808  0  1.030234  0
H  H52  1  0.65007504  0.49887809  0.99092804  1  0.118922  0  0.101615  0.107616  0  1.030626  0
H  H53  1  0.34986736  0.00106484  0.49088276  1  0.119044  0  0.101586  0.107723  0  1.030297  0
H  H54  1  0.69656799  0.32573586  0.99524119  1  0.077792  0  0.098051  0.096269  0  1.046957  0
H  H55  1  0.30339617  0.17425742  0.49521122  1  0.078216  0  0.098054  0.096209  0  1.047003  0
H  H56  1  0.30348212  0.67420184  0.00472708  1  0.07859  0  0.098068  0.09625  0  1.047208  0
H  H57  1  0.69643167  0.82577142  0.50476765  1  0.07783  0  0.098028  0.096191  0  1.047109  0
H  H58  1  0.74818681  0.81698871  0.00455465  1  0.518698  0  0.282561  0.24768  0  1.022549  0
H  H59  1  0.25181272  0.68300161  0.50457554  1  0.518187  0  0.282571  0.247778  0  1.02235  0
H  H60  1  0.25186296  0.18299206  0.99543393  1  0.518781  0  0.282579  0.247946  0  1.022417  0
H  H61  1  0.74816216  0.31702899  0.49544391  1  0.518638  0  0.28272  0.248003  0  1.02225  0
C  C62  1  0.64135776  0.88777395  0.88550184  1  0.235143  0  -0.067325  -0.050987  0  3.883256  0
C  C63  1  0.35880554  0.61214957  0.38547790  1  0.236209  0  -0.067348  -0.050683  0  3.882245  0
C  C64  1  0.35868140  0.11221373  0.11449811  1  0.235252  0  -0.067352  -0.05096  0  3.883305  0
C  C65  1  0.64118910  0.38789173  0.61453668  1  0.236127  0  -0.067519  -0.050681  0  3.882491  0
C  C66  1  0.81033193  0.89335873  0.80890157  1  0.235758  0  -0.064115  -0.089927  0  3.862512  0
C  C67  1  0.18994689  0.60653419  0.30889749  1  0.232949  0  -0.064183  -0.09017  0  3.862121  0
C  C68  1  0.18969819  0.10662520  0.19109432  1  0.235481  0  -0.064209  -0.09004  0  3.862328  0
C  C69  1  0.81005010  0.39350344  0.69111628  1  0.232688  0  -0.064176  -0.090194  0  3.861663  0
C  C70  1  0.01208595  0.09452094  0.79678954  1  0.161821  0  -0.072902  -0.103432  0  3.751591  0
C  C71  1  0.98820792  0.40535552  0.29679602  1  0.204074  0  -0.072872  -0.102946  0  3.751211  0
C  C72  1  0.98798771  0.90545392  0.20318604  1  0.163702  0  -0.072755  -0.103139  0  3.751468  0
C  C73  1  0.01178645  0.59469346  0.70320719  1  0.20401  0  -0.072903  -0.103356  0  3.751354  0
C  C74  1  0.24477388  0.15722774  0.77416125  1  0.286997  0  -0.067424  -0.078243  0  3.829323  0
C  C75  1  0.75554990  0.34263678  0.27418172  1  0.285907  0  -0.067052  -0.077264  0  3.829147  0
C  C76  1  0.75530600  0.84273450  0.22582001  1  0.286051  0  -0.067183  -0.077486  0  3.829168  0
C  C77  1  0.24444451  0.65740681  0.72582149  1  0.286114  0  -0.067031  -0.07735  0  3.828643  0
C  C78  1  0.18808831  0.97898586  0.79983094  1  0.553092  0  0.022463  -0.008611  0  3.863498  0
C  C79  1  0.81219482  0.52089740  0.29988197  1  0.546873  0  0.022842  -0.007791  0  3.864101  0
C  C80  1  0.81194981  0.02097250  0.20017550  1  0.5535  0  0.022487  -0.008782  0  3.863618  0
C  C81  1  0.18779032  0.47914473  0.70013018  1  0.547834  0  0.022655  -0.008615  0  3.864285  0
C  C82  1  0.57470861  0.89164235  0.08011383  1  0.591487  0  0.024791  0.044307  0  3.914961  0
C  C83  1  0.42521185  0.60839683  0.58007236  1  0.589011  0  0.024753  0.044391  0  3.914686  0
C  C84  1  0.42534021  0.10832296  0.91988530  1  0.59357  0  0.024551  0.043649  0  3.915971  0
C  C85  1  0.57478121  0.39163051  0.41993734  1  0.59117  0  0.024896  0.044494  0  3.915158  0
C  C86  1  0.05238743  0.29547897  0.00516691  1  1.586684  0  0.186158  0.549334  0  4.280447  0
C  C87  1  0.94759564  0.20451085  0.50518018  1  1.586251  0  0.186265  0.549463  0  4.280209  0
C  C88  1  0.94769196  0.70446323  0.99483871  1  1.586514  0  0.186359  0.549925  0  4.279282  0
C  C89  1  0.05221454  0.79550592  0.49485228  1  1.5871  0  0.185949  0.549607  0  4.280306  0
C  C90  1  0.02595004  0.40154586  0.00228315  1  -0.104942  0  -0.024073  -0.044133  0  3.987181  0
C  C91  1  0.97400665  0.09843490  0.50229800  1  -0.105035  0  -0.024303  -0.044714  0  3.987715  0
C  C92  1  0.97411357  0.59839054  0.99771435  1  -0.103035  0  -0.024411  -0.04496  0  3.988242  0
C  C93  1  0.02580032  0.90158932  0.49771173  1  -0.102275  0  -0.024214  -0.044604  0  3.987442  0
C  C94  1  0.19671805  0.50066248  0.00518206  1  -0.044033  0  -0.090131  -0.107725  0  3.991358  0
C  C95  1  0.80319532  0.99933025  0.50521468  1  -0.043714  0  -0.089948  -0.107642  0  3.99097  0
C  C96  1  0.80334557  0.49927392  0.99480002  1  -0.04209  0  -0.090008  -0.107459  0  3.992136  0
C  C97  1  0.19660531  0.00069810  0.49476664  1  -0.042789  0  -0.090068  -0.107882  0  3.990997  0
C  C98  1  0.82963406  0.40245315  0.99708993  1  -0.06838  0  -0.093981  -0.115764  0  4.016885  0
C  C99  1  0.17033893  0.09753188  0.49706707  1  -0.068452  0  -0.093844  -0.11535  0  4.016449  0
C  C100  1  0.17042324  0.59748201  0.00288483  1  -0.068722  0  -0.09383  -0.115404  0  4.017018  0
C  C101  1  0.82948149  0.90250179  0.50290856  1  -0.068285  0  -0.093886  -0.11539  0  4.01726  0
N  N102  1  0.72460336  0.89024733  0.99617855  1  -1.052683  0  -0.494405  -0.293902  0  3.517774  0
N  N103  1  0.27542771  0.60974652  0.49616888  1  -1.052569  0  -0.494539  -0.294294  0  3.518058  0
N  N104  1  0.27544728  0.10972966  0.00381653  1  -1.052408  0  -0.494119  -0.293866  0  3.518357  0
N  N105  1  0.72456799  0.39029409  0.50384407  1  -1.052691  0  -0.494792  -0.294627  0  3.518152  0
N  N106  1  0.99730450  0.98807774  0.84223962  1  -0.928877  0  -0.342912  -0.058124  0  3.476286  0
N  N107  1  0.00292647  0.51183675  0.34225098  1  -0.925874  0  -0.342699  -0.058197  0  3.476564  0
N  N108  1  0.00273917  0.01189950  0.15775383  1  -0.928992  0  -0.342887  -0.057985  0  3.476066  0
N  N109  1  0.99706310  0.48820571  0.65775873  1  -0.926515  0  -0.342817  -0.057889  0  3.476459  0
N  N110  1  0.34535209  0.08613091  0.81096964  1  -1.06014  0  -0.345952  -0.173247  0  3.473193  0
N  N111  1  0.65492895  0.41375762  0.31101859  1  -1.060835  0  -0.346137  -0.174134  0  3.473378  0
N  N112  1  0.65470231  0.91382327  0.18902624  1  -1.059854  0  -0.345917  -0.173315  0  3.47312  0
N  N113  1  0.34506296  0.58628117  0.68899112  1  -1.060895  0  -0.346146  -0.173754  0  3.472707  0
O  O114  1  0.89366703  0.20973625  0.02113622  1  -1.209011  0  -0.348572  -0.604547  0  2.150682  0
O  O115  1  0.10632792  0.29026315  0.52111597  1  -1.208824  0  -0.348767  -0.604687  0  2.150153  0
O  O116  1  0.10641129  0.79020665  0.97886697  1  -1.21019  0  -0.3486  -0.604697  0  2.150343  0
O  O117  1  0.89351843  0.70974400  0.47888644  1  -1.209197  0  -0.348477  -0.604637  0  2.150736  0
O  O118  1  0.23485648  0.30148597  0.99060978  1  -1.187756  0  -0.346489  -0.572731  0  2.146999  0
O  O119  1  0.76516514  0.19851042  0.49064894  1  -1.18756  0  -0.34642  -0.57254  0  2.147158  0
O  O120  1  0.76522033  0.69846220  0.00938772  1  -1.187085  0  -0.346588  -0.572873  0  2.146686  0
O  O121  1  0.23464983  0.80151287  0.50940706  1  -1.188637  0  -0.346292  -0.57265  0  2.147208  0
