# generated using pymatgen
data_Co2H12C16O9
_symmetry_space_group_name_H-M   'P 1'
_cell_length_a   5.86324490
_cell_length_b   10.37516362
_cell_length_c   14.11905303
_cell_angle_alpha   96.77509685
_cell_angle_beta   97.87009873
_cell_angle_gamma   99.93146685
_symmetry_Int_Tables_number   1
_chemical_formula_structural   Co2H12C16O9
_chemical_formula_sum   'Co4 H24 C32 O18'
_cell_volume   829.18243667
_cell_formula_units_Z   2
loop_
 _symmetry_equiv_pos_site_id
 _symmetry_equiv_pos_as_xyz
  1  'x, y, z'
loop_
 _atom_site_type_symbol
 _atom_site_label
 _atom_site_symmetry_multiplicity
 _atom_site_fract_x
 _atom_site_fract_y
 _atom_site_fract_z
 _atom_site_occupancy
 _atom_site_pbe_bader_charge
 _atom_site_pbe_bader_spin_density
 _atom_site_pbe_cm5_charge
 _atom_site_pbe_ddec_charge
 _atom_site_pbe_ddec_spin_density
 _atom_site_pbe_ddec_sum_bond_order
 _atom_site_pbe_magmom
Co  Co0  1  0.62579627  0.30035066  0.44044984  1  1.260294  2.558324  0.644831  0.986168  2.742868  2.473175  2.528
Co  Co1  1  0.38182293  0.48420297  0.38780176  1  1.281502  2.619917  0.621339  1.00451  2.835793  2.449512  2.606
Co  Co2  1  0.61804618  0.51587834  0.61218215  1  1.281679  2.619697  0.621064  1.003652  2.835619  2.449248  2.605
Co  Co3  1  0.37414142  0.69970900  0.55951713  1  1.260577  2.558184  0.644849  0.986221  2.74288  2.473794  2.527
H  H4  1  0.27756665  0.09053714  0.28027591  1  0.085635  0.000419  0.105859  0.118061  0.00021  1.048733  0.0
H  H5  1  0.15704943  0.44836980  0.53190774  1  0.637274  0.003608  0.30634  0.417715  0.003043  0.892505  0.005
H  H6  1  0.92574387  0.42681328  0.31151904  1  0.643144  0.000416  0.300369  0.386994  5.4e-05  0.951983  0.001
H  H7  1  0.27792866  0.33014191  0.05837740  1  0.095142  0.000252  0.105736  0.111417  9.4e-05  0.999281  0.0
H  H8  1  0.07417330  0.57328516  0.68846568  1  0.643164  0.000413  0.30031  0.386757  4.9e-05  0.952364  0.001
H  H9  1  0.72213014  0.66988850  0.94159664  1  0.09499  0.000252  0.105731  0.111378  9.4e-05  0.999163  0.0
H  H10  1  0.88229141  0.19122245  0.18599476  1  0.100143  0.000172  0.101139  0.108006  -4.2e-05  1.026855  0.0
H  H11  1  0.93139226  0.08890949  0.02346558  1  0.05739  0.000117  0.097831  0.093898  4.6e-05  1.031411  0.0
H  H12  1  0.82904846  0.70704149  0.25640356  1  0.129759  0.000621  0.113466  0.132729  0.000345  1.00241  0.0
H  H13  1  0.08150624  0.51416262  0.25174515  1  0.612368  -0.00032  0.33161  0.415277  -0.000477  0.851646  0.0
H  H14  1  0.50675483  0.94149805  0.19906790  1  0.083337  3.5e-05  0.101451  0.076148  -3.1e-05  1.005897  0.0
H  H15  1  0.72250124  0.90943031  0.71976300  1  0.085722  0.000418  0.105826  0.11787  0.000209  1.048735  0.0
H  H16  1  0.67906189  0.77733854  0.10435027  1  0.118628  0.000129  0.101294  0.105504  5.6e-05  1.036213  0.0
H  H17  1  0.11777315  0.80882068  0.81401915  1  0.100448  0.000172  0.101081  0.107905  -4.2e-05  1.026823  0.0
H  H18  1  0.71583139  0.98660579  0.86265032  1  0.044312  -2.9e-05  0.099531  0.064765  -6.9e-05  1.016531  0.0
H  H19  1  0.72732010  0.03402185  0.45321935  1  0.139839  0.001132  0.108786  0.122525  0.000672  1.030699  0.0
H  H20  1  0.32098363  0.22261367  0.89564265  1  0.118406  0.000129  0.101292  0.10543  5.6e-05  1.036251  0.0
H  H21  1  0.06861980  0.91107796  0.97657095  1  0.058144  0.000116  0.097822  0.093893  4.6e-05  1.0315  0.0
H  H22  1  0.84286477  0.55176794  0.46810069  1  0.637135  0.003607  0.306339  0.417783  0.003041  0.892103  0.005
H  H23  1  0.49329166  0.05845538  0.80095070  1  0.083493  3.5e-05  0.101505  0.076337  -3e-05  1.005779  0.0
H  H24  1  0.17100050  0.29289178  0.74362019  1  0.129652  0.000619  0.113538  0.132819  0.000345  1.002388  0.0
H  H25  1  0.27277840  0.96595509  0.54678463  1  0.139153  0.00114  0.10876  0.122541  0.000674  1.030959  0.0
H  H26  1  0.91844127  0.48589607  0.74821516  1  0.612893  -0.000322  0.3313  0.414513  -0.000478  0.852226  0.0
H  H27  1  0.28418544  0.01330702  0.13737455  1  0.044227  -2.9e-05  0.099689  0.064926  -6.9e-05  1.016494  0.0
C  C28  1  0.13011332  0.02516403  0.29898789  1  -0.06187  0.000219  -0.097978  -0.219983  -0.000354  3.931966  0.0
C  C29  1  0.76218599  0.19935488  0.12189356  1  -0.062924  -8.4e-05  -0.08694  -0.088836  -0.000501  3.974549  0.0
C  C30  1  0.81951089  0.99579136  0.39744738  1  -0.056657  0.005839  -0.083355  -0.136875  0.003382  3.932003  0.004
C  C31  1  0.08094814  0.21786971  0.41141956  1  1.549936  0.015901  0.229576  0.618447  0.011504  4.078489  0.015
C  C32  1  0.45037045  0.67410602  0.76938361  1  1.537791  -0.002237  0.215198  0.577409  -0.003855  4.168242  -0.004
C  C33  1  0.12255653  0.18844422  0.71395037  1  0.002301  0.00376  -0.08201  -0.182596  0.002011  3.906839  0.002
C  C34  1  0.18058446  0.00416833  0.60256741  1  -0.057785  0.00587  -0.083338  -0.137201  0.003399  3.932664  0.004
C  C35  1  0.21223050  0.85828608  0.96899201  1  -0.067396  0.000626  -0.088608  -0.129891  0.000266  3.982177  0.0
C  C36  1  0.54964839  0.32597034  0.23061354  1  1.537567  -0.00224  0.215105  0.577389  -0.003847  4.168483  -0.004
C  C37  1  0.42040719  0.27687012  0.04998176  1  -0.052901  -0.000439  -0.081831  -0.085086  -0.000847  3.968138  0.0
C  C38  1  0.78775396  0.14168407  0.03103771  1  -0.067498  0.000625  -0.088854  -0.130105  0.000266  3.982374  0.0
C  C39  1  0.00674298  0.07637554  0.36871395  1  -0.011331  0.005443  -0.017379  -0.021499  0.002681  4.00194  0.004
C  C40  1  0.65804877  0.08038813  0.85278185  1  0.393808  -2.9e-05  -0.062988  -0.018928  -0.000103  3.895346  0.0
C  C41  1  0.23783030  0.80066596  0.87812537  1  -0.064446  -8.4e-05  -0.087001  -0.088931  -0.000502  3.974752  0.0
C  C42  1  0.42771657  0.23112378  0.61015992  1  1.546754  -0.004612  0.220612  0.595405  -0.007354  4.147443  -0.003
C  C43  1  0.62904879  0.14871051  0.94892203  1  -0.002901  -0.001172  -0.007671  0.096523  -0.001363  3.965149  -0.001
C  C44  1  0.57961699  0.72312847  0.95000840  1  -0.053302  -0.000439  -0.081557  -0.084606  -0.000848  3.967565  0.0
C  C45  1  0.91902733  0.78211516  0.58855593  1  1.55083  0.015934  0.22962  0.618658  0.01153  4.078559  0.015
C  C46  1  0.86998288  0.97476238  0.70103770  1  -0.061072  0.000235  -0.098103  -0.219935  -0.000341  3.932231  0.0
C  C47  1  0.37093960  0.85120887  0.05109985  1  -0.003356  -0.001173  -0.007724  0.096597  -0.001364  3.965305  -0.001
C  C48  1  0.44557900  0.21703676  0.95915195  1  -0.045628  0.000778  -0.085971  -0.126837  0.000329  3.948131  0.001
C  C49  1  0.99338046  0.92357643  0.63130936  1  -0.012185  0.005428  -0.017335  -0.02133  0.002674  4.002039  0.004
C  C50  1  0.42277341  0.73284422  0.86794529  1  -0.045264  0.008883  -0.023587  -0.053131  0.004759  3.993137  0.007
C  C51  1  0.24303578  0.13741735  0.64401080  1  0.006274  0.009704  -0.015275  -0.010717  0.004969  3.97799  0.008
C  C52  1  0.57224471  0.76888985  0.38983051  1  1.546145  -0.004625  0.2207  0.595658  -0.00737  4.147478  -0.003
C  C53  1  0.57723823  0.26719614  0.13205768  1  -0.046921  0.00889  -0.023333  -0.05293  0.004761  3.992883  0.007
C  C54  1  0.93740361  0.10690474  0.74362362  1  0.469851  0.000662  0.083435  0.255262  0.000108  4.074388  0.0
C  C55  1  0.06263913  0.89302188  0.25639203  1  0.46951  0.000665  0.083255  0.255067  0.00011  4.073948  0.0
C  C56  1  0.87742688  0.81150282  0.28605070  1  0.001052  0.003732  -0.08203  -0.182629  0.001997  3.906774  0.002
C  C57  1  0.34197737  0.91952657  0.14724159  1  0.393656  -2.9e-05  -0.062972  -0.018883  -0.000103  3.895473  0.0
C  C58  1  0.55442376  0.78290689  0.04085124  1  -0.045396  0.000778  -0.086247  -0.127416  0.000329  3.948489  0.001
C  C59  1  0.75697053  0.86255730  0.35598869  1  0.005767  0.009713  -0.015231  -0.010939  0.004974  3.978405  0.008
O  O60  1  0.48514641  0.34744186  0.65660878  1  -1.149231  0.074899  -0.309737  -0.545402  0.03927  2.397594  0.065
O  O61  1  0.68655727  0.29554216  0.30172311  1  -1.178951  0.064986  -0.324046  -0.607709  0.03351  2.434918  0.056
O  O62  1  0.59478845  0.59889291  0.75869697  1  -1.126671  0.062173  -0.291987  -0.522199  0.031961  2.299043  0.055
O  O63  1  0.69997342  0.49173547  0.47631565  1  -1.178284  0.252507  -0.562357  -0.907363  0.132859  2.486826  0.228
O  O64  1  0.50972688  0.19032893  0.53499776  1  -1.150084  0.07743  -0.312376  -0.557286  0.040049  2.391856  0.064
O  O65  1  0.49018415  0.80967975  0.46498662  1  -1.149654  0.077512  -0.312495  -0.557433  0.040087  2.392021  0.064
O  O66  1  0.16384266  0.83487319  0.18506202  1  -1.05469  0.000393  -0.182995  -0.204701  0.000129  2.499468  0.0
O  O67  1  0.29987227  0.50837155  0.52362217  1  -1.178619  0.252503  -0.562388  -0.907365  0.132858  2.487899  0.228
O  O68  1  0.03519006  0.72653395  0.53192160  1  -1.172314  0.072843  -0.296074  -0.532152  0.036375  2.362071  0.059
O  O69  1  0.96459465  0.27340201  0.46799465  1  -1.171322  0.072862  -0.296048  -0.532153  0.036401  2.362225  0.059
O  O70  1  0.51480306  0.65259014  0.34337511  1  -1.148919  0.075004  -0.309644  -0.545313  0.039319  2.398028  0.065
O  O71  1  0.31351772  0.70456331  0.69827014  1  -1.178941  0.064942  -0.323991  -0.607682  0.033483  2.434613  0.056
O  O72  1  0.73166710  0.71814507  0.61325014  1  -1.173408  0.112823  -0.321529  -0.615052  0.059696  2.599564  0.097
O  O73  1  0.95215453  0.49226838  0.68301170  1  -1.202844  0.053976  -0.5532  -0.71896  0.02798  2.111137  0.045
O  O74  1  0.04787963  0.50775675  0.31695267  1  -1.202464  0.054016  -0.55361  -0.720108  0.027997  2.111303  0.045
O  O75  1  0.26828049  0.28190727  0.38675628  1  -1.173253  0.112826  -0.321582  -0.614981  0.059692  2.599154  0.097
O  O76  1  0.83623817  0.16504401  0.81498021  1  -1.055221  0.000393  -0.182892  -0.204764  0.000129  2.498754  0.0
O  O77  1  0.40520136  0.40116163  0.24131196  1  -1.125988  0.062166  -0.291922  -0.522247  0.03196  2.299167  0.055
