# generated using pymatgen
data_Cu3H16C8(Br3O2)2
_symmetry_space_group_name_H-M   'P 1'
_cell_length_a   7.32115853
_cell_length_b   7.32107007
_cell_length_c   9.54738482
_cell_angle_alpha   99.30846653
_cell_angle_beta   99.30757536
_cell_angle_gamma   114.17518998
_symmetry_Int_Tables_number   1
_chemical_formula_structural   Cu3H16C8(Br3O2)2
_chemical_formula_sum   'Cu3 H16 C8 Br6 O4'
_cell_volume   445.68472697
_cell_formula_units_Z   1
loop_
 _symmetry_equiv_pos_site_id
 _symmetry_equiv_pos_as_xyz
  1  'x, y, z'
loop_
 _atom_site_type_symbol
 _atom_site_label
 _atom_site_symmetry_multiplicity
 _atom_site_fract_x
 _atom_site_fract_y
 _atom_site_fract_z
 _atom_site_occupancy
 _atom_site_pbe_cm5_charge
 _atom_site_pbe_ddec_charge
 _atom_site_pbe_ddec_spin_density
 _atom_site_pbe_ddec_sum_bond_order
 _atom_site_pbe_magmom
Cu  Cu0  1  0.90861301  0.90860819  0.30665019  1  0.400537  0.535988  -0.505329  2.415361  -0.403
Cu  Cu1  1  0.09138256  0.09138120  0.69335273  1  0.400521  0.535968  -0.505316  2.41546  -0.403
Cu  Cu2  1  0.00000820  0.00000433  0.99999498  1  0.404584  0.540577  0.459321  2.444378  0.379
H  H3  1  0.37943991  0.57918507  0.13938658  1  0.082974  0.065929  -7.8e-05  1.018351  0.0
H  H4  1  0.42082664  0.62057127  0.86061783  1  0.08297  0.065872  -7.8e-05  1.018427  0.0
H  H5  1  0.62056682  0.42082598  0.86061725  1  0.082947  0.065866  -7.8e-05  1.018409  0.0
H  H6  1  0.57918422  0.37943665  0.13938821  1  0.082988  0.065952  -7.8e-05  1.018324  0.0
H  H7  1  0.42349961  0.75580665  0.30893204  1  0.090643  0.077989  -0.000179  1.014529  0.0
H  H8  1  0.24420116  0.57650170  0.69107867  1  0.090625  0.077944  -0.000179  1.014582  0.0
H  H9  1  0.57649882  0.24419825  0.69107838  1  0.09061  0.077914  -0.000179  1.014575  0.0
H  H10  1  0.75580002  0.42350009  0.30893381  1  0.090646  0.077992  -0.000179  1.014552  0.0
H  H11  1  0.26366271  0.46404806  0.42045035  1  0.09127  0.072689  -0.000343  1.018235  0.0
H  H12  1  0.53594259  0.73632483  0.57954541  1  0.091283  0.072751  -0.000343  1.018272  0.0
H  H13  1  0.73632733  0.53594135  0.57954770  1  0.091294  0.07274  -0.000343  1.018288  0.0
H  H14  1  0.46403914  0.26366153  0.42045125  1  0.091295  0.072768  -0.000343  1.018176  0.0
H  H15  1  0.08919820  0.42075081  0.25044502  1  0.087347  0.079275  0.000544  1.021363  0.0
H  H16  1  0.57924997  0.91080392  0.74954920  1  0.087357  0.079282  0.000544  1.021336  0.0
H  H17  1  0.91080224  0.57924939  0.74955040  1  0.087346  0.079279  0.000544  1.021389  0.0
H  H18  1  0.42074562  0.08919475  0.25044334  1  0.08735  0.07925  0.000544  1.021375  0.0
C  C19  1  0.41108201  0.60358533  0.25959281  1  -0.093286  -0.022239  -2.8e-05  3.913613  0.0
C  C20  1  0.39642102  0.58891737  0.74041259  1  -0.093196  -0.022027  -2.8e-05  3.913458  0.0
C  C21  1  0.58891709  0.39641800  0.74041226  1  -0.093185  -0.022041  -2.8e-05  3.913432  0.0
C  C22  1  0.60358012  0.41107820  0.25959492  1  -0.093264  -0.022212  -2.8e-05  3.91351  0.0
C  C23  1  0.24128247  0.43394518  0.30065105  1  -0.09486  -0.019392  0.000163  3.909205  0.001
C  C24  1  0.56605231  0.75871514  0.69934257  1  -0.094925  -0.019629  0.000163  3.90924  0.001
C  C25  1  0.75871449  0.56605038  0.69934233  1  -0.094908  -0.019589  0.000163  3.909218  0.001
C  C26  1  0.43393567  0.24127892  0.30065057  1  -0.094891  -0.019452  0.000163  3.909227  0.001
Br  Br27  1  0.86313276  0.13686786  0.50000274  1  -0.148165  -0.266635  -0.185855  1.634051  -0.189
Br  Br28  1  0.13687109  0.86312148  0.49999910  1  -0.148155  -0.266631  -0.185853  1.633985  -0.189
Br  Br29  1  0.72291363  0.99698074  0.11293236  1  -0.147619  -0.26753  -0.019467  1.710002  -0.017
Br  Br30  1  0.00304361  0.27711025  0.88707239  1  -0.147596  -0.267469  -0.019476  1.710092  -0.017
Br  Br31  1  0.27710973  0.00304261  0.88707188  1  -0.147611  -0.267506  -0.019474  1.710135  -0.017
Br  Br32  1  0.99696034  0.72290079  0.11292480  1  -0.147614  -0.267481  -0.019462  1.710055  -0.017
O  O33  1  0.60926303  0.60926662  0.31551255  1  -0.245079  -0.244747  0.001032  2.581833  0.001
O  O34  1  0.39073328  0.39073054  0.68449561  1  -0.245136  -0.244784  0.001033  2.581894  0.001
O  O35  1  0.23575632  0.23575774  0.24656696  1  -0.242565  -0.268417  -0.000664  2.638603  -0.001
O  O36  1  0.76423855  0.76423936  0.75341588  1  -0.242529  -0.268245  -0.000664  2.638386  -0.001
