# generated using pymatgen
data_EuH24C24(NO2)6
_symmetry_space_group_name_H-M   'P 1'
_cell_length_a   15.93137810
_cell_length_b   15.93137944
_cell_length_c   16.42232902
_cell_angle_alpha   89.99993129
_cell_angle_beta   90.00006820
_cell_angle_gamma   120.00008413
_symmetry_Int_Tables_number   1
_chemical_formula_structural   EuH24C24(NO2)6
_chemical_formula_sum   'Eu4 H96 C96 N24 O48'
_cell_volume   3609.70522994
_cell_formula_units_Z   4
loop_
 _symmetry_equiv_pos_site_id
 _symmetry_equiv_pos_as_xyz
  1  'x, y, z'
loop_
 _atom_site_type_symbol
 _atom_site_label
 _atom_site_symmetry_multiplicity
 _atom_site_fract_x
 _atom_site_fract_y
 _atom_site_fract_z
 _atom_site_occupancy
 _atom_site_pbe_bader_charge
 _atom_site_pbe_bader_spin_density
 _atom_site_pbe_cm5_charge
 _atom_site_pbe_ddec_charge
 _atom_site_pbe_ddec_spin_density
 _atom_site_pbe_ddec_sum_bond_order
 _atom_site_pbe_magmom
Eu  Eu0  1  0.33333333  0.66666673  0.33396218  1  2.154068  0  1.493888  1.924531  0  2.308714  0
Eu  Eu1  1  0.66666699  0.33333312  0.16603815  1  2.154091  0  1.493873  1.924497  0  2.308739  0
Eu  Eu2  1  0.66666684  0.33333328  0.66603788  1  2.154031  0  1.493884  1.924515  0  2.308727  0
Eu  Eu3  1  0.33333317  0.66666689  0.83396191  1  2.154123  0  1.49387  1.924487  0  2.308756  0
H  H4  1  0.90822508  0.33948023  0.30343658  1  0.090618  0  0.118549  0.101426  0  0.999287  0
H  H5  1  0.66051944  0.56874548  0.30343630  1  0.093277  0  0.118558  0.101432  0  0.999309  0
H  H6  1  0.43125554  0.09177458  0.30343645  1  0.053486  0  0.118552  0.101441  0  0.999298  0
H  H7  1  0.33948069  0.90822579  0.19656375  1  0.090621  0  0.11857  0.101443  0  0.999337  0
H  H8  1  0.56874535  0.66051955  0.19656402  1  0.093283  0  0.118557  0.101445  0  0.999295  0
H  H9  1  0.09177477  0.43125530  0.19656388  1  0.053484  0  0.118545  0.101419  0  0.999307  0
H  H10  1  0.09177409  0.66051951  0.69656348  1  0.090624  0  0.118567  0.101444  0  0.999338  0
H  H11  1  0.33948036  0.43125490  0.69656375  1  0.093274  0  0.118549  0.101425  0  0.999305  0
H  H12  1  0.56874462  0.90822543  0.69656361  1  0.053486  0  0.118546  0.101438  0  0.999304  0
H  H13  1  0.66051947  0.09177423  0.80343631  1  0.090622  0  0.118571  0.101438  0  0.999338  0
H  H14  1  0.43125482  0.33948046  0.80343603  1  0.093279  0  0.118553  0.101432  0  0.999299  0
H  H15  1  0.90822539  0.56874472  0.80343617  1  0.053486  0  0.118547  0.101424  0  0.999299  0
H  H16  1  0.00982566  0.32424626  0.32066201  1  0.083593  0  0.123457  0.108718  0  0.953883  0
H  H17  1  0.67575412  0.68557988  0.32066218  1  0.085076  0  0.123445  0.108725  0  0.953923  0
H  H18  1  0.31442020  0.99017408  0.32066180  1  0.090825  0  0.123445  0.108729  0  0.953936  0
H  H19  1  0.32424677  0.00982646  0.17933772  1  0.083594  0  0.123438  0.108723  0  0.953915  0
H  H20  1  0.68557976  0.67575424  0.17933815  1  0.085079  0  0.123448  0.108727  0  0.95392  0
H  H21  1  0.99017401  0.31442037  0.17933792  1  0.090821  0  0.123448  0.108719  0  0.953924  0
H  H22  1  0.99017352  0.67575348  0.67933744  1  0.083588  0  0.123436  0.108715  0  0.953934  0
H  H23  1  0.32424605  0.31442014  0.67933787  1  0.085078  0  0.123447  0.108721  0  0.953919  0
H  H24  1  0.68557961  0.00982630  0.67933826  1  0.090823  0  0.123441  0.108722  0  0.95394  0
H  H25  1  0.67575340  0.99017355  0.82066234  1  0.083594  0  0.123439  0.108718  0  0.953915  0
H  H26  1  0.31442004  0.32424614  0.82066191  1  0.085079  0  0.123448  0.108722  0  0.953917  0
H  H27  1  0.00982615  0.68557964  0.82066213  1  0.090821  0  0.123447  0.108718  0  0.953924  0
H  H28  1  0.25479403  0.74823401  0.51458811  1  0.081661  0  0.107933  0.125644  0  1.010643  0
H  H29  1  0.25176606  0.50655970  0.51458764  1  0.078569  0  0.107935  0.125658  0  1.01065  0
H  H30  1  0.49344012  0.74520627  0.51458764  1  0.120949  0  0.107938  0.125657  0  1.010638  0
H  H31  1  0.74823433  0.25479379  0.98541228  1  0.081663  0  0.10793  0.125657  0  1.010643  0
H  H32  1  0.50655999  0.25176581  0.98541214  1  0.078573  0  0.107922  0.125613  0  1.010664  0
H  H33  1  0.74520558  0.49343958  0.98541214  1  0.120941  0  0.107932  0.125643  0  1.010652  0
H  H34  1  0.74520614  0.25176600  0.48541194  1  0.081663  0  0.107936  0.125646  0  1.010639  0
H  H35  1  0.74823410  0.49344031  0.48541241  1  0.078572  0  0.107933  0.125651  0  1.010653  0
H  H36  1  0.50655969  0.25479411  0.48541241  1  0.120946  0  0.107935  0.125651  0  1.010642  0
H  H37  1  0.25176584  0.74520623  0.01458778  1  0.08166  0  0.10793  0.125656  0  1.010643  0
H  H38  1  0.49344017  0.74823421  0.01458791  1  0.078571  0  0.107923  0.125619  0  1.010661  0
H  H39  1  0.25479395  0.50655980  0.01458792  1  0.120946  0  0.107935  0.125647  0  1.01065  0
H  H40  1  0.90549675  0.59147918  0.43971308  1  0.060866  0  0.102719  0.099572  0  1.046907  0
H  H41  1  0.40852071  0.31401780  0.43971357  1  0.062596  0  0.102731  0.099584  0  1.046906  0
H  H42  1  0.68598276  0.09450314  0.43971325  1  0.097327  0  0.102709  0.099575  0  1.046921  0
H  H43  1  0.59147904  0.90549684  0.06028664  1  0.060871  0  0.102723  0.099575  0  1.046909  0
H  H44  1  0.31401766  0.40852084  0.06028676  1  0.062595  0  0.102726  0.099586  0  1.046886  0
H  H45  1  0.09450332  0.68598249  0.06028648  1  0.097329  0  0.102729  0.099586  0  1.046911  0
H  H46  1  0.09450341  0.40852083  0.56028697  1  0.060864  0  0.102718  0.099567  0  1.046914  0
H  H47  1  0.59147909  0.68598258  0.56028649  1  0.06259  0  0.102736  0.099591  0  1.046878  0
H  H48  1  0.31401740  0.90549687  0.56028681  1  0.097327  0  0.102711  0.099577  0  1.04692  0
H  H49  1  0.40852112  0.09450317  0.93971342  1  0.060871  0  0.102725  0.099576  0  1.046902  0
H  H50  1  0.68598251  0.59147917  0.93971329  1  0.062592  0  0.102735  0.099615  0  1.046862  0
H  H51  1  0.90549685  0.31401752  0.93971358  1  0.09733  0  0.102723  0.099551  0  1.046927  0
H  H52  1  0.15200273  0.81141662  0.57029570  1  0.07125  0  0.103708  0.101381  0  1.009506  0
H  H53  1  0.18858331  0.34058561  0.57029600  1  0.079228  0  0.103687  0.101361  0  1.009525  0
H  H54  1  0.65941387  0.84799805  0.57029598  1  0.071321  0  0.103718  0.1014  0  1.009455  0
H  H55  1  0.81141659  0.15200287  0.92970408  1  0.071243  0  0.103696  0.10136  0  1.009518  0
H  H56  1  0.34058589  0.18858305  0.92970378  1  0.079227  0  0.103704  0.101375  0  1.009494  0
H  H57  1  0.84799799  0.65941395  0.92970380  1  0.071322  0  0.103684  0.101328  0  1.009521  0
H  H58  1  0.84799743  0.18858340  0.42970435  1  0.071247  0  0.103704  0.101375  0  1.009514  0
H  H59  1  0.81141623  0.65941378  0.42970345  1  0.079211  0  0.103689  0.101361  0  1.009519  0
H  H60  1  0.34058593  0.15200233  0.42970408  1  0.071312  0  0.103703  0.101375  0  1.009488  0
H  H61  1  0.18858358  0.84799714  0.07029598  1  0.071246  0  0.103695  0.101363  0  1.009523  0
H  H62  1  0.65941428  0.81141696  0.07029627  1  0.079227  0  0.103703  0.101375  0  1.009494  0
H  H63  1  0.15200217  0.34058606  0.07029625  1  0.071321  0  0.103702  0.101378  0  1.009493  0
H  H64  1  0.97707218  0.73557400  0.53157029  1  0.043358  0  0.099538  0.102151  0  1.003596  0
H  H65  1  0.26442607  0.24149814  0.53157078  1  0.048493  0  0.09954  0.102143  0  1.003581  0
H  H66  1  0.75850273  0.02292849  0.53157058  1  0.053374  0  0.099547  0.102156  0  1.003571  0
H  H67  1  0.73557428  0.97707185  0.96843009  1  0.043358  0  0.099537  0.102143  0  1.003595  0
H  H68  1  0.24149804  0.26442616  0.96842901  1  0.048489  0  0.099536  0.102134  0  1.003583  0
H  H69  1  0.02292808  0.75850176  0.96842981  1  0.053383  0  0.099538  0.102142  0  1.003594  0
H  H70  1  0.02292799  0.26442601  0.46842976  1  0.04336  0  0.099544  0.10216  0  1.003587  0
H  H71  1  0.73557410  0.75850187  0.46842928  1  0.048489  0  0.099548  0.102158  0  1.003582  0
H  H72  1  0.24149807  0.97707215  0.46842948  1  0.053385  0  0.099552  0.10216  0  1.003593  0
H  H73  1  0.26442589  0.02292816  0.03156996  1  0.043364  0  0.099541  0.102146  0  1.003591  0
H  H74  1  0.75850212  0.73557386  0.03157105  1  0.048488  0  0.099547  0.102151  0  1.003579  0
H  H75  1  0.97707209  0.24149825  0.03157024  1  0.053389  0  0.099544  0.102153  0  1.003585  0
H  H76  1  0.91318195  0.47314053  0.36344748  1  0.151227  0  0.128317  0.100828  0  1.012529  0
H  H77  1  0.52685922  0.44004138  0.36344850  1  0.148627  0  0.128318  0.100839  0  1.012482  0
H  H78  1  0.55995834  0.08681768  0.36344811  1  0.155414  0  0.12832  0.100839  0  1.012542  0
H  H79  1  0.47314038  0.91318203  0.13655224  1  0.151231  0  0.12832  0.100834  0  1.01253  0
H  H80  1  0.44004160  0.52685898  0.13655183  1  0.148636  0  0.128326  0.100847  0  1.012484  0
H  H81  1  0.08681750  0.55995844  0.13655222  1  0.155418  0  0.128323  0.100839  0  1.012521  0
H  H82  1  0.08681785  0.52685984  0.63655257  1  0.151234  0  0.128323  0.100846  0  1.012533  0
H  H83  1  0.47314094  0.55995864  0.63655156  1  0.148629  0  0.12832  0.100842  0  1.01248  0
H  H84  1  0.44004183  0.91318233  0.63655194  1  0.155414  0  0.12832  0.100841  0  1.012543  0
H  H85  1  0.52685979  0.08681798  0.86344782  1  0.151236  0  0.128324  0.100848  0  1.012537  0
H  H86  1  0.55995856  0.47314103  0.86344822  1  0.148632  0  0.12832  0.100842  0  1.012488  0
H  H87  1  0.91318204  0.44004095  0.86344784  1  0.155414  0  0.128315  0.100826  0  1.01253  0
H  H88  1  0.10793732  0.49496289  0.35395870  1  0.52216  0  0.316658  0.2728  0  0.989808  0
H  H89  1  0.50503716  0.61297420  0.35395826  1  0.514808  0  0.316662  0.27279  0  0.98976  0
H  H90  1  0.38702589  0.89206273  0.35395863  1  0.521643  0  0.316664  0.272788  0  0.989821  0
H  H91  1  0.49496314  0.10793713  0.14604102  1  0.522159  0  0.316654  0.272802  0  0.989811  0
H  H92  1  0.61297444  0.50503694  0.14604146  1  0.51509  0  0.316657  0.272776  0  0.98977  0
H  H93  1  0.89206301  0.38702569  0.14604169  1  0.521644  0  0.316666  0.272807  0  0.989813  0
H  H94  1  0.89206284  0.50503712  0.64604135  1  0.522157  0  0.316656  0.272774  0  0.989834  0
H  H95  1  0.49496300  0.38702582  0.64604119  1  0.515094  0  0.316653  0.272784  0  0.98976  0
H  H96  1  0.61297428  0.10793729  0.64604142  1  0.521641  0  0.31666  0.27278  0  0.98983  0
H  H97  1  0.50503702  0.89206288  0.85395904  1  0.522158  0  0.316656  0.272787  0  0.98982  0
H  H98  1  0.38702572  0.49496307  0.85395859  1  0.515092  0  0.31665  0.272779  0  0.989766  0
H  H99  1  0.10793715  0.61297432  0.85395836  1  0.521644  0  0.316661  0.272798  0  0.989823  0
C  C100  1  0.98680264  0.37334005  0.29532204  1  0.313404  0  -0.044959  -0.052663  0  3.879207  0
C  C101  1  0.62665942  0.61346206  0.29532231  1  0.332557  0  -0.044977  -0.052717  0  3.879407  0
C  C102  1  0.38653773  0.01319720  0.29532191  1  0.344649  0  -0.044979  -0.052763  0  3.879426  0
C  C103  1  0.37334024  0.98680234  0.20467767  1  0.340438  0  -0.044957  -0.052643  0  3.879359  0
C  C104  1  0.61346230  0.62665918  0.20467802  1  0.306321  0  -0.044964  -0.052713  0  3.879382  0
C  C105  1  0.01319739  0.38653748  0.20467782  1  0.371684  0  -0.04495  -0.052635  0  3.879268  0
C  C106  1  0.01319753  0.62665996  0.70467801  1  0.313395  0  -0.044956  -0.05268  0  3.879316  0
C  C107  1  0.37334074  0.38653795  0.70467775  1  0.332565  0  -0.044962  -0.052688  0  3.879352  0
C  C108  1  0.61346244  0.98680281  0.70467754  1  0.371679  0  -0.044983  -0.052766  0  3.879409  0
C  C109  1  0.62665992  0.01319767  0.79532177  1  0.313407  0  -0.044935  -0.052628  0  3.879311  0
C  C110  1  0.38653787  0.37334083  0.79532203  1  0.306322  0  -0.044959  -0.052685  0  3.879344  0
C  C111  1  0.98680278  0.61346253  0.79532224  1  0.371677  0  -0.044955  -0.052659  0  3.879277  0
C  C112  1  0.03845706  0.58930605  0.42493514  1  -0.010143  0  -0.034089  -0.09828  0  4.017999  0
C  C113  1  0.41069388  0.44915118  0.42493544  1  -0.021744  0  -0.034039  -0.098171  0  4.017994  0
C  C114  1  0.55084880  0.96154322  0.42493522  1  0.03161  0  -0.034082  -0.098276  0  4.018022  0
C  C115  1  0.58930596  0.03845725  0.07506519  1  -0.010141  0  -0.034086  -0.098282  0  4.017994  0
C  C116  1  0.44915105  0.41069401  0.07506489  1  -0.02173  0  -0.0341  -0.098324  0  4.017972  0
C  C117  1  0.96154314  0.55084895  0.07506450  1  0.031294  0  -0.034104  -0.098279  0  4.017993  0
C  C118  1  0.96154274  0.41069433  0.57506491  1  -0.010138  0  -0.034086  -0.098281  0  4.01801  0
C  C119  1  0.58930629  0.55084883  0.57506462  1  -0.021735  0  -0.034071  -0.098217  0  4.017938  0
C  C120  1  0.44915137  0.03845679  0.57506483  1  0.031279  0  -0.03408  -0.098283  0  4.018017  0
C  C121  1  0.41069421  0.96154276  0.92493487  1  -0.009197  0  -0.034086  -0.09829  0  4.018015  0
C  C122  1  0.55084911  0.58930600  0.92493516  1  -0.021742  0  -0.034069  -0.098206  0  4.017943  0
C  C123  1  0.03845703  0.44915107  0.92493495  1  0.031611  0  -0.034041  -0.098205  0  4.017944  0
C  C124  1  0.14013394  0.63450680  0.44470217  1  0.688931  0  0.10698  0.363228  0  4.079857  0
C  C125  1  0.36549354  0.50562739  0.44470237  1  0.690599  0  0.106955  0.363205  0  4.07988  0
C  C126  1  0.49437265  0.85986588  0.44470285  1  0.695173  0  0.106982  0.363238  0  4.079852  0
C  C127  1  0.63450670  0.14013412  0.05529756  1  0.688934  0  0.10698  0.363254  0  4.079842  0
C  C128  1  0.50562763  0.36549332  0.05529735  1  0.690553  0  0.106992  0.363264  0  4.079816  0
C  C129  1  0.85986615  0.49437244  0.05529748  1  0.695163  0  0.106984  0.363272  0  4.079852  0
C  C130  1  0.85986586  0.36549358  0.55529728  1  0.688934  0  0.106956  0.363216  0  4.079863  0
C  C131  1  0.63450663  0.49437262  0.55529769  1  0.690555  0  0.106976  0.36322  0  4.079861  0
C  C132  1  0.50562752  0.14013414  0.55529721  1  0.695173  0  0.106959  0.363234  0  4.079862  0
C  C133  1  0.36549346  0.85986589  0.94470250  1  0.688931  0  0.106999  0.363264  0  4.079823  0
C  C134  1  0.49437253  0.63450669  0.94470210  1  0.690563  0  0.106982  0.363212  0  4.079876  0
C  C135  1  0.14013401  0.50562757  0.94470257  1  0.695162  0  0.106959  0.363208  0  4.07988  0
C  C136  1  0.17816384  0.71460743  0.49884671  1  -0.033881  0  -0.105381  -0.227347  0  3.945574  0
C  C137  1  0.28539272  0.46355658  0.49884692  1  -0.005132  0  -0.105418  -0.227408  0  3.945575  0
C  C138  1  0.53644327  0.82183634  0.49884686  1  -0.124666  0  -0.105391  -0.22737  0  3.945583  0
C  C139  1  0.71460735  0.17816402  0.00115301  1  -0.033881  0  -0.105434  -0.227455  0  3.945529  0
C  C140  1  0.46355646  0.28539287  0.00115341  1  -0.005087  0  -0.105391  -0.227339  0  3.945522  0
C  C141  1  0.82183625  0.53644342  0.00115286  1  -0.124652  0  -0.105386  -0.227368  0  3.945561  0
C  C142  1  0.82183633  0.28539258  0.50115334  1  -0.033881  0  -0.105375  -0.227336  0  3.945552  0
C  C143  1  0.71460745  0.53644344  0.50115313  1  -0.005089  0  -0.10541  -0.227391  0  3.945567  0
C  C144  1  0.46355689  0.17816367  0.50115320  1  -0.124651  0  -0.105392  -0.227378  0  3.945555  0
C  C145  1  0.28539282  0.82183599  0.99884705  1  -0.033881  0  -0.105434  -0.227453  0  3.945526  0
C  C146  1  0.53644371  0.71460714  0.99884665  1  -0.005073  0  -0.105391  -0.22734  0  3.945528  0
C  C147  1  0.17816391  0.46355659  0.99884659  1  -0.12465  0  -0.105387  -0.227359  0  3.945566  0
C  C148  1  0.98156514  0.62713510  0.45702186  1  -0.015378  0  -0.080759  -0.078037  0  3.989265  0
C  C149  1  0.37286501  0.35443015  0.45702227  1  0.025173  0  -0.080774  -0.078087  0  3.989287  0
C  C150  1  0.64557010  0.01843484  0.45702202  1  -0.07154  0  -0.080745  -0.078029  0  3.989282  0
C  C151  1  0.62713496  0.98156523  0.04297786  1  -0.015371  0  -0.08075  -0.078031  0  3.989247  0
C  C152  1  0.35443038  0.37286478  0.04297806  1  0.025155  0  -0.080765  -0.078043  0  3.989266  0
C  C153  1  0.01843465  0.64557019  0.04297771  1  -0.071538  0  -0.080776  -0.078095  0  3.989248  0
C  C154  1  0.01843502  0.37286491  0.54297820  1  -0.015376  0  -0.080757  -0.078031  0  3.989266  0
C  C155  1  0.62713516  0.64556986  0.54297778  1  0.02517  0  -0.080781  -0.078085  0  3.989269  0
C  C156  1  0.35443007  0.98156517  0.54297804  1  -0.07154  0  -0.080744  -0.078026  0  3.989275  0
C  C157  1  0.37286520  0.01843478  0.95702219  1  -0.015647  0  -0.080739  -0.078005  0  3.989252  0
C  C158  1  0.64556979  0.62713523  0.95702200  1  0.025198  0  -0.080783  -0.078129  0  3.989274  0
C  C159  1  0.98156551  0.35442983  0.95702174  1  -0.071596  0  -0.080762  -0.078022  0  3.989276  0
C  C160  1  0.12036973  0.74981840  0.52870053  1  -0.081375  0  -0.081248  -0.036353  0  4.017229  0
C  C161  1  0.25018183  0.37055116  0.52870143  1  -0.115595  0  -0.081214  -0.036321  0  4.017237  0
C  C162  1  0.62944867  0.87963040  0.52870074  1  -0.036496  0  -0.081257  -0.036355  0  4.017182  0
C  C163  1  0.74981873  0.12036950  0.97129926  1  -0.081376  0  -0.081197  -0.036276  0  4.017118  0
C  C164  1  0.37055107  0.25018193  0.97129835  1  -0.11559  0  -0.081231  -0.036329  0  4.017208  0
C  C165  1  0.87963071  0.62944839  0.97129903  1  -0.036499  0  -0.081234  -0.036326  0  4.017293  0
C  C166  1  0.87963044  0.25018161  0.47129892  1  -0.081383  0  -0.081256  -0.036367  0  4.017236  0
C  C167  1  0.74981797  0.62944922  0.47129863  1  -0.115541  0  -0.081212  -0.036313  0  4.017181  0
C  C168  1  0.37055087  0.12036899  0.47129931  1  -0.036491  0  -0.081234  -0.03633  0  4.01721  0
C  C169  1  0.25018143  0.87963051  0.02870080  1  -0.081373  0  -0.081194  -0.036287  0  4.017105  0
C  C170  1  0.62944909  0.74981808  0.02870170  1  -0.115589  0  -0.081238  -0.036339  0  4.017179  0
C  C171  1  0.12036883  0.37055099  0.02870102  1  -0.036488  0  -0.081233  -0.036358  0  4.017207  0
C  C172  1  0.02148109  0.70687607  0.50762857  1  0.018996  0  -0.113854  -0.139421  0  4.061018  0
C  C173  1  0.29312396  0.31460575  0.50762896  1  -0.012045  0  -0.113847  -0.139399  0  4.061057  0
C  C174  1  0.68539479  0.97851852  0.50762880  1  -0.002449  0  -0.113862  -0.139438  0  4.061009  0
C  C175  1  0.70687604  0.02148123  0.99237121  1  0.018992  0  -0.113845  -0.139394  0  4.061004  0
C  C176  1  0.31460566  0.29312405  0.99237082  1  -0.012022  0  -0.113831  -0.139387  0  4.06105  0
C  C177  1  0.97851848  0.68539488  0.99237098  1  -0.002471  0  -0.113834  -0.139358  0  4.061034  0
C  C178  1  0.97851871  0.29312431  0.49237148  1  0.019003  0  -0.11385  -0.139418  0  4.061017  0
C  C179  1  0.70687585  0.68539462  0.49237110  1  -0.012084  0  -0.113865  -0.139432  0  4.061051  0
C  C180  1  0.31460537  0.02148149  0.49237126  1  -0.002462  0  -0.113866  -0.139437  0  4.061059  0
C  C181  1  0.29312413  0.97851878  0.00762824  1  0.018995  0  -0.113855  -0.139401  0  4.061019  0
C  C182  1  0.68539450  0.70687596  0.00762862  1  -0.012075  0  -0.113838  -0.139382  0  4.061034  0
C  C183  1  0.02148132  0.31460550  0.00762847  1  -0.002424  0  -0.11386  -0.139414  0  4.061058  0
C  C184  1  0.99090824  0.50543877  0.37513647  1  0.542433  0  0.103413  0.136808  0  3.841826  0
C  C185  1  0.49456106  0.48546961  0.37513681  1  0.535825  0  0.103375  0.136724  0  3.841825  0
C  C186  1  0.51453122  0.00909146  0.37513649  1  0.532602  0  0.103368  0.136717  0  3.84196  0
C  C187  1  0.50543861  0.99090831  0.12486325  1  0.542427  0  0.103425  0.136826  0  3.841811  0
C  C188  1  0.48546984  0.49456083  0.12486352  1  0.535824  0  0.103354  0.13673  0  3.841808  0
C  C189  1  0.00909164  0.51453095  0.12486324  1  0.53291  0  0.103413  0.136796  0  3.841786  0
C  C190  1  0.00909130  0.49456062  0.62486358  1  0.542373  0  0.103355  0.136709  0  3.841948  0
C  C191  1  0.50543910  0.51453040  0.62486325  1  0.535825  0  0.103374  0.136726  0  3.841826  0
C  C192  1  0.48546895  0.99090855  0.62486357  1  0.532903  0  0.103362  0.136708  0  3.841971  0
C  C193  1  0.49456093  0.00909107  0.87513620  1  0.541705  0  0.103352  0.136703  0  3.841964  0
C  C194  1  0.51453032  0.50543918  0.87513653  1  0.535821  0  0.103372  0.136722  0  3.841827  0
C  C195  1  0.99090852  0.48546906  0.87513682  1  0.532615  0  0.103374  0.136765  0  3.841841  0
N  N196  1  0.03454660  0.46276814  0.34174787  1  -1.248278  0  -0.372541  -0.166062  0  3.612043  0
N  N197  1  0.53723194  0.57177831  0.34174809  1  -1.230447  0  -0.37251  -0.165975  0  3.612029  0
N  N198  1  0.42822182  0.96545338  0.34174780  1  -1.245076  0  -0.372486  -0.165915  0  3.612091  0
N  N199  1  0.46276803  0.03454678  0.15825186  1  -1.248288  0  -0.372568  -0.166122  0  3.612058  0
N  N200  1  0.57177855  0.53723171  0.15825224  1  -1.230738  0  -0.372482  -0.16593  0  3.612002  0
N  N201  1  0.96545331  0.42822198  0.15825192  1  -1.245077  0  -0.372563  -0.166106  0  3.612061  0
N  N202  1  0.96545294  0.53723125  0.65825219  1  -1.248268  0  -0.372493  -0.165955  0  3.612051  0
N  N203  1  0.46276822  0.42822170  0.65825196  1  -1.230736  0  -0.372508  -0.165983  0  3.612027  0
N  N204  1  0.57177835  0.03454663  0.65825164  1  -1.245081  0  -0.372491  -0.165925  0  3.612105  0
N  N205  1  0.53723177  0.96545359  0.84174820  1  -1.248288  0  -0.372501  -0.165971  0  3.612056  0
N  N206  1  0.42822162  0.46276830  0.84174782  1  -1.230736  0  -0.372508  -0.165981  0  3.612027  0
N  N207  1  0.03454649  0.57177839  0.84174753  1  -1.245081  0  -0.372554  -0.166088  0  3.61205  0
N  N208  1  0.27866630  0.48810822  0.23970705  1  0.842535  0  0.086487  0.732516  0  4.40872  0
N  N209  1  0.51189183  0.79055828  0.23970701  1  0.830728  0  0.086476  0.732507  0  4.40874  0
N  N210  1  0.20944175  0.72133382  0.23970687  1  0.836316  0  0.08645  0.732419  0  4.408826  0
N  N211  1  0.48810810  0.27866645  0.26029328  1  0.842537  0  0.086451  0.732441  0  4.408807  0
N  N212  1  0.79055818  0.51189197  0.26029332  1  0.830728  0  0.086437  0.732386  0  4.408875  0
N  N213  1  0.72133373  0.20944193  0.26029346  1  0.836309  0  0.086461  0.732463  0  4.408797  0
N  N214  1  0.72133387  0.51189179  0.76029301  1  0.842534  0  0.08647  0.732482  0  4.408804  0
N  N215  1  0.48810798  0.20944209  0.76029305  1  0.830365  0  0.086448  0.732423  0  4.408832  0
N  N216  1  0.79055841  0.27866620  0.76029318  1  0.836323  0  0.086462  0.732467  0  4.408759  0
N  N217  1  0.51189206  0.72133356  0.73970677  1  0.842543  0  0.086459  0.73246  0  4.408783  0
N  N218  1  0.20944162  0.48810840  0.73970673  1  0.830372  0  0.08645  0.732436  0  4.408834  0
N  N219  1  0.27866607  0.79055845  0.73970660  1  0.836323  0  0.086462  0.732467  0  4.408758  0
O  O220  1  0.19446138  0.60216242  0.41393374  1  -1.192753  0  -0.429469  -0.65567  0  2.3469  0
O  O221  1  0.39783777  0.59229874  0.41393386  1  -1.193882  0  -0.429477  -0.655677  0  2.346852  0
O  O222  1  0.40770130  0.80553858  0.41393375  1  -1.195814  0  -0.429479  -0.655684  0  2.34689  0
O  O223  1  0.60216170  0.19446092  0.08606598  1  -1.192758  0  -0.429475  -0.655675  0  2.346892  0
O  O224  1  0.59229899  0.39783756  0.08606647  1  -1.193935  0  -0.429467  -0.655675  0  2.346915  0
O  O225  1  0.80553885  0.40770109  0.08606597  1  -1.19582  0  -0.429457  -0.655661  0  2.346901  0
O  O226  1  0.80553879  0.39783759  0.58606631  1  -1.192758  0  -0.429456  -0.655653  0  2.3469  0
O  O227  1  0.60216239  0.40770128  0.58606619  1  -1.193883  0  -0.429469  -0.655667  0  2.346912  0
O  O228  1  0.59229887  0.19446143  0.58606631  1  -1.19582  0  -0.429458  -0.655656  0  2.346902  0
O  O229  1  0.39783748  0.80553882  0.91393347  1  -1.192755  0  -0.429508  -0.655688  0  2.346915  0
O  O230  1  0.40770118  0.60216246  0.91393359  1  -1.193942  0  -0.429472  -0.655667  0  2.346922  0
O  O231  1  0.19446131  0.59229892  0.91393408  1  -1.195821  0  -0.429458  -0.655648  0  2.346915  0
O  O232  1  0.22973828  0.48753637  0.30202096  1  -0.590073  0  -0.236292  -0.516592  0  2.0479  0
O  O233  1  0.51246240  0.74220145  0.30202097  1  -0.591192  0  -0.236295  -0.516587  0  2.047935  0
O  O234  1  0.25779864  0.77026179  0.30202081  1  -0.585159  0  -0.236273  -0.51655  0  2.047942  0
O  O235  1  0.48753626  0.22973844  0.19797877  1  -0.590068  0  -0.236291  -0.516567  0  2.04791  0
O  O236  1  0.74220135  0.51246254  0.19797936  1  -0.59115  0  -0.236259  -0.516522  0  2.04796  0
O  O237  1  0.77026170  0.25779881  0.19797891  1  -0.585166  0  -0.236276  -0.516557  0  2.047917  0
O  O238  1  0.77026189  0.51246364  0.69797910  1  -0.590076  0  -0.236296  -0.516581  0  2.047901  0
O  O239  1  0.48753740  0.25779892  0.69797908  1  -0.59081  0  -0.236278  -0.516555  0  2.047949  0
O  O240  1  0.74220090  0.22973759  0.69797925  1  -0.585166  0  -0.236279  -0.516567  0  2.047926  0
O  O241  1  0.51246355  0.77026194  0.80202129  1  -0.590077  0  -0.236301  -0.516586  0  2.047905  0
O  O242  1  0.25779882  0.48753747  0.80202131  1  -0.590841  0  -0.236275  -0.516547  0  2.047931  0
O  O243  1  0.22973783  0.74220057  0.80202114  1  -0.585171  0  -0.236285  -0.516568  0  2.047911  0
O  O244  1  0.35550657  0.56951182  0.22354064  1  -0.582479  0  -0.245346  -0.533253  0  2.010369  0
O  O245  1  0.43048858  0.78599648  0.22353995  1  -0.588601  0  -0.245349  -0.533274  0  2.010394  0
O  O246  1  0.21400560  0.64449366  0.22353991  1  -0.589041  0  -0.245357  -0.533229  0  2.010382  0
O  O247  1  0.56951171  0.35550672  0.27645969  1  -0.582482  0  -0.245341  -0.533234  0  2.010401  0
O  O248  1  0.78599575  0.43048810  0.27645977  1  -0.588607  0  -0.245345  -0.533223  0  2.010391  0
O  O249  1  0.64449392  0.21400540  0.27646043  1  -0.58904  0  -0.245353  -0.533246  0  2.010386  0
O  O250  1  0.64449359  0.43048819  0.77645942  1  -0.582475  0  -0.245343  -0.533244  0  2.010413  0
O  O251  1  0.56951123  0.21400390  0.77645950  1  -0.588586  0  -0.245345  -0.533233  0  2.010397  0
O  O252  1  0.78599457  0.35550636  0.77646015  1  -0.589038  0  -0.245349  -0.533236  0  2.010365  0
O  O253  1  0.43048846  0.64449329  0.72354036  1  -0.582476  0  -0.245334  -0.533226  0  2.010391  0
O  O254  1  0.21400378  0.56951128  0.72354028  1  -0.5886  0  -0.245344  -0.533247  0  2.010419  0
O  O255  1  0.35550624  0.78599461  0.72353963  1  -0.589036  0  -0.245348  -0.533238  0  2.010375  0
O  O256  1  0.25351863  0.41515377  0.19750356  1  -0.490897  0  -0.151772  -0.382903  0  1.92755  0
O  O257  1  0.58484659  0.83836410  0.19750350  1  -0.471996  0  -0.15175  -0.382882  0  1.927524  0
O  O258  1  0.16163596  0.74648240  0.19750331  1  -0.483089  0  -0.15175  -0.382872  0  1.92756  0
O  O259  1  0.41515401  0.25351842  0.30249677  1  -0.490901  0  -0.151745  -0.382872  0  1.927564  0
O  O260  1  0.83836436  0.58484636  0.30249682  1  -0.472003  0  -0.151755  -0.382865  0  1.927575  0
O  O261  1  0.74648232  0.16163614  0.30249641  1  -0.48308  0  -0.151755  -0.382879  0  1.927583  0
O  O262  1  0.74648153  0.58484624  0.80249650  1  -0.490899  0  -0.15176  -0.382892  0  1.927579  0
O  O263  1  0.41515358  0.16163591  0.80249655  1  -0.471997  0  -0.151748  -0.382867  0  1.927561  0
O  O264  1  0.83836421  0.25351761  0.80249674  1  -0.483096  0  -0.151757  -0.382891  0  1.927546  0
O  O265  1  0.58484616  0.74648159  0.69750328  1  -0.490904  0  -0.151748  -0.382879  0  1.92756  0
O  O266  1  0.16163580  0.41515365  0.69750323  1  -0.471997  0  -0.151748  -0.382866  0  1.927558  0
O  O267  1  0.25351784  0.83836387  0.69750304  1  -0.483088  0  -0.151746  -0.382875  0  1.927552  0
