# generated using pymatgen
data_CuH8C8N4(ClO4)2
_symmetry_space_group_name_H-M   'P 1'
_cell_length_a   8.49951089
_cell_length_b   8.49949197
_cell_length_c   9.82064658
_cell_angle_alpha   84.40134746
_cell_angle_beta   84.40122731
_cell_angle_gamma   69.40817074
_symmetry_Int_Tables_number   1
_chemical_formula_structural   CuH8C8N4(ClO4)2
_chemical_formula_sum   'Cu2 H16 C16 N8 Cl4 O16'
_cell_volume   659.43790347
_cell_formula_units_Z   2
loop_
 _symmetry_equiv_pos_site_id
 _symmetry_equiv_pos_as_xyz
  1  'x, y, z'
loop_
 _atom_site_type_symbol
 _atom_site_label
 _atom_site_symmetry_multiplicity
 _atom_site_fract_x
 _atom_site_fract_y
 _atom_site_fract_z
 _atom_site_occupancy
 _atom_site_hle17_ddec_charge
 _atom_site_hle17_ddec_spin_density
 _atom_site_hle17_ddec_sum_bond_order
 _atom_site_hle17_magmom
 _atom_site_hse06_10hf_ddec_charge
 _atom_site_hse06_10hf_ddec_spin_density
 _atom_site_hse06_10hf_ddec_sum_bond_order
 _atom_site_hse06_10hf_magmom
 _atom_site_hse06_ddec_charge
 _atom_site_hse06_ddec_spin_density
 _atom_site_hse06_ddec_sum_bond_order
 _atom_site_hse06_magmom
 _atom_site_pbe_cm5_charge
 _atom_site_pbe_ddec_charge
 _atom_site_pbe_ddec_spin_density
 _atom_site_pbe_ddec_sum_bond_order
 _atom_site_pbe_magmom
Cu  Cu0  1  0.74995698  0.25004513  0.74999985  1  0.759566  0.688772  1.796224  0.471  0.70872  0.77315  2.173498  0.589  0.791911  0.868767  2.120707  0.681  0.768658  0.663066  0.697218  2.208018  0.524
Cu  Cu1  1  0.25005541  0.74994448  0.25000034  1  0.75978  -0.688971  1.797527  -0.471  0.709081  -0.773245  2.174682  -0.589  0.791978  -0.868804  2.122173  -0.681  0.769007  0.66347  -0.697303  2.209147  -0.524
H  H2  1  0.82189106  0.89792186  0.87942174  1  0.123786  0.000732  0.952567  0.001  0.124843  0.000457  1.018159  0.001  0.126247  0.000347  1.01706  0.001  0.127922  0.123488  0.000499  1.01935  0.001
H  H3  1  0.10208090  0.17810982  0.62057755  1  0.123739  0.000732  0.952619  0.001  0.124798  0.000457  1.018205  0.001  0.126202  0.000347  1.017105  0.001  0.127913  0.12346  0.000499  1.019378  0.001
H  H4  1  0.17812791  0.10208280  0.12060415  1  0.123701  -0.000729  0.952571  -0.001  0.124777  -0.000455  1.018154  -0.001  0.12618  -0.000345  1.017058  -0.001  0.127891  0.123425  -0.000496  1.019348  -0.001
H  H5  1  0.89791919  0.82187105  0.37939892  1  0.123688  -0.000729  0.952562  -0.001  0.124763  -0.000455  1.018146  -0.001  0.126169  -0.000345  1.017042  -0.001  0.127863  0.123409  -0.000496  1.019343  -0.001
H  H6  1  0.00605238  0.28082502  0.93467712  1  0.113559  0.000774  0.965692  0.002  0.113501  0.000488  1.035805  0.001  0.114574  0.000363  1.034504  0.001  0.126189  0.112468  0.000564  1.037087  0.001
H  H7  1  0.71917646  0.99394865  0.56532450  1  0.113543  0.000774  0.965689  0.002  0.113456  0.000487  1.035828  0.001  0.11453  0.000363  1.034526  0.001  0.126174  0.112423  0.000564  1.037108  0.001
H  H8  1  0.99395615  0.71914819  0.06534307  1  0.113651  -0.000771  0.965182  -0.002  0.113428  -0.000486  1.035628  -0.001  0.114517  -0.000361  1.0343  -0.001  0.126164  0.112389  -0.000561  1.036914  -0.001
H  H9  1  0.28085284  0.00604347  0.43465779  1  0.113677  -0.000771  0.965152  -0.002  0.113442  -0.000486  1.035604  -0.001  0.114528  -0.000362  1.034285  -0.001  0.12616  0.112405  -0.000561  1.036891  -0.001
H  H10  1  0.39086283  0.34043418  0.86487981  1  0.116335  0.000676  0.956397  0.001  0.113942  0.000415  1.028608  0.001  0.115467  0.000308  1.027493  0.001  0.126197  0.112456  0.000462  1.029901  0.001
H  H11  1  0.65956393  0.60914172  0.63511740  1  0.116327  0.000673  0.9564  0.001  0.113946  0.000415  1.028622  0.001  0.115476  0.000308  1.027495  0.001  0.126169  0.112458  0.000462  1.029914  0.001
H  H12  1  0.60914174  0.65957808  0.13513238  1  0.116239  -0.000671  0.956202  -0.001  0.113849  -0.000413  1.028472  -0.001  0.115384  -0.000306  1.027335  -0.001  0.126122  0.112352  -0.000459  1.02978  -0.001
H  H13  1  0.34042223  0.39085552  0.36486803  1  0.116237  -0.000671  0.956175  -0.001  0.113843  -0.000413  1.028449  -0.001  0.115371  -0.000306  1.02733  -0.001  0.126119  0.112353  -0.000459  1.029743  -0.001
H  H14  1  0.78782340  0.49187478  0.94872427  1  0.106904  0.00062  0.967768  0.001  0.107585  0.000398  1.03885  0.001  0.108756  0.000291  1.037594  0.001  0.12617  0.106406  0.000468  1.040207  0.001
H  H15  1  0.50812523  0.21217619  0.55127702  1  0.106906  0.00062  0.967758  0.001  0.107592  0.000397  1.03884  0.001  0.108763  0.000291  1.037583  0.001  0.126182  0.106413  0.000468  1.040198  0.001
H  H16  1  0.21215852  0.50813125  0.05127606  1  0.106792  -0.000617  0.967657  -0.001  0.107541  -0.000395  1.038698  -0.001  0.108709  -0.000289  1.037441  -0.001  0.126149  0.106364  -0.000465  1.040061  -0.001
H  H17  1  0.49186935  0.78784116  0.44871929  1  0.106799  -0.000618  0.967636  -0.001  0.107545  -0.000395  1.038676  -0.001  0.108714  -0.000289  1.037421  -0.001  0.126138  0.106368  -0.000465  1.040034  -0.001
C  C18  1  0.90211106  0.94364136  0.93240175  1  0.110711  -0.021016  3.579232  -0.021  0.081709  -0.00565  3.83437  -0.007  0.086224  -0.006632  3.851524  -0.008  0.064716  0.078783  -0.004661  3.82378  -0.006
C  C19  1  0.05635791  0.09789114  0.56759973  1  0.110722  -0.021027  3.579335  -0.021  0.081735  -0.005646  3.83445  -0.007  0.086253  -0.006635  3.851602  -0.008  0.064737  0.078801  -0.004661  3.823851  -0.006
C  C20  1  0.09788621  0.05636462  0.06761056  1  0.11094  0.021032  3.579063  0.021  0.081863  0.005653  3.834092  0.007  0.086387  0.006636  3.851218  0.008  0.064754  0.078926  0.004665  3.823501  0.006
C  C21  1  0.94363672  0.90211237  0.43238958  1  0.110968  0.021043  3.579023  0.021  0.081899  0.005653  3.834035  0.007  0.086422  0.006635  3.851168  0.008  0.064774  0.078962  0.004665  3.823439  0.006
C  C22  1  0.00042677  0.15641753  0.96418412  1  0.102308  -0.020023  3.614511  -0.02  0.073626  -0.005038  3.8731  -0.006  0.078779  -0.006135  3.890369  -0.008  0.062059  0.069993  -0.003958  3.86233  -0.005
C  C23  1  0.84358551  0.99957203  0.53581845  1  0.102239  -0.020036  3.614487  -0.02  0.073577  -0.005039  3.873103  -0.006  0.07873  -0.006134  3.890376  -0.008  0.062018  0.069947  -0.003958  3.86233  -0.005
C  C24  1  0.99956620  0.84358720  0.03582966  1  0.102312  0.020038  3.613191  0.02  0.073565  0.005045  3.871912  0.006  0.078712  0.006139  3.889183  0.008  0.061927  0.069935  0.003963  3.861133  0.005
C  C25  1  0.15641298  0.00043399  0.46417134  1  0.102255  0.020048  3.613133  0.02  0.073517  0.005043  3.871842  0.006  0.078666  0.006143  3.889104  0.008  0.061896  0.069876  0.003963  3.861081  0.005
C  C26  1  0.44074772  0.41196726  0.92405310  1  0.120563  -0.020598  3.578862  -0.021  0.095339  -0.005755  3.830984  -0.007  0.100347  -0.00671  3.847326  -0.008  0.070106  0.092002  -0.00475  3.82111  -0.006
C  C27  1  0.58803384  0.55925276  0.57594321  1  0.120647  -0.020599  3.57884  -0.021  0.095342  -0.005756  3.83103  -0.007  0.100351  -0.00671  3.847374  -0.008  0.070152  0.092008  -0.004751  3.821152  -0.006
C  C28  1  0.55926491  0.58801480  0.07594362  1  0.120921  0.020607  3.57766  0.021  0.095586  0.005761  3.829932  0.007  0.100607  0.006714  3.846265  0.008  0.070253  0.092247  0.004755  3.820043  0.006
C  C29  1  0.41198414  0.44073432  0.42405774  1  0.120813  0.020616  3.577775  0.021  0.095516  0.005762  3.829996  0.007  0.100531  0.006712  3.846327  0.008  0.070219  0.092183  0.004755  3.820114  0.006
C  C30  1  0.65969706  0.49322431  0.97124364  1  0.107023  -0.019167  3.591837  -0.019  0.079787  -0.004591  3.84519  -0.006  0.084746  -0.005704  3.862288  -0.007  0.067387  0.076266  -0.00355  3.834675  -0.005
C  C31  1  0.50677295  0.34030294  0.52875696  1  0.107082  -0.019178  3.591833  -0.019  0.079802  -0.00459  3.84518  -0.006  0.084768  -0.005705  3.862271  -0.007  0.067378  0.076282  -0.00355  3.834666  -0.005
C  C32  1  0.34031277  0.50675902  0.02875321  1  0.107296  0.019185  3.590723  0.019  0.079915  0.004595  3.844239  0.006  0.084898  0.005707  3.8613  0.007  0.067361  0.076375  0.003554  3.833739  0.005
C  C33  1  0.49324180  0.65968667  0.47124303  1  0.107249  0.019193  3.590815  0.019  0.079893  0.004596  3.844331  0.006  0.084876  0.005708  3.861391  0.007  0.067383  0.07636  0.003555  3.83383  0.005
N  N34  1  0.90237937  0.10021675  0.89736760  1  -0.231272  0.093936  3.275503  0.114  -0.189221  0.062591  3.564123  0.082  -0.216115  0.05434  3.588345  0.074  -0.314548  -0.173912  0.064848  3.550134  0.083
N  N35  1  0.89978491  0.09762136  0.60263296  1  -0.231191  0.093944  3.275563  0.114  -0.189164  0.062589  3.564192  0.082  -0.21606  0.05434  3.588418  0.074  -0.314527  -0.173856  0.064846  3.550204  0.083
N  N36  1  0.09766314  0.89974001  0.10267049  1  -0.23161  -0.09393  3.27472  -0.114  -0.189368  -0.062587  3.563162  -0.082  -0.216214  -0.054342  3.587367  -0.074  -0.31436  -0.17405  -0.064845  3.549165  -0.083
N  N37  1  0.10025967  0.90233678  0.39732949  1  -0.231573  -0.093938  3.274666  -0.114  -0.18932  -0.062586  3.563073  -0.082  -0.216167  -0.054343  3.587279  -0.074  -0.314316  -0.173998  -0.064845  3.549079  -0.083
N  N38  1  0.60078500  0.40497108  0.89614742  1  -0.237543  0.089863  3.283735  0.109  -0.196149  0.06066  3.573391  0.08  -0.222317  0.052843  3.596999  0.072  -0.313322  -0.181321  0.063016  3.559919  0.08
N  N39  1  0.59502988  0.39921641  0.60385171  1  -0.237607  0.089869  3.283691  0.109  -0.196147  0.06066  3.573339  0.08  -0.222316  0.052844  3.596945  0.072  -0.313341  -0.181318  0.063016  3.559867  0.08
N  N40  1  0.39918035  0.59505884  0.10388286  1  -0.237883  -0.089847  3.282274  -0.109  -0.196541  -0.060651  3.57212  -0.08  -0.222666  -0.052841  3.595686  -0.072  -0.313488  -0.181697  -0.063006  3.558647  -0.08
N  N41  1  0.40494094  0.60081865  0.39611863  1  -0.237818  -0.089856  3.282328  -0.109  -0.196468  -0.060653  3.572128  -0.08  -0.222592  -0.052841  3.595697  -0.072  -0.313468  -0.181638  -0.063007  3.558665  -0.08
Cl  Cl42  1  0.44437298  0.00804226  0.77877234  1  1.398742  -0.000237  6.194292  0.0  1.33887  -0.000255  6.754088  0.0  1.392782  -0.000205  6.728108  0.0  0.727947  1.301895  -0.000274  6.769984  0.0
Cl  Cl43  1  0.99195471  0.55562839  0.72122892  1  1.39888  -0.000236  6.194202  0.0  1.339052  -0.000252  6.753939  0.0  1.392965  -0.000209  6.727956  0.0  0.728053  1.302079  -0.000274  6.769837  0.0
Cl  Cl44  1  0.55557070  0.99195125  0.22122812  1  1.398842  0.000239  6.193652  0.0  1.339071  0.000248  6.753288  0.0  1.392982  0.000224  6.72733  0.0  0.728056  1.302096  0.000274  6.769186  0.0
Cl  Cl45  1  0.00804815  0.44442670  0.27877072  1  1.398813  0.000237  6.193455  0.0  1.339043  0.000252  6.753112  0.0  1.392956  0.00021  6.727159  0.0  0.728076  1.302064  0.000274  6.76901  0.0
O  O46  1  0.58932167  0.06120639  0.79326643  1  -0.599822  -0.001318  1.965152  0.0  -0.576327  -0.00114  2.251857  0.0  -0.594798  -0.001208  2.234096  0.0  -0.327644  -0.563723  -0.001106  2.263918  0.0
O  O47  1  0.93879293  0.41067791  0.70673469  1  -0.599855  -0.001325  1.965136  0.0  -0.57636  -0.001145  2.25183  0.0  -0.594836  -0.001199  2.234082  0.0  -0.327648  -0.56376  -0.001106  2.263896  0.0
O  O48  1  0.41066727  0.93876180  0.20677209  1  -0.59947  0.001333  1.965971  0.0  -0.57606  0.001157  2.252687  0.0  -0.594474  0.001184  2.234858  0.0  -0.327445  -0.563456  0.001107  2.264741  0.0
O  O49  1  0.06123711  0.58932935  0.29323102  1  -0.599372  0.001325  1.965864  0.0  -0.576032  0.001145  2.25268  0.0  -0.594424  0.001198  2.234795  0.0  -0.327426  -0.563428  0.001107  2.264735  0.0
O  O50  1  0.45781889  0.95287529  0.64060048  1  -0.550377  9e-05  1.896589  0.0  -0.516528  3.6e-05  2.146235  0.0  -0.532825  2.5e-05  2.133468  0.0  -0.309363  -0.504725  5.6e-05  2.154429  0.0
O  O51  1  0.04712340  0.54218110  0.85940168  1  -0.550434  8e-05  1.896596  0.0  -0.516592  2.9e-05  2.146234  0.0  -0.532887  3.5e-05  2.133461  0.0  -0.309392  -0.504788  5.6e-05  2.154429  0.0
O  O52  1  0.54216885  0.04710677  0.35942375  1  -0.550471  -8.1e-05  1.895754  0.0  -0.516634  -3.3e-05  2.145348  0.0  -0.532936  -3.6e-05  2.132573  0.0  -0.309448  -0.50484  -5.5e-05  2.153567  0.0
O  O53  1  0.95289348  0.45782995  0.14057600  1  -0.550494  -8.9e-05  1.895772  0.0  -0.51664  -3.6e-05  2.145351  0.0  -0.532946  -2.2e-05  2.132575  0.0  -0.309462  -0.504841  -5.5e-05  2.153568  0.0
O  O54  1  0.29052201  0.15357100  0.79742281  1  -0.545462  -0.000212  1.891035  0.0  -0.514088  -3.4e-05  2.137998  0.0  -0.531044  -5.6e-05  2.126595  0.0  -0.306925  -0.501782  -5.5e-05  2.14516  0.0
O  O55  1  0.84642557  0.70947886  0.70257983  1  -0.545485  -0.00022  1.891106  0.0  -0.514123  -3.8e-05  2.138051  0.0  -0.531083  -4.1e-05  2.126646  0.0  -0.306935  -0.501816  -5.5e-05  2.145209  0.0
O  O56  1  0.70947296  0.84642116  0.20257453  1  -0.545715  0.000224  1.890168  0.0  -0.514398  4.5e-05  2.137113  0.0  -0.531356  4.3e-05  2.125683  0.0  -0.307077  -0.502087  5.6e-05  2.144276  0.0
O  O57  1  0.15358044  0.29052587  0.29741963  1  -0.545677  0.000212  1.890027  0.0  -0.51439  3.6e-05  2.136992  0.0  -0.531358  6e-05  2.125584  0.0  -0.307086  -0.502079  5.6e-05  2.144156  0.0
O  O58  1  0.44524341  0.87208720  0.88014770  1  -0.515351  -2e-05  1.859508  0.0  -0.491203  -8.9e-05  2.097522  0.0  -0.506776  -4.5e-05  2.086815  0.0  -0.311281  -0.479788  -0.000124  2.104265  0.0
O  O59  1  0.12790947  0.55476031  0.61985526  1  -0.515385  2e-06  1.859443  0.0  -0.491272  -7.7e-05  2.097463  0.0  -0.506844  -7.3e-05  2.086755  0.0  -0.311343  -0.479856  -0.000124  2.104209  0.0
O  O60  1  0.55468069  0.12790130  0.11986191  1  -0.515318  -8e-06  1.859783  0.0  -0.491163  7.1e-05  2.097823  0.0  -0.50671  6.9e-05  2.087039  0.0  -0.311289  -0.479741  0.000124  2.104574  0.0
O  O61  1  0.87210002  0.44530988  0.38013850  1  -0.515368  1.8e-05  1.859786  0.0  -0.491165  9.1e-05  2.097787  0.0  -0.506713  4.2e-05  2.087001  0.0  -0.311304  -0.479749  0.000124  2.10455  0.0
