# generated using pymatgen
data_Cd2H6C6IN9
_symmetry_space_group_name_H-M   'P 1'
_cell_length_a   7.83164247
_cell_length_b   10.47886527
_cell_length_c   18.83301398
_cell_angle_alpha   89.99999343
_cell_angle_beta   89.99994220
_cell_angle_gamma   90.00004027
_symmetry_Int_Tables_number   1
_chemical_formula_structural   Cd2H6C6IN9
_chemical_formula_sum   'Cd8 H24 C24 I4 N36'
_cell_volume   1545.56380176
_cell_formula_units_Z   4
loop_
 _symmetry_equiv_pos_site_id
 _symmetry_equiv_pos_as_xyz
  1  'x, y, z'
loop_
 _atom_site_type_symbol
 _atom_site_label
 _atom_site_symmetry_multiplicity
 _atom_site_fract_x
 _atom_site_fract_y
 _atom_site_fract_z
 _atom_site_occupancy
 _atom_site_hle17_bader_spin_density
 _atom_site_hle17_ddec_charge
 _atom_site_hle17_ddec_spin_density
 _atom_site_hle17_ddec_sum_bond_order
 _atom_site_hle17_magmom
 _atom_site_hse06_10hf_bader_spin_density
 _atom_site_hse06_10hf_ddec_charge
 _atom_site_hse06_10hf_ddec_spin_density
 _atom_site_hse06_10hf_ddec_sum_bond_order
 _atom_site_hse06_10hf_magmom
 _atom_site_hse06_bader_spin_density
 _atom_site_hse06_ddec_charge
 _atom_site_hse06_ddec_spin_density
 _atom_site_hse06_ddec_sum_bond_order
 _atom_site_hse06_magmom
 _atom_site_pbe_bader_spin_density
 _atom_site_pbe_cm5_charge
 _atom_site_pbe_ddec_charge
 _atom_site_pbe_ddec_spin_density
 _atom_site_pbe_ddec_sum_bond_order
 _atom_site_pbe_magmom
Cd  Cd0  1  0.40910773  0.25000040  0.57561091  1  0  0.921258  0  1.944494  0  0  0.727174  0  2.395058  0  0  0.774224  0  2.356674  0  0  0.681821  0.693719  0  2.420852  0
Cd  Cd1  1  0.09089052  0.75000012  0.07561186  1  0  0.921232  0  1.944484  0  0  0.727147  0  2.395036  0  0  0.774197  0  2.356653  0  0  0.681823  0.69369  0  2.420828  0
Cd  Cd2  1  0.59089122  0.75000021  0.42438864  1  0  0.921275  0  1.944484  0  0  0.727195  0  2.395048  0  0  0.774243  0  2.356665  0  0  0.681823  0.693739  0  2.420841  0
Cd  Cd3  1  0.90910843  0.24999954  0.92438875  1  0  0.921277  0  1.944493  0  0  0.727204  0  2.395054  0  0  0.77425  0  2.356671  0  0  0.681842  0.693748  0  2.420849  0
Cd  Cd4  1  0.02089291  0.75000003  0.73173415  1  0  0.917778  0  1.966476  0  0  0.687181  0  2.443504  0  0  0.735857  0  2.405829  0  0  0.795296  0.652304  0  2.469318  0
Cd  Cd5  1  0.47910751  0.24999950  0.23173444  1  0  0.917807  0  1.966466  0  0  0.68721  0  2.443506  0  0  0.735887  0  2.405828  0  0  0.795326  0.652334  0  2.469322  0
Cd  Cd6  1  0.97910731  0.24999963  0.26826593  1  0  0.917798  0  1.966458  0  0  0.687184  0  2.443517  0  0  0.735861  0  2.40584  0  0  0.795304  0.652307  0  2.469333  0
Cd  Cd7  1  0.52089144  0.75000016  0.76826564  1  0  0.91775  0  1.966508  0  0  0.687156  0  2.443529  0  0  0.735833  0  2.405852  0  0  0.795297  0.652277  0  2.469344  0
H  H8  1  0.06104138  0.03234315  0.61628743  1  0  0.086884  0  0.945316  0  0  0.095497  0  1.012305  0  0  0.097738  0  1.009366  0  0  0.12216  0.093837  0  1.014569  0
H  H9  1  0.43895932  0.96765736  0.11628769  1  0  0.086833  0  0.945265  0  0  0.095448  0  1.012266  0  0  0.09769  0  1.009326  0  0  0.122126  0.093787  0  1.01453  0
H  H10  1  0.93895864  0.53234220  0.38371266  1  0  0.086863  0  0.945293  0  0  0.095475  0  1.012291  0  0  0.097716  0  1.009352  0  0  0.122139  0.093815  0  1.014555  0
H  H11  1  0.56104111  0.46765661  0.88371237  1  0  0.086869  0  0.9453  0  0  0.095481  0  1.012297  0  0  0.097722  0  1.009357  0  0  0.122153  0.093821  0  1.01456  0
H  H12  1  0.93895884  0.96765746  0.38371265  1  0  0.086844  0  0.945301  0  0  0.095457  0  1.012295  0  0  0.097698  0  1.009355  0  0  0.122139  0.093797  0  1.014558  0
H  H13  1  0.56104090  0.03234230  0.88371292  1  0  0.086887  0  0.945322  0  0  0.095499  0  1.012316  0  0  0.097739  0  1.009376  0  0  0.122159  0.093838  0  1.014579  0
H  H14  1  0.06104159  0.46765746  0.61628688  1  0  0.086822  0  0.945295  0  0  0.095439  0  1.012288  0  0  0.09768  0  1.009346  0  0  0.122121  0.093779  0  1.014551  0
H  H15  1  0.43895912  0.53234209  0.11628717  1  0  0.086859  0  0.945313  0  0  0.095477  0  1.012308  0  0  0.097718  0  1.009368  0  0  0.122138  0.093816  0  1.014572  0
H  H16  1  0.56857213  0.04484463  0.68913280  1  0  0.087993  0  0.944245  0  0  0.095964  0  1.010709  0  0  0.098146  0  1.008211  0  0  0.124051  0.094403  0  1.012456  0
H  H17  1  0.93142808  0.95515517  0.18913360  1  0  0.088014  0  0.94423  0  0  0.095953  0  1.010717  0  0  0.098135  0  1.008221  0  0  0.124056  0.094403  0  1.012454  0
H  H18  1  0.43142918  0.54484438  0.31086676  1  0  0.087982  0  0.944259  0  0  0.095954  0  1.010719  0  0  0.098136  0  1.00822  0  0  0.124048  0.094393  0  1.012466  0
H  H19  1  0.06857106  0.45515609  0.81086700  1  0  0.087996  0  0.944239  0  0  0.095968  0  1.010697  0  0  0.098151  0  1.0082  0  0  0.124054  0.094409  0  1.012444  0
H  H20  1  0.43142809  0.95515598  0.31086674  1  0  0.088008  0  0.944243  0  0  0.095976  0  1.010697  0  0  0.09816  0  1.008197  0  0  0.124049  0.094416  0  1.012444  0
H  H21  1  0.06857214  0.04484448  0.81086701  1  0  0.08801  0  0.944232  0  0  0.095984  0  1.010684  0  0  0.098167  0  1.008186  0  0  0.12405  0.094424  0  1.012432  0
H  H22  1  0.56857105  0.45515528  0.68913279  1  0  0.087996  0  0.94425  0  0  0.095967  0  1.010712  0  0  0.098149  0  1.008215  0  0  0.124052  0.094407  0  1.01246  0
H  H23  1  0.93142917  0.54484452  0.18913361  1  0  0.088012  0  0.944235  0  0  0.095955  0  1.010725  0  0  0.098137  0  1.00823  0  0  0.124058  0.094405  0  1.012462  0
H  H24  1  0.03653851  0.25000031  0.46405104  1  0  0.082455  0  0.972144  0  0  0.090582  0  1.043151  0  0  0.09287  0  1.040111  0  0  0.112611  0.088887  0  1.045384  0
H  H25  1  0.46346136  0.74999917  0.96405162  1  0  0.082424  0  0.972103  0  0  0.090557  0  1.043115  0  0  0.092845  0  1.040072  0  0  0.112595  0.088862  0  1.045347  0
H  H26  1  0.96346299  0.74999934  0.53594851  1  0  0.082446  0  0.972175  0  0  0.090575  0  1.043179  0  0  0.092863  0  1.040139  0  0  0.112608  0.088881  0  1.045411  0
H  H27  1  0.53653759  0.25000049  0.03594845  1  0  0.082445  0  0.972129  0  0  0.090578  0  1.043134  0  0  0.092867  0  1.040092  0  0  0.112602  0.088884  0  1.045366  0
H  H28  1  0.55949273  0.25000046  0.41258280  1  0  0.08765  0  0.939876  0  0  0.09624  0  1.005732  0  0  0.098062  0  1.003975  0  0  0.125319  0.094919  0  1.006875  0
H  H29  1  0.94050694  0.75000025  0.91258339  1  0  0.087681  0  0.939767  0  0  0.09627  0  1.005626  0  0  0.098093  0  1.003867  0  0  0.125323  0.094949  0  1.006767  0
H  H30  1  0.44050749  0.74999920  0.58741675  1  0  0.087639  0  0.939874  0  0  0.096229  0  1.005732  0  0  0.098051  0  1.003974  0  0  0.12532  0.094907  0  1.006875  0
H  H31  1  0.05949200  0.25000036  0.08741668  1  0  0.087595  0  0.939919  0  0  0.096252  0  1.005717  0  0  0.098076  0  1.003958  0  0  0.125326  0.09493  0  1.006861  0
C  C32  1  0.17986444  0.00974627  0.64332131  1  0  0.20051  0  3.734781  0  0  0.144432  0  4.001951  0  0  0.157531  0  4.016693  0  0  0.131098  0.135882  0  3.991329  0
C  C33  1  0.32013493  0.99025424  0.14332162  1  0  0.200489  0  3.734702  0  0  0.144405  0  4.001875  0  0  0.157502  0  4.016619  0  0  0.131106  0.135855  0  3.991252  0
C  C34  1  0.82013429  0.50974621  0.35667878  1  0  0.200436  0  3.73481  0  0  0.144353  0  4.001986  0  0  0.157452  0  4.016729  0  0  0.131076  0.135803  0  3.991363  0
C  C35  1  0.67986425  0.49025356  0.85667897  1  0  0.200525  0  3.734746  0  0  0.144447  0  4.001914  0  0  0.157545  0  4.016656  0  0  0.131099  0.135898  0  3.991292  0
C  C36  1  0.82013451  0.99025435  0.35667876  1  0  0.200565  0  3.734794  0  0  0.14449  0  4.00196  0  0  0.15759  0  4.016703  0  0  0.131135  0.13594  0  3.991337  0
C  C37  1  0.67986402  0.00974542  0.85667899  1  0  0.200444  0  3.734836  0  0  0.144368  0  4.002008  0  0  0.157466  0  4.016752  0  0  0.131068  0.135818  0  3.991386  0
C  C38  1  0.17986466  0.49025535  0.64332077  1  0  0.200556  0  3.734747  0  0  0.144475  0  4.001914  0  0  0.157573  0  4.016656  0  0  0.131129  0.135924  0  3.991292  0
C  C39  1  0.32013470  0.50974515  0.14332111  1  0  0.200407  0  3.734771  0  0  0.144318  0  4.001948  0  0  0.157416  0  4.016693  0  0  0.131083  0.135768  0  3.991324  0
C  C40  1  0.43645169  0.01676426  0.68127111  1  0  0.19274  0  3.757017  0  0  0.136155  0  4.025877  0  0  0.148849  0  4.041322  0  0  0.126752  0.127881  0  4.014866  0
C  C41  1  0.06354758  0.98323528  0.18127152  1  0  0.192685  0  3.756966  0  0  0.13613  0  4.025855  0  0  0.148825  0  4.041295  0  0  0.126739  0.127846  0  4.014842  0
C  C42  1  0.56354703  0.51676408  0.31872899  1  0  0.192747  0  3.756971  0  0  0.136159  0  4.025838  0  0  0.148855  0  4.041278  0  0  0.126755  0.127886  0  4.014825  0
C  C43  1  0.93645159  0.48323569  0.81872854  1  0  0.192745  0  3.757013  0  0  0.136163  0  4.025871  0  0  0.148858  0  4.041313  0  0  0.126749  0.127888  0  4.014863  0
C  C44  1  0.56354725  0.98323539  0.31872844  1  0  0.192663  0  3.757045  0  0  0.13609  0  4.025909  0  0  0.148786  0  4.04135  0  0  0.126724  0.127816  0  4.014898  0
C  C45  1  0.93645137  0.01676438  0.81872908  1  0  0.192666  0  3.757053  0  0  0.13609  0  4.025911  0  0  0.148784  0  4.041354  0  0  0.126744  0.127815  0  4.0149  0
C  C46  1  0.43645191  0.48323557  0.68127109  1  0  0.192729  0  3.757011  0  0  0.136144  0  4.025869  0  0  0.148839  0  4.041311  0  0  0.126757  0.127869  0  4.014859  0
C  C47  1  0.06354863  0.51676492  0.18127154  1  0  0.192658  0  3.756999  0  0  0.136094  0  4.025889  0  0  0.148788  0  4.04133  0  0  0.126727  0.127812  0  4.014872  0
C  C48  1  0.15615841  0.25000035  0.43464308  1  0  0.194944  0  3.739847  0  0  0.140898  0  4.000225  0  0  0.153422  0  4.01602  0  0  0.127399  0.132279  0  3.990534  0
C  C49  1  0.34384025  0.74999914  0.93464372  1  0  0.194898  0  3.739957  0  0  0.140846  0  4.000347  0  0  0.153369  0  4.016143  0  0  0.12735  0.132226  0  3.990655  0
C  C50  1  0.84384182  0.74999931  0.56535593  1  0  0.194885  0  3.739924  0  0  0.140837  0  4.000308  0  0  0.153361  0  4.016103  0  0  0.127382  0.132219  0  3.990615  0
C  C51  1  0.65615870  0.24999956  0.06535636  1  0  0.194942  0  3.739931  0  0  0.140894  0  4.000306  0  0  0.153419  0  4.0161  0  0  0.127417  0.132276  0  3.990615  0
C  C52  1  0.42119097  0.25000042  0.40809284  1  0  0.19661  0  3.74511  0  0  0.14152  0  4.012162  0  0  0.154158  0  4.028023  0  0  0.127508  0.133025  0  4.00174  0
C  C53  1  0.07881414  0.75000003  0.90809359  1  0  0.196614  0  3.745117  0  0  0.141511  0  4.01218  0  0  0.15415  0  4.028037  0  0  0.127522  0.133017  0  4.001753  0
C  C54  1  0.57880926  0.74999924  0.59190671  1  0  0.196652  0  3.745082  0  0  0.141554  0  4.012139  0  0  0.154192  0  4.027997  0  0  0.127494  0.13306  0  4.001712  0
C  C55  1  0.92118991  0.25000058  0.09190702  1  0  0.196695  0  3.745088  0  0  0.141537  0  4.012146  0  0  0.154174  0  4.028005  0  0  0.127505  0.133044  0  4.00172  0
I  I56  1  0.76407158  0.25000049  0.57709599  1  0  -0.573425  0  0.804531  0  0  -0.517433  0  1.055258  0  0  -0.534661  0  1.030479  0  0  -0.310405  -0.505862  0  1.073205  0
I  I57  1  0.73592762  0.75000029  0.07709635  1  0  -0.573425  0  0.804545  0  0  -0.517433  0  1.055268  0  0  -0.534664  0  1.030489  0  0  -0.31041  -0.505864  0  1.073217  0
I  I58  1  0.23592864  0.75000012  0.42290356  1  0  -0.57343  0  0.804545  0  0  -0.517439  0  1.05527  0  0  -0.534668  0  1.030492  0  0  -0.310403  -0.50587  0  1.073217  0
I  I59  1  0.26407132  0.25000033  0.92290426  1  0  -0.573439  0  0.804543  0  0  -0.517453  0  1.055278  0  0  -0.534681  0  1.0305  0  0  -0.310407  -0.505883  0  1.073226  0
N  N60  1  0.32593345  0.07886448  0.63788455  1  0  -0.438926  0  3.264398  0  0  -0.348268  0  3.547587  0  0  -0.372683  0  3.561905  0  0  -0.375228  -0.330868  0  3.536666  0
N  N61  1  0.17406592  0.92113603  0.13788493  1  0  -0.438854  0  3.264344  0  0  -0.34819  0  3.547513  0  0  -0.372605  0  3.561832  0  0  -0.375219  -0.33079  0  3.536595  0
N  N62  1  0.67406661  0.57886434  0.36211501  1  0  -0.438891  0  3.264415  0  0  -0.348231  0  3.547604  0  0  -0.372647  0  3.561922  0  0  -0.375221  -0.330832  0  3.536682  0
N  N63  1  0.82593318  0.42113542  0.86211514  1  0  -0.438906  0  3.264371  0  0  -0.348252  0  3.547563  0  0  -0.372667  0  3.56188  0  0  -0.375207  -0.330853  0  3.536644  0
N  N64  1  0.67406677  0.92113518  0.36211553  1  0  -0.438897  0  3.264435  0  0  -0.348256  0  3.547638  0  0  -0.372672  0  3.561955  0  0  -0.375242  -0.330856  0  3.536717  0
N  N65  1  0.82593302  0.07886458  0.86211568  1  0  -0.438889  0  3.264444  0  0  -0.348248  0  3.547649  0  0  -0.372663  0  3.561966  0  0  -0.375249  -0.330849  0  3.536731  0
N  N66  1  0.32593361  0.42113627  0.63788401  1  0  -0.438908  0  3.264375  0  0  -0.348256  0  3.547578  0  0  -0.372671  0  3.561896  0  0  -0.375241  -0.330856  0  3.536659  0
N  N67  1  0.17406576  0.57886424  0.13788494  1  0  -0.438808  0  3.264345  0  0  -0.348143  0  3.547515  0  0  -0.372557  0  3.561835  0  0  -0.375218  -0.330744  0  3.536596  0
N  N68  1  0.19953884  0.91105092  0.68718840  1  0  -0.276009  0  3.171368  0  0  -0.210975  0  3.454747  0  0  -0.227058  0  3.473109  0  0  -0.256957  -0.19949  0  3.441383  0
N  N69  1  0.30046169  0.08894862  0.18718877  1  0  -0.27597  0  3.171278  0  0  -0.210937  0  3.454656  0  0  -0.22702  0  3.473018  0  0  -0.256954  -0.199451  0  3.441291  0
N  N70  1  0.80046154  0.41105041  0.31281220  1  0  -0.275946  0  3.171246  0  0  -0.2109  0  3.454601  0  0  -0.226983  0  3.472963  0  0  -0.256933  -0.199414  0  3.441237  0
N  N71  1  0.69953838  0.58894841  0.81281185  1  0  -0.276013  0  3.171337  0  0  -0.210983  0  3.454723  0  0  -0.227066  0  3.473084  0  0  -0.256964  -0.199497  0  3.441359  0
N  N72  1  0.80046138  0.08894874  0.31281168  1  0  -0.276042  0  3.171346  0  0  -0.21101  0  3.454729  0  0  -0.227093  0  3.47309  0  0  -0.256967  -0.199524  0  3.441366  0
N  N73  1  0.69953853  0.91105199  0.81281131  1  0  -0.275982  0  3.171344  0  0  -0.210946  0  3.454716  0  0  -0.227028  0  3.473079  0  0  -0.25693  -0.19946  0  3.441351  0
N  N74  1  0.19953869  0.58894925  0.68718788  1  0  -0.276032  0  3.171409  0  0  -0.211002  0  3.454793  0  0  -0.227085  0  3.473155  0  0  -0.256965  -0.199516  0  3.441429  0
N  N75  1  0.30046057  0.41105029  0.18718823  1  0  -0.275923  0  3.171261  0  0  -0.210877  0  3.45462  0  0  -0.226958  0  3.472983  0  0  -0.256919  -0.199391  0  3.441255  0
N  N76  1  0.36429608  0.91595798  0.71170966  1  0  -0.276478  0  3.167169  0  0  -0.215287  0  3.448406  0  0  -0.230824  0  3.466899  0  0  -0.258359  -0.204224  0  3.435131  0
N  N77  1  0.13570312  0.08404156  0.21171011  1  0  -0.276485  0  3.167125  0  0  -0.215292  0  3.44836  0  0  -0.230829  0  3.466853  0  0  -0.258351  -0.204228  0  3.43509  0
N  N78  1  0.63570175  0.41595739  0.28829094  1  0  -0.276502  0  3.167068  0  0  -0.215309  0  3.448309  0  0  -0.230847  0  3.466804  0  0  -0.258362  -0.204246  0  3.435036  0
N  N79  1  0.86429695  0.58404239  0.78829051  1  0  -0.276502  0  3.167155  0  0  -0.215312  0  3.448397  0  0  -0.230849  0  3.46689  0  0  -0.258364  -0.204247  0  3.435122  0
N  N80  1  0.63570287  0.08404168  0.28829042  1  0  -0.276452  0  3.167143  0  0  -0.215258  0  3.448379  0  0  -0.230796  0  3.466874  0  0  -0.258343  -0.204196  0  3.435105  0
N  N81  1  0.86429583  0.91595810  0.78828997  1  0  -0.276429  0  3.167131  0  0  -0.215239  0  3.448372  0  0  -0.230775  0  3.466866  0  0  -0.258343  -0.204174  0  3.435096  0
N  N82  1  0.36429592  0.58404227  0.71170967  1  0  -0.276456  0  3.167149  0  0  -0.21526  0  3.448378  0  0  -0.230795  0  3.46687  0  0  -0.258349  -0.204195  0  3.435103  0
N  N83  1  0.13570327  0.41595727  0.21170957  1  0  -0.276484  0  3.167125  0  0  -0.215299  0  3.448368  0  0  -0.230835  0  3.466861  0  0  -0.258359  -0.204236  0  3.435098  0
N  N84  1  0.16634409  0.25000036  0.36408666  1  0  -0.267891  0  3.176551  0  0  -0.200784  0  3.457165  0  0  -0.216764  0  3.475361  0  0  -0.25705  -0.190172  0  3.445421  0
N  N85  1  0.33365601  0.74999914  0.86408730  1  0  -0.267842  0  3.176525  0  0  -0.200749  0  3.457142  0  0  -0.216728  0  3.475339  0  0  -0.257033  -0.190137  0  3.445398  0
N  N86  1  0.83365485  0.74999930  0.63591288  1  0  -0.26779  0  3.176508  0  0  -0.200697  0  3.457122  0  0  -0.216677  0  3.47532  0  0  -0.257022  -0.190087  0  3.445378  0
N  N87  1  0.66634421  0.24999956  0.13591278  1  0  -0.267859  0  3.176537  0  0  -0.200769  0  3.457155  0  0  -0.216749  0  3.475352  0  0  -0.257051  -0.190157  0  3.445413  0
N  N88  1  0.33643615  0.25000040  0.34697943  1  0  -0.274326  0  3.139083  0  0  -0.215106  0  3.41591  0  0  -0.230403  0  3.434821  0  0  -0.25229  -0.205045  0  3.403594  0
N  N89  1  0.16356400  0.75000101  0.84698014  1  0  -0.274339  0  3.13903  0  0  -0.2151  0  3.41584  0  0  -0.230397  0  3.434752  0  0  -0.252259  -0.20504  0  3.403524  0
N  N90  1  0.66356407  0.75000021  0.65302011  1  0  -0.274339  0  3.139035  0  0  -0.215101  0  3.415844  0  0  -0.230398  0  3.434757  0  0  -0.252239  -0.205041  0  3.403528  0
N  N91  1  0.83643495  0.24999960  0.15302046  1  0  -0.274331  0  3.138996  0  0  -0.215094  0  3.415831  0  0  -0.23039  0  3.434743  0  0  -0.252241  -0.205034  0  3.403516  0
N  N92  1  0.31386475  0.25000039  0.46468497  1  0  -0.438485  0  3.27627  0  0  -0.345306  0  3.559045  0  0  -0.370165  0  3.573449  0  0  -0.377242  -0.328897  0  3.549786  0
N  N93  1  0.18613511  0.75000100  0.96468514  1  0  -0.438455  0  3.2765  0  0  -0.345272  0  3.55927  0  0  -0.37013  0  3.573677  0  0  -0.377243  -0.328862  0  3.550007  0
N  N94  1  0.68613547  0.74999927  0.53531457  1  0  -0.438509  0  3.276304  0  0  -0.345329  0  3.55908  0  0  -0.370187  0  3.573484  0  0  -0.377272  -0.328919  0  3.549819  0
N  N95  1  0.81386384  0.25000056  0.03531493  1  0  -0.438516  0  3.276331  0  0  -0.345343  0  3.559127  0  0  -0.370201  0  3.573533  0  0  -0.377296  -0.328932  0  3.549865  0
