# generated using pymatgen
data_ZnH4C14NO4
_symmetry_space_group_name_H-M   'P 1'
_cell_length_a   14.48335806
_cell_length_b   14.87633143
_cell_length_c   16.17570929
_cell_angle_alpha   90.00122800
_cell_angle_beta   90.35669703
_cell_angle_gamma   89.99778819
_symmetry_Int_Tables_number   1
_chemical_formula_structural   ZnH4C14NO4
_chemical_formula_sum   'Zn2 H8 C28 N2 O8'
_cell_volume   3485.13840516
_cell_formula_units_Z   2
loop_
 _symmetry_equiv_pos_site_id
 _symmetry_equiv_pos_as_xyz
  1  'x, y, z'
loop_
 _atom_site_type_symbol
 _atom_site_label
 _atom_site_symmetry_multiplicity
 _atom_site_fract_x
 _atom_site_fract_y
 _atom_site_fract_z
 _atom_site_occupancy
 _atom_site_pbe_bader_charge
 _atom_site_pbe_bader_spin_density
 _atom_site_pbe_cm5_charge
 _atom_site_pbe_ddec_charge
 _atom_site_pbe_ddec_spin_density
 _atom_site_pbe_ddec_sum_bond_order
 _atom_site_pbe_magmom
Zn  Zn0  1  0.50000186  0.40466920  0.49999863  1  1.317106  0  0.683933  0.892685  0  2.41289  0
Zn  Zn1  1  0.49999928  0.59533046  0.50000175  1  1.300057  0  0.683929  0.892648  0  2.412944  0
H  H2  1  0.60440061  0.91604386  0.59616599  1  0.11124  0  0.133749  0.138924  0  0.95332  0
H  H3  1  0.39559845  0.08395513  0.40383315  1  0.111217  0  0.133741  0.138863  0  0.953298  0
H  H4  1  0.39559905  0.91604738  0.40383276  1  0.111227  0  0.133762  0.138949  0  0.953272  0
H  H5  1  0.60440002  0.08395229  0.59616700  1  0.111249  0  0.133761  0.138941  0  0.953235  0
H  H6  1  0.49966352  0.35514842  0.92290281  1  0.07911  0  0.110763  0.114115  0  0.982969  0
H  H7  1  0.50033693  0.64485191  0.07709695  1  0.079108  0  0.110745  0.1141  0  0.982997  0
H  H8  1  0.49978024  0.35515483  0.07709447  1  0.078726  0  0.110515  0.113731  0  0.983156  0
H  H9  1  0.50022090  0.64484551  0.92290591  1  0.078732  0  0.11051  0.11373  0  0.98316  0
C  C10  1  0.50008425  0.50000136  0.74987335  1  0.203239  0  -0.045499  -0.17713  0  3.962924  0
C  C11  1  0.49970382  0.49999866  0.33940403  1  1.710653  0  0.218756  0.671394  0  4.231895  0
C  C12  1  0.68022179  0.50000066  0.50032357  1  1.637865  0  0.219281  0.654022  0  4.256938  0
C  C13  1  0.31977867  0.50000034  0.49967804  1  1.638234  0  0.219252  0.654015  0  4.25695  0
C  C14  1  0.49999809  0.18872215  0.50000142  1  0.851361  0  0.25042  0.294617  0  3.910565  0
C  C15  1  0.50000029  0.81127617  0.49999957  1  0.85143  0  0.250426  0.294658  0  3.910637  0
C  C16  1  0.77999541  0.49999687  0.50015412  1  0.216612  0  -0.010917  -0.125989  0  3.841018  0
C  C17  1  0.22000366  0.50000414  0.49984563  1  0.216612  0  -0.01092  -0.125988  0  3.841038  0
C  C18  1  0.86475070  0.49999805  0.50007957  1  -0.235472  0  -0.024522  0.004544  0  4.284562  0
C  C19  1  0.13525043  0.50000161  0.49991834  1  -0.235498  0  -0.024551  0.004454  0  4.284705  0
C  C20  1  0.95737922  0.50000043  0.50001137  1  -0.182473  0  -0.012106  -0.013305  0  4.218788  0
C  C21  1  0.49991413  0.49999830  0.25012640  1  0.203229  0  -0.045545  -0.177139  0  3.962907  0
C  C22  1  0.04262052  0.50000192  0.49998591  1  0.050621  0  -0.011998  -0.013053  0  4.218758  0
C  C23  1  0.55918468  0.04665578  0.55449392  1  -0.066806  0  -0.04948  -0.086417  0  3.914697  0
C  C24  1  0.44081301  0.95334254  0.44550583  1  -0.066597  0  -0.04946  -0.086428  0  3.914615  0
C  C25  1  0.44081051  0.04665865  0.44550672  1  0.110074  0  -0.049461  -0.086345  0  3.91456  0
C  C26  1  0.55918786  0.95334168  0.55449304  1  0.110059  0  -0.04947  -0.086424  0  3.914818  0
C  C27  1  0.49988870  0.41824257  0.04287042  1  0.081951  0  -0.077063  -0.117283  0  3.955953  0
C  C28  1  0.50011244  0.58175709  0.95712996  1  0.080874  0  -0.077031  -0.11723  0  3.956029  0
C  C29  1  0.49982311  0.41823224  0.95713314  1  -0.099388  0  -0.076822  -0.117238  0  3.955582  0
C  C30  1  0.50017803  0.58176742  0.04286724  1  -0.099383  0  -0.076821  -0.117272  0  3.955669  0
C  C31  1  0.50005084  0.50000517  0.08724770  1  0.101361  0  0.004522  0.133345  0  4.105514  0
C  C32  1  0.49995030  0.49999584  0.91275268  1  0.101383  0  0.004507  0.133318  0  4.10552  0
C  C33  1  0.50001631  0.50000349  0.17476326  1  -0.568065  0  -0.03294  -0.056336  0  4.106337  0
C  C34  1  0.49998414  0.49999618  0.82523712  1  -0.568054  0  -0.032993  -0.056393  0  4.106259  0
C  C35  1  0.49999732  0.09313003  0.50000171  1  0.081167  0  0.028194  0.062483  0  4.079939  0
C  C36  1  0.50000037  0.90686963  0.49999928  1  0.08118  0  0.028156  0.062452  0  4.079924  0
C  C37  1  0.50029593  0.50000167  0.66059572  1  1.7109  0  0.21871  0.671403  0  4.23209  0
N  N38  1  0.49999709  0.73331676  0.50000250  1  -1.086215  0  -0.256603  -0.259865  0  3.092228  0
N  N39  1  0.50000128  0.26668357  0.49999787  1  -1.086135  0  -0.256606  -0.259838  0  3.092083  0
O  O40  1  0.50039156  0.42323570  0.62547384  1  -1.144876  0  -0.317241  -0.549348  0  2.255036  0
O  O41  1  0.49961096  0.57676396  0.37452592  1  -1.144869  0  -0.317232  -0.549302  0  2.254969  0
O  O42  1  0.49960863  0.42323350  0.37452439  1  -1.14478  0  -0.317268  -0.549346  0  2.254962  0
O  O43  1  0.50039044  0.57676616  0.62547598  1  -1.145038  0  -0.317204  -0.549254  0  2.255005  0
O  O44  1  0.64143691  0.42316184  0.50039699  1  -1.13563  0  -0.311998  -0.540161  0  2.249291  0
O  O45  1  0.35856353  0.57683916  0.49960091  1  -1.135664  0  -0.312005  -0.540143  0  2.24927  0
O  O46  1  0.35856331  0.42316216  0.49960804  1  -1.13596  0  -0.311902  -0.540071  0  2.249356  0
O  O47  1  0.64143716  0.57683952  0.50039852  1  -1.135672  0  -0.311974  -0.540094  0  2.249313  0
