# generated using pymatgen
data_RbH4C4O3
_symmetry_space_group_name_H-M   'P 1'
_cell_length_a   3.89893760
_cell_length_b   11.83425486
_cell_length_c   12.71822678
_cell_angle_alpha   111.66660590
_cell_angle_beta   89.99976047
_cell_angle_gamma   90.00013324
_symmetry_Int_Tables_number   1
_chemical_formula_structural   RbH4C4O3
_chemical_formula_sum   'Rb4 H16 C16 O12'
_cell_volume   545.37107050
_cell_formula_units_Z   4
loop_
 _symmetry_equiv_pos_site_id
 _symmetry_equiv_pos_as_xyz
  1  'x, y, z'
loop_
 _atom_site_type_symbol
 _atom_site_label
 _atom_site_symmetry_multiplicity
 _atom_site_fract_x
 _atom_site_fract_y
 _atom_site_fract_z
 _atom_site_occupancy
 _atom_site_hle17_bader_spin_density
 _atom_site_hle17_ddec_charge
 _atom_site_hle17_ddec_spin_density
 _atom_site_hle17_ddec_sum_bond_order
 _atom_site_hle17_magmom
 _atom_site_hse06_10hf_bader_spin_density
 _atom_site_hse06_10hf_ddec_charge
 _atom_site_hse06_10hf_ddec_spin_density
 _atom_site_hse06_10hf_ddec_sum_bond_order
 _atom_site_hse06_10hf_magmom
 _atom_site_hse06_bader_spin_density
 _atom_site_hse06_ddec_charge
 _atom_site_hse06_ddec_spin_density
 _atom_site_hse06_ddec_sum_bond_order
 _atom_site_hse06_magmom
 _atom_site_pbe_bader_spin_density
 _atom_site_pbe_cm5_charge
 _atom_site_pbe_ddec_charge
 _atom_site_pbe_ddec_spin_density
 _atom_site_pbe_ddec_sum_bond_order
 _atom_site_pbe_magmom
Rb  Rb0  1  0.76716678  0.17476034  0.64384734  1  0  0.95769  0  0.525976  0  0  0.914829  0  0.742966  0  0  0.929238  0  0.719487  0  0  0.803012  0.904085  0  0.759767  0
Rb  Rb1  1  0.26716895  0.32523952  0.35615327  1  0  0.957682  0  0.52599  0  0  0.914838  0  0.742966  0  0  0.929245  0  0.719487  0  0  0.803009  0.904088  0  0.759768  0
Rb  Rb2  1  0.23283058  0.82524164  0.35615438  1  0  0.957678  0  0.525987  0  0  0.914828  0  0.742975  0  0  0.929235  0  0.719498  0  0  0.803016  0.904079  0  0.759777  0
Rb  Rb3  1  0.73283611  0.67475974  0.64384515  1  0  0.957673  0  0.525999  0  0  0.914817  0  0.742999  0  0  0.929224  0  0.719521  0  0  0.803019  0.904078  0  0.759804  0
H  H4  1  0.27514456  0.31293794  0.86564965  1  0  0.089818  0  0.988328  0  0  0.093015  0  1.065868  0  0  0.097484  0  1.061964  0  0  0.103424  0.08982  0  1.068682  0
H  H5  1  0.77514680  0.18706103  0.13434671  1  0  0.089916  0  0.988541  0  0  0.093135  0  1.066  0  0  0.097603  0  1.062096  0  0  0.103511  0.089942  0  1.068809  0
H  H6  1  0.72485024  0.68706224  0.13434673  1  0  0.089957  0  0.988488  0  0  0.093186  0  1.065936  0  0  0.097668  0  1.061991  0  0  0.10352  0.089994  0  1.068746  0
H  H7  1  0.22486851  0.81293459  0.86565280  1  0  0.089909  0  0.988565  0  0  0.09312  0  1.066037  0  0  0.097594  0  1.062112  0  0  0.103475  0.089925  0  1.068855  0
H  H8  1  0.90800488  0.67836109  0.94487887  1  0  0.098413  0  0.95289  0  0  0.109297  0  1.014281  0  0  0.112425  0  1.012826  0  0  0.108367  0.107035  0  1.015416  0
H  H9  1  0.40802135  0.82164216  0.05512187  1  0  0.098579  0  0.95302  0  0  0.109492  0  1.014344  0  0  0.112615  0  1.012897  0  0  0.108462  0.107223  0  1.015484  0
H  H10  1  0.09198992  0.32164091  0.05511971  1  0  0.098486  0  0.952807  0  0  0.109344  0  1.014221  0  0  0.112467  0  1.012771  0  0  0.108388  0.107076  0  1.015357  0
H  H11  1  0.59198371  0.17835982  0.94487907  1  0  0.098441  0  0.952884  0  0  0.109365  0  1.014223  0  0  0.112492  0  1.01277  0  0  0.108409  0.1071  0  1.015353  0
H  H12  1  0.06780589  0.10137839  0.39590741  1  0  0.400738  0  0.919653  0  0  0.369992  0  0.985575  0  0  0.381615  0  0.968408  0  0  0.27936  0.36177  0  0.9977  0
H  H13  1  0.56780327  0.39862324  0.60409250  1  0  0.400737  0  0.919645  0  0  0.369992  0  0.985566  0  0  0.381615  0  0.9684  0  0  0.279403  0.361771  0  0.997687  0
H  H14  1  0.93219660  0.89862178  0.60409211  1  0  0.400724  0  0.919665  0  0  0.369978  0  0.985588  0  0  0.381601  0  0.968422  0  0  0.279355  0.361758  0  0.997709  0
H  H15  1  0.43219922  0.60137966  0.39590797  1  0  0.400709  0  0.919687  0  0  0.36996  0  0.985614  0  0  0.381584  0  0.968447  0  0  0.279356  0.36174  0  0.997733  0
H  H16  1  0.46638623  0.10432576  0.40348252  1  0  0.397831  0  0.92061  0  0  0.37085  0  0.980695  0  0  0.381074  0  0.965565  0  0  0.285188  0.363602  0  0.991411  0
H  H17  1  0.96638369  0.39567507  0.59651739  1  0  0.397847  0  0.920591  0  0  0.370869  0  0.980672  0  0  0.381093  0  0.965542  0  0  0.285191  0.363618  0  0.991393  0
H  H18  1  0.53361883  0.89567531  0.59651889  1  0  0.397846  0  0.920598  0  0  0.370872  0  0.980666  0  0  0.381095  0  0.965539  0  0  0.285199  0.363621  0  0.991386  0
H  H19  1  0.03361881  0.60432601  0.40348088  1  0  0.397842  0  0.920597  0  0  0.370864  0  0.980679  0  0  0.381088  0  0.965548  0  0  0.285197  0.363614  0  0.991397  0
C  C20  1  0.21316736  0.49320508  0.77848443  1  0  0.669347  0  3.899486  0  0  0.622251  0  4.191937  0  0  0.655517  0  4.182919  0  0  0.206953  0.599699  0  4.197289  0
C  C21  1  0.71317229  0.00679569  0.22151342  1  0  0.669431  0  3.899291  0  0  0.622278  0  4.191792  0  0  0.655546  0  4.182773  0  0  0.206991  0.599723  0  4.197148  0
C  C22  1  0.78683257  0.50679601  0.22151305  1  0  0.669506  0  3.89919  0  0  0.622353  0  4.191707  0  0  0.655621  0  4.182688  0  0  0.207001  0.59979  0  4.197063  0
C  C23  1  0.28683277  0.99320356  0.77848814  1  0  0.669481  0  3.899066  0  0  0.622319  0  4.191605  0  0  0.65559  0  4.182586  0  0  0.206977  0.59977  0  4.196954  0
C  C24  1  0.10528336  0.49581040  0.89279569  1  0  -0.059598  0  3.736423  0  0  -0.03734  0  3.967639  0  0  -0.043902  0  3.990758  0  0  -0.012877  -0.033046  0  3.952013  0
C  C25  1  0.60529495  0.00418759  0.10720527  1  0  -0.059611  0  3.736089  0  0  -0.037253  0  3.967235  0  0  -0.043816  0  3.990352  0  0  -0.012881  -0.032956  0  3.951605  0
C  C26  1  0.89470118  0.50419251  0.10720085  1  0  -0.059632  0  3.736182  0  0  -0.037314  0  3.967373  0  0  -0.043882  0  3.990501  0  0  -0.012888  -0.033006  0  3.951732  0
C  C27  1  0.39470754  0.99580528  0.89279723  1  0  -0.059645  0  3.736246  0  0  -0.037349  0  3.967475  0  0  -0.043918  0  3.990602  0  0  -0.012877  -0.033052  0  3.951845  0
C  C28  1  0.15447568  0.39510390  0.92420953  1  0  -0.085572  0  3.745094  0  0  -0.109155  0  3.99905  0  0  -0.110661  0  4.020032  0  0  -0.082537  -0.108006  0  3.984787  0
C  C29  1  0.65448840  0.10490231  0.07579106  1  0  -0.085608  0  3.745017  0  0  -0.109251  0  3.999021  0  0  -0.110756  0  4.020001  0  0  -0.082593  -0.108103  0  3.984748  0
C  C30  1  0.84550629  0.60490264  0.07578984  1  0  -0.085711  0  3.745105  0  0  -0.109332  0  3.999066  0  0  -0.110834  0  4.020056  0  0  -0.082629  -0.108187  0  3.984802  0
C  C31  1  0.34552179  0.89509695  0.92420893  1  0  -0.085663  0  3.745041  0  0  -0.109251  0  3.999005  0  0  -0.110751  0  4.01999  0  0  -0.082623  -0.108105  0  3.984747  0
C  C32  1  0.94943367  0.60059737  0.96970958  1  0  -0.063808  0  3.717503  0  0  -0.084973  0  3.963202  0  0  -0.086376  0  3.984129  0  0  -0.077581  -0.083935  0  3.949022  0
C  C33  1  0.44944077  0.89939679  0.03029031  1  0  -0.063987  0  3.717461  0  0  -0.085206  0  3.963143  0  0  -0.086605  0  3.984065  0  0  -0.077619  -0.084152  0  3.948952  0
C  C34  1  0.05055086  0.39940462  0.03028900  1  0  -0.063834  0  3.717451  0  0  -0.084986  0  3.963108  0  0  -0.086382  0  3.984032  0  0  -0.077576  -0.083939  0  3.948913  0
C  C35  1  0.55055660  0.10059427  0.96970998  1  0  -0.06379  0  3.71742  0  0  -0.084987  0  3.963099  0  0  -0.086385  0  3.984022  0  0  -0.077582  -0.083937  0  3.948899  0
O  O36  1  0.27479199  0.38778536  0.70041117  1  0  -0.751484  0  2.00881  0  0  -0.684843  0  2.234711  0  0  -0.711022  0  2.224072  0  0  -0.407168  -0.66639  0  2.241505  0
O  O37  1  0.77480430  0.11221815  0.29958991  1  0  -0.751553  0  2.008638  0  0  -0.684917  0  2.234576  0  0  -0.711097  0  2.223933  0  0  -0.407223  -0.666464  0  2.241376  0
O  O38  1  0.72520793  0.61222118  0.29958977  1  0  -0.751587  0  2.008565  0  0  -0.684932  0  2.234504  0  0  -0.711114  0  2.223861  0  0  -0.407198  -0.666479  0  2.2413  0
O  O39  1  0.22520075  0.88777656  0.70040929  1  0  -0.751587  0  2.008424  0  0  -0.684929  0  2.23437  0  0  -0.711112  0  2.223728  0  0  -0.407235  -0.666481  0  2.241175  0
O  O40  1  0.23083673  0.59183132  0.76206842  1  0  -0.715996  0  1.964471  0  0  -0.668791  0  2.207507  0  0  -0.692043  0  2.197826  0  0  -0.468073  -0.652482  0  2.213672  0
O  O41  1  0.73083400  0.90817096  0.23793221  1  0  -0.716044  0  1.964369  0  0  -0.668816  0  2.207435  0  0  -0.69207  0  2.197755  0  0  -0.46811  -0.652503  0  2.213598  0
O  O42  1  0.76916833  0.40817157  0.23793283  1  0  -0.716043  0  1.964375  0  0  -0.668826  0  2.207427  0  0  -0.692075  0  2.197744  0  0  -0.468096  -0.652514  0  2.213588  0
O  O43  1  0.26916337  0.09182920  0.76206809  1  0  -0.716011  0  1.964334  0  0  -0.668781  0  2.207389  0  0  -0.692031  0  2.197703  0  0  -0.468049  -0.652472  0  2.213551  0
O  O44  1  0.26036056  0.10459436  0.44925369  1  0  -0.937378  0  1.801862  0  0  -0.895154  0  1.973323  0  0  -0.913375  0  1.942381  0  0  -0.738073  -0.882177  0  1.995052  0
O  O45  1  0.76036120  0.39540642  0.55074567  1  0  -0.937397  0  1.801871  0  0  -0.895169  0  1.973306  0  0  -0.913389  0  1.942365  0  0  -0.738112  -0.882192  0  1.995035  0
O  O46  1  0.73964193  0.89540580  0.55074661  1  0  -0.937381  0  1.801871  0  0  -0.895156  0  1.973322  0  0  -0.913379  0  1.94238  0  0  -0.738086  -0.882178  0  1.995052  0
O  O47  1  0.23964129  0.60459557  0.44925448  1  0  -0.93736  0  1.801882  0  0  -0.895135  0  1.973333  0  0  -0.913356  0  1.942391  0  0  -0.738097  -0.882164  0  1.995059  0
