# generated using pymatgen
data_ZnH20C31N4O7
_symmetry_space_group_name_H-M   'P 1'
_cell_length_a   9.73934176
_cell_length_b   9.80915107
_cell_length_c   14.72407236
_cell_angle_alpha   86.21131154
_cell_angle_beta   85.39411102
_cell_angle_gamma   83.11660695
_symmetry_Int_Tables_number   1
_chemical_formula_structural   ZnH20C31N4O7
_chemical_formula_sum   'Zn2 H40 C62 N8 O14'
_cell_volume   1389.74365679
_cell_formula_units_Z   2
loop_
 _symmetry_equiv_pos_site_id
 _symmetry_equiv_pos_as_xyz
  1  'x, y, z'
loop_
 _atom_site_type_symbol
 _atom_site_label
 _atom_site_symmetry_multiplicity
 _atom_site_fract_x
 _atom_site_fract_y
 _atom_site_fract_z
 _atom_site_occupancy
 _atom_site_pbe_bader_spin_density
 _atom_site_pbe_cm5_charge
 _atom_site_pbe_ddec_charge
 _atom_site_pbe_ddec_spin_density
 _atom_site_pbe_ddec_sum_bond_order
 _atom_site_pbe_magmom
Zn  Zn0  1  0.51568130  0.09279010  0.25573936  1  0  0.69277  0.776542  0  2.387153  0
Zn  Zn1  1  0.48431896  0.90721275  0.74426147  1  0  0.692768  0.776577  0  2.387102  0
H  H2  1  0.68724682  0.58155922  0.95105543  1  0  0.348898  0.397212  0  0.838102  0
H  H3  1  0.31275009  0.41843649  0.04894383  1  0  0.348944  0.397321  0  0.838045  0
H  H4  1  0.24698026  0.04253728  0.50193883  1  0  0.104454  0.110414  0  1.006677  0
H  H5  1  0.75301998  0.95746560  0.49805929  1  0  0.104443  0.110366  0  1.006647  0
H  H6  1  0.14090191  0.95768334  0.64953744  1  0  0.101394  0.103024  0  1.011322  0
H  H7  1  0.85909685  0.04231439  0.35046299  1  0  0.101392  0.103021  0  1.01138  0
H  H8  1  0.94775800  0.97120182  0.76918295  1  0  0.096728  0.095322  0  1.030369  0
H  H9  1  0.05223788  0.02879390  0.23081637  1  0  0.096695  0.095286  0  1.030404  0
H  H10  1  0.74754104  0.15672088  0.75645010  1  0  0.094047  0.088907  0  1.039507  0
H  H11  1  0.25245565  0.84327688  0.24354978  1  0  0.094047  0.088924  0  1.039529  0
H  H12  1  0.74721906  0.33123522  0.62693083  1  0  0.099692  0.104324  0  1.007722  0
H  H13  1  0.25278131  0.66876661  0.37306935  1  0  0.09968  0.104303  0  1.007711  0
H  H14  1  0.86690016  0.42837438  0.48359110  1  0  0.107567  0.128831  0  0.996675  0
H  H15  1  0.13309818  0.57162742  0.51641260  1  0  0.107558  0.12883  0  0.996722  0
H  H16  1  0.89407879  0.25546454  0.32445987  1  0  0.105037  0.119757  0  1.042855  0
H  H17  1  0.10593163  0.74453005  0.67553800  1  0  0.105005  0.119685  0  1.042911  0
H  H18  1  0.94325755  0.62421269  0.08212827  1  0  0.10241  0.099023  0  1.041052  0
H  H19  1  0.05674315  0.37578607  0.91787066  1  0  0.102395  0.098984  0  1.041087  0
H  H20  1  0.08573364  0.61030755  0.21639270  1  0  0.107117  0.12584  0  1.006524  0
H  H21  1  0.91426226  0.38969740  0.78360694  1  0  0.107116  0.12584  0  1.006551  0
H  H22  1  0.23927207  0.15830549  0.15089998  1  0  0.139833  0.123204  0  1.025317  0
H  H23  1  0.76072811  0.84168906  0.84910729  1  0  0.139835  0.123165  0  1.025264  0
H  H24  1  0.36482070  0.79519200  0.00827805  1  0  0.125541  0.146247  0  1.051704  0
H  H25  1  0.63517773  0.20480880  0.99172365  1  0  0.125537  0.14624  0  1.051823  0
H  H26  1  0.57506117  0.84876746  0.11325802  1  0  0.11786  0.113802  0  1.0162  0
H  H27  1  0.42494353  0.15123232  0.88673929  1  0  0.117853  0.113754  0  1.016197  0
H  H28  1  0.11356222  0.21183727  0.01148841  1  0  0.106296  0.111541  0  1.036856  0
H  H29  1  0.88643381  0.78815736  0.98851569  1  0  0.106274  0.111525  0  1.036829  0
H  H30  1  0.12249341  0.77214733  0.04654895  1  0  0.110652  0.114318  0  1.005314  0
H  H31  1  0.87750540  0.22785032  0.95345828  1  0  0.110628  0.114294  0  1.005314  0
H  H32  1  0.58064141  0.43961961  0.34097618  1  0  0.108808  0.130447  0  1.023646  0
H  H33  1  0.41935811  0.56038024  0.65901870  1  0  0.10879  0.130459  0  1.023714  0
H  H34  1  0.50759884  0.73585462  0.55077375  1  0  0.108708  0.124834  0  1.030505  0
H  H35  1  0.49239861  0.26414526  0.44921988  1  0  0.10869  0.124837  0  1.030524  0
H  H36  1  0.76276323  0.58849832  0.29849381  1  0  0.117371  0.113954  0  1.071022  0
H  H37  1  0.23723562  0.41150769  0.70150223  1  0  0.117361  0.113922  0  1.071023  0
H  H38  1  0.78072476  0.84704018  0.20936921  1  0  0.123026  0.123878  0  1.001013  0
H  H39  1  0.21927781  0.15296984  0.79063121  1  0  0.123063  0.123866  0  1.001039  0
H  H40  1  0.45469292  0.88154719  0.41551701  1  0  0.140199  0.112532  0  1.009824  0
H  H41  1  0.54530250  0.11845266  0.58448082  1  0  0.140179  0.112421  0  1.00988  0
C  C42  1  0.27742489  0.20146043  0.34860821  1  0  0.198053  0.580632  0  4.216777  0
C  C43  1  0.72257561  0.79854963  0.65139097  1  0  0.197949  0.580573  0  4.216999  0
C  C44  1  0.16647433  0.22199921  0.42505475  1  0  -0.025009  -0.131488  0  3.971685  0
C  C45  1  0.83352317  0.77800058  0.57494568  1  0  -0.024986  -0.131458  0  3.971685  0
C  C46  1  0.16338171  0.12679319  0.49881323  1  0  -0.077543  -0.116376  0  3.948642  0
C  C47  1  0.83661878  0.87320761  0.50118699  1  0  -0.077539  -0.116284  0  3.94847  0
C  C48  1  0.05439147  0.13397373  0.56833411  1  0  -0.009425  0.06129  0  4.009175  0
C  C49  1  0.94560900  0.86602709  0.43166476  1  0  -0.009387  0.061241  0  4.009094  0
C  C50  1  0.05305078  0.03714810  0.64415954  1  0  -0.085898  -0.116905  0  3.974023  0
C  C51  1  0.94694762  0.96285275  0.35583808  1  0  -0.085895  -0.116925  0  3.974081  0
C  C52  1  0.94529250  0.04549060  0.71081025  1  0  -0.095325  -0.084936  0  4.010906  0
C  C53  1  0.05470728  0.95450714  0.28918945  1  0  -0.095282  -0.084791  0  4.010862  0
C  C54  1  0.83317293  0.15103358  0.70377380  1  0  -0.094325  -0.082088  0  4.017412  0
C  C55  1  0.16682571  0.84896519  0.29622592  1  0  -0.094336  -0.082183  0  4.017494  0
C  C56  1  0.83186615  0.24799131  0.63133926  1  0  -0.092632  -0.136943  0  3.97512  0
C  C57  1  0.16813536  0.75200949  0.36866022  1  0  -0.092596  -0.136838  0  3.975041  0
C  C58  1  0.94252964  0.24274242  0.56235953  1  0  -0.004979  0.097169  0  4.000464  0
C  C59  1  0.05747371  0.75726041  0.43764113  1  0  -0.005027  0.097101  0  4.000411  0
C  C60  1  0.94840855  0.34229535  0.48833615  1  0  -0.096382  -0.244141  0  3.972948  0
C  C61  1  0.05159194  0.65770543  0.51166543  1  0  -0.096326  -0.244108  0  3.972989  0
C  C62  1  0.05744624  0.33228352  0.42269609  1  0  0.083272  0.224895  0  4.025042  0
C  C63  1  0.94255415  0.66771830  0.57730546  1  0  0.083201  0.22485  0  4.025084  0
C  C64  1  0.99579888  0.43334225  0.27893755  1  0  0.102883  0.307009  0  4.043966  0
C  C65  1  0.00420251  0.56665959  0.72106123  1  0  0.1029  0.307044  0  4.043923  0
C  C66  1  0.90517239  0.33549320  0.27055505  1  0  -0.106592  -0.260832  0  3.966962  0
C  C67  1  0.09483243  0.66450553  0.72944365  1  0  -0.106573  -0.260756  0  3.966817  0
C  C68  1  0.82510075  0.34246891  0.19571089  1  0  0.00619  0.02431  0  3.927094  0
C  C69  1  0.17490750  0.65752671  0.80428774  1  0  0.006188  0.024306  0  3.926815  0
C  C70  1  0.83570261  0.44972802  0.12759404  1  0  -0.03485  -0.125042  0  4.012359  0
C  C71  1  0.16429741  0.55026763  0.87240708  1  0  -0.034782  -0.124846  0  4.012219  0
C  C72  1  0.93318511  0.54302812  0.13526217  1  0  -0.083413  -0.063858  0  4.00309  0
C  C73  1  0.06681270  0.45696864  0.86473496  1  0  -0.083454  -0.063956  0  4.003266  0
C  C74  1  0.01321401  0.53600551  0.20933894  1  0  -0.100826  -0.204011  0  3.9694  0
C  C75  1  0.98678553  0.46399429  0.79065933  1  0  -0.100766  -0.203931  0  3.969549  0
C  C76  1  0.74021223  0.46760622  0.05419524  1  0  0.223935  0.566887  0  4.148079  0
C  C77  1  0.25978844  0.53238329  0.94580405  1  0  0.223858  0.566684  0  4.147918  0
C  C78  1  0.30387450  0.07004216  0.12402916  1  0  0.144546  0.087577  0  3.896762  0
C  C79  1  0.69612349  0.92995346  0.87597616  1  0  0.144587  0.087745  0  3.89659  0
C  C80  1  0.37092096  0.87651842  0.05370693  1  0  0.006067  -0.094417  0  3.8789  0
C  C81  1  0.62908079  0.12348028  0.94629602  1  0  0.006087  -0.094365  0  3.878845  0
C  C82  1  0.47380227  0.90529134  0.10521377  1  0  -0.00389  -0.034943  0  3.996806  0
C  C83  1  0.52619844  0.09470740  0.89478652  1  0  -0.003916  -0.034934  0  3.996705  0
C  C84  1  0.13048332  0.99102399  0.03229809  1  0  0.101609  0.175636  0  3.997579  0
C  C85  1  0.86951698  0.00897881  0.96770681  1  0  0.101607  0.175584  0  3.997592  0
C  C86  1  0.06286750  0.11964220  0.00662827  1  0  -0.082717  -0.148939  0  3.963098  0
C  C87  1  0.93713001  0.88035757  0.99337419  1  0  -0.082718  -0.148922  0  3.963012  0
C  C88  1  0.06818242  0.87147895  0.02583946  1  0  -0.077238  -0.122161  0  3.960984  0
C  C89  1  0.93181788  0.12852384  0.97416613  1  0  -0.07721  -0.122098  0  3.960966  0
C  C90  1  0.54785077  0.46675258  0.41071506  1  0  -0.086015  -0.142935  0  3.952496  0
C  C91  1  0.45214554  0.53324834  0.58927860  1  0  -0.085945  -0.142937  0  3.952612  0
C  C92  1  0.50131836  0.63342116  0.52791932  1  0  -0.086277  -0.14909  0  3.965558  0
C  C93  1  0.49867795  0.36657975  0.47207501  1  0  -0.086249  -0.149107  0  3.965541  0
C  C94  1  0.54876152  0.59985337  0.43909160  1  0  0.092084  0.15063  0  4.031716  0
C  C95  1  0.45123928  0.40014439  0.56090532  1  0  0.09208  0.150657  0  4.031751  0
C  C96  1  0.70226594  0.68700354  0.30806592  1  0  0.003221  -0.093525  0  3.894171  0
C  C97  1  0.29773097  0.31300144  0.69193094  1  0  0.003271  -0.093515  0  3.894022  0
C  C98  1  0.70981109  0.81438550  0.26484723  1  0  0.002813  -0.029509  0  3.998833  0
C  C99  1  0.29019067  0.18562250  0.73515196  1  0  0.002748  -0.029452  0  3.998698  0
C  C100  1  0.54265035  0.83855024  0.37262310  1  0  0.14881  0.105584  0  3.88302  0
C  C101  1  0.45734590  0.16145161  0.62737800  1  0  0.148853  0.105757  0  3.883041  0
C  C102  1  0.72927774  0.23207236  0.19680670  1  0  0.20029  0.570189  0  4.247065  0
C  C103  1  0.27073065  0.76792219  0.80319536  1  0  0.200266  0.570134  0  4.24694  0
N  N104  1  0.26379544  0.98174356  0.06639942  1  0  -0.223023  0.011479  0  3.804931  0
N  N105  1  0.73620426  0.01825515  0.93360432  1  0  -0.223005  0.011446  0  3.804772  0
N  N106  1  0.59616887  0.70381543  0.37654975  1  0  -0.222088  0.016041  0  3.798374  0
N  N107  1  0.40382872  0.29618338  0.62344799  1  0  -0.222074  0.016024  0  3.798571  0
N  N108  1  0.60921220  0.90754882  0.30546581  1  0  -0.354118  -0.287958  0  3.579387  0
N  N109  1  0.39078589  0.09245507  0.69453578  1  0  -0.354149  -0.288047  0  3.579402  0
N  N110  1  0.43052971  0.02551141  0.14900374  1  0  -0.354989  -0.285858  0  3.620596  0
N  N111  1  0.56947318  0.97448628  0.85099782  1  0  -0.354993  -0.285933  0  3.620748  0
O  O112  1  0.38586815  0.11729938  0.36848521  1  0  -0.339069  -0.572131  0  2.317608  0
O  O113  1  0.61413280  0.88270655  0.63151479  1  0  -0.339023  -0.572123  0  2.317766  0
O  O114  1  0.26174043  0.25937896  0.27125766  1  0  -0.322987  -0.546229  0  2.142836  0
O  O115  1  0.73826030  0.74062904  0.72874227  1  0  -0.322956  -0.546211  0  2.142747  0
O  O116  1  0.06525135  0.43837131  0.35496322  1  0  -0.141727  -0.201058  0  2.603754  0
O  O117  1  0.93474788  0.56163154  0.64503767  1  0  -0.14173  -0.201095  0  2.603773  0
O  O118  1  0.65099313  0.39242581  0.04386912  1  0  -0.287881  -0.497697  0  2.178591  0
O  O119  1  0.34901226  0.60756776  0.95613110  1  0  -0.287965  -0.497742  0  2.178361  0
O  O120  1  0.75642878  0.58042420  0.99609556  1  0  -0.33863  -0.496058  0  2.250381  0
O  O121  1  0.24356858  0.41956738  0.00390452  1  0  -0.338586  -0.496047  0  2.250189  0
O  O122  1  0.61430258  0.25728886  0.24676699  1  0  -0.328976  -0.538586  0  2.30415  0
O  O123  1  0.38569788  0.74271198  0.75323051  1  0  -0.328937  -0.53856  0  2.304435  0
O  O124  1  0.76828507  0.12232909  0.15947458  1  0  -0.315389  -0.535597  0  2.126197  0
O  O125  1  0.23172850  0.87766539  0.84053059  1  0  -0.31541  -0.535577  0  2.125768  0
