# generated using pymatgen
data_SnH9C9N(OF)2
_symmetry_space_group_name_H-M   'P 1'
_cell_length_a   7.91099511
_cell_length_b   7.82308115
_cell_length_c   17.10761552
_cell_angle_alpha   89.90246183
_cell_angle_beta   90.59233549
_cell_angle_gamma   90.05713116
_symmetry_Int_Tables_number   1
_chemical_formula_structural   SnH9C9N(OF)2
_chemical_formula_sum   'Sn4 H36 C36 N4 O8 F8'
_cell_volume   1058.70359204
_cell_formula_units_Z   4
loop_
 _symmetry_equiv_pos_site_id
 _symmetry_equiv_pos_as_xyz
  1  'x, y, z'
loop_
 _atom_site_type_symbol
 _atom_site_label
 _atom_site_symmetry_multiplicity
 _atom_site_fract_x
 _atom_site_fract_y
 _atom_site_fract_z
 _atom_site_occupancy
 _atom_site_hle17_bader_spin_density
 _atom_site_hle17_ddec_charge
 _atom_site_hle17_ddec_spin_density
 _atom_site_hle17_ddec_sum_bond_order
 _atom_site_hle17_magmom
 _atom_site_hse06_10hf_bader_spin_density
 _atom_site_hse06_10hf_ddec_charge
 _atom_site_hse06_10hf_ddec_spin_density
 _atom_site_hse06_10hf_ddec_sum_bond_order
 _atom_site_hse06_10hf_magmom
 _atom_site_hse06_bader_spin_density
 _atom_site_hse06_ddec_charge
 _atom_site_hse06_ddec_spin_density
 _atom_site_hse06_ddec_sum_bond_order
 _atom_site_hse06_magmom
 _atom_site_pbe_bader_spin_density
 _atom_site_pbe_cm5_charge
 _atom_site_pbe_ddec_charge
 _atom_site_pbe_ddec_spin_density
 _atom_site_pbe_ddec_sum_bond_order
 _atom_site_pbe_magmom
Sn  Sn0  1  0.25097103  0.96411439  0.77947692  1  0  1.52067  0  2.862043  0  0  1.360343  0  3.369703  0  0  1.411731  0  3.33945  0  0  0.636342  1.32472  0  3.390031  0
Sn  Sn1  1  0.74903242  0.03589300  0.22052377  1  0  1.520681  0  2.862009  0  0  1.360237  0  3.369871  0  0  1.411627  0  3.339761  0  0  0.636323  1.324785  0  3.390064  0
Sn  Sn2  1  0.25016388  0.46445837  0.71866979  1  0  1.518132  0  2.870481  0  0  1.357252  0  3.378797  0  0  1.408655  0  3.348515  0  0  0.63421  1.32167  0  3.399207  0
Sn  Sn3  1  0.74982190  0.53555284  0.28133319  1  0  1.518187  0  2.870343  0  0  1.357206  0  3.379049  0  0  1.408494  0  3.348623  0  0  0.634202  1.321738  0  3.399247  0
H  H4  1  0.25550974  0.89241587  0.33301129  1  0  0.154831  0  0.935626  0  0  0.163431  0  0.995733  0  0  0.167945  0  0.992788  0  0  0.116841  0.160431  0  0.997718  0
H  H5  1  0.74442923  0.10752245  0.66699160  1  0  0.154685  0  0.935889  0  0  0.163566  0  0.995412  0  0  0.167763  0  0.992887  0  0  0.116877  0.160514  0  0.997427  0
H  H6  1  0.25100037  0.39730369  0.43429277  1  0  0.134745  0  0.94552  0  0  0.144517  0  1.003553  0  0  0.148067  0  1.002028  0  0  0.112425  0.141984  0  1.004884  0
H  H7  1  0.74907359  0.60266672  0.56568588  1  0  0.134171  0  0.946602  0  0  0.144494  0  1.003805  0  0  0.148034  0  1.002221  0  0  0.11238  0.141911  0  1.005154  0
H  H8  1  0.24925162  0.26506844  0.56675559  1  0  0.093587  0  0.976889  0  0  0.107185  0  1.034363  0  0  0.109268  0  1.03346  0  0  0.107925  0.105645  0  1.035001  0
H  H9  1  0.75084773  0.73492241  0.43323130  1  0  0.093663  0  0.976731  0  0  0.107216  0  1.034282  0  0  0.109264  0  1.033475  0  0  0.107979  0.10569  0  1.034931  0
H  H10  1  0.52948586  0.79098845  0.82112770  1  0  0.162175  0  0.999648  0  0  0.175217  0  1.065223  0  0  0.17857  0  1.065044  0  0  0.086812  0.172959  0  1.065184  0
H  H11  1  0.47052282  0.20904703  0.17888701  1  0  0.161936  0  0.999701  0  0  0.175216  0  1.064932  0  0  0.178339  0  1.065191  0  0  0.086679  0.172796  0  1.065206  0
H  H12  1  0.48801558  0.95316030  0.89275148  1  0  0.165545  0  0.981283  0  0  0.18242  0  1.039406  0  0  0.18538  0  1.039523  0  0  0.091427  0.18027  0  1.03948  0
H  H13  1  0.51196907  0.04687901  0.10726142  1  0  0.165503  0  0.981462  0  0  0.182326  0  1.039645  0  0  0.185311  0  1.039744  0  0  0.091397  0.180235  0  1.039623  0
H  H14  1  0.58355563  0.01060725  0.80201173  1  0  0.16698  0  0.990544  0  0  0.178791  0  1.055867  0  0  0.182562  0  1.054971  0  0  0.087135  0.176169  0  1.056457  0
H  H15  1  0.41643151  0.98943334  0.19799885  1  0  0.1669  0  0.990724  0  0  0.178768  0  1.05594  0  0  0.18285  0  1.054641  0  0  0.087094  0.176059  0  1.056695  0
H  H16  1  0.92294135  0.02727960  0.80321710  1  0  0.166469  0  0.993909  0  0  0.178833  0  1.058224  0  0  0.182539  0  1.057487  0  0  0.086654  0.176209  0  1.058769  0
H  H17  1  0.07706324  0.97275593  0.19677189  1  0  0.166407  0  0.993754  0  0  0.178835  0  1.057995  0  0  0.182951  0  1.056714  0  0  0.086648  0.176167  0  1.058638  0
H  H18  1  0.01521127  0.94415768  0.89132320  1  0  0.166285  0  0.981789  0  0  0.183471  0  1.039328  0  0  0.186438  0  1.039517  0  0  0.091377  0.181312  0  1.03935  0
H  H19  1  0.98474272  0.05582031  0.10866451  1  0  0.16612  0  0.981766  0  0  0.183379  0  1.039276  0  0  0.186367  0  1.03947  0  0  0.091374  0.181283  0  1.039196  0
H  H20  1  0.96254190  0.80156353  0.81243004  1  0  0.162109  0  0.999877  0  0  0.174811  0  1.065648  0  0  0.178435  0  1.065035  0  0  0.086018  0.172414  0  1.065831  0
H  H21  1  0.03742578  0.19846564  0.18753723  1  0  0.162031  0  0.99988  0  0  0.174991  0  1.065282  0  0  0.178319  0  1.065217  0  0  0.08604  0.17238  0  1.065832  0
H  H22  1  0.58713297  0.49132681  0.70307188  1  0  0.164805  0  0.99632  0  0  0.175748  0  1.063176  0  0  0.179717  0  1.061952  0  0  0.084782  0.173077  0  1.063881  0
H  H23  1  0.41286458  0.50865876  0.29696621  1  0  0.164737  0  0.996339  0  0  0.175942  0  1.062827  0  0  0.179933  0  1.06155  0  0  0.084735  0.173022  0  1.06391  0
H  H24  1  0.48645275  0.48582850  0.60880590  1  0  0.166792  0  0.983137  0  0  0.183161  0  1.041522  0  0  0.18625  0  1.041499  0  0  0.091409  0.180956  0  1.041626  0
H  H25  1  0.51359906  0.51416990  0.39122412  1  0  0.166994  0  0.982471  0  0  0.183178  0  1.04141  0  0  0.186218  0  1.041446  0  0  0.091506  0.180993  0  1.041479  0
H  H26  1  0.51458034  0.29097579  0.66352259  1  0  0.162401  0  1.000665  0  0  0.175923  0  1.065474  0  0  0.178976  0  1.065823  0  0  0.086606  0.173726  0  1.065324  0
H  H27  1  0.48542721  0.70902003  0.33650558  1  0  0.16256  0  0.999915  0  0  0.175859  0  1.065415  0  0  0.179071  0  1.065426  0  0  0.086575  0.173696  0  1.065225  0
H  H28  1  0.91154445  0.47972140  0.70373388  1  0  0.165348  0  0.993164  0  0  0.176278  0  1.060062  0  0  0.1802  0  1.058902  0  0  0.085117  0.17363  0  1.060724  0
H  H29  1  0.08844587  0.52027585  0.29622469  1  0  0.165544  0  0.992921  0  0  0.176629  0  1.059577  0  0  0.180655  0  1.058261  0  0  0.085176  0.173775  0  1.060573  0
H  H30  1  0.98890633  0.28587686  0.66058170  1  0  0.162766  0  0.999429  0  0  0.176339  0  1.064101  0  0  0.179319  0  1.064591  0  0  0.08677  0.174164  0  1.063912  0
H  H31  1  0.01111704  0.71411398  0.33939390  1  0  0.163054  0  0.998898  0  0  0.176396  0  1.064182  0  0  0.179476  0  1.06447  0  0  0.086955  0.174292  0  1.063874  0
H  H32  1  0.00801531  0.48606305  0.60936725  1  0  0.166167  0  0.98397  0  0  0.183199  0  1.041472  0  0  0.186319  0  1.04138  0  0  0.091596  0.180968  0  1.041644  0
H  H33  1  0.99203963  0.51391630  0.39060550  1  0  0.166176  0  0.983571  0  0  0.182965  0  1.041728  0  0  0.186037  0  1.041698  0  0  0.091482  0.180755  0  1.041861  0
H  H34  1  0.24598938  0.38486037  0.16452338  1  0  0.152258  0  0.943844  0  0  0.160595  0  1.005273  0  0  0.164799  0  1.002583  0  0  0.11531  0.157373  0  1.00767  0
H  H35  1  0.75405964  0.61513808  0.83548326  1  0  0.152237  0  0.944002  0  0  0.160417  0  1.005666  0  0  0.164818  0  1.002739  0  0  0.115252  0.157308  0  1.007873  0
H  H36  1  0.25247565  0.89234657  0.06523071  1  0  0.135428  0  0.942743  0  0  0.144762  0  1.001573  0  0  0.148358  0  0.999972  0  0  0.112552  0.142184  0  1.002827  0
H  H37  1  0.74751147  0.10766590  0.93477870  1  0  0.135268  0  0.942863  0  0  0.144622  0  1.001646  0  0  0.148244  0  1.000081  0  0  0.112491  0.142018  0  1.002947  0
H  H38  1  0.25335918  0.76280819  0.93213453  1  0  0.091608  0  0.980028  0  0  0.102828  0  1.040991  0  0  0.105171  0  1.039821  0  0  0.106809  0.101079  0  1.041969  0
H  H39  1  0.74658111  0.23721706  0.06786951  1  0  0.091533  0  0.980245  0  0  0.102728  0  1.04125  0  0  0.105096  0  1.040014  0  0  0.10678  0.101014  0  1.042172  0
C  C40  1  0.25362663  0.90511856  0.45911651  1  0  0.324373  0  3.743129  0  0  0.30727  0  4.022617  0  0  0.320316  0  4.033349  0  0  0.111735  0.298476  0  4.015348  0
C  C41  1  0.74634529  0.09485045  0.54089230  1  0  0.321055  0  3.746342  0  0  0.307487  0  4.022222  0  0  0.320392  0  4.033071  0  0  0.111877  0.298508  0  4.015231  0
C  C42  1  0.25440525  0.97470311  0.38418288  1  0  -0.312174  0  3.734722  0  0  -0.350839  0  3.999165  0  0  -0.358564  0  4.013668  0  0  -0.112502  -0.346003  0  3.990167  0
C  C43  1  0.74556277  0.02524035  0.61581775  1  0  -0.313301  0  3.737495  0  0  -0.350938  0  3.999668  0  0  -0.358501  0  4.013772  0  0  -0.112557  -0.346038  0  3.990331  0
C  C44  1  0.25343267  0.15163794  0.37730128  1  0  0.356296  0  3.765188  0  0  0.341866  0  4.0489  0  0  0.356006  0  4.057895  0  0  0.103536  0.331156  0  4.044509  0
C  C45  1  0.74657447  0.84831961  0.62269300  1  0  0.356109  0  3.765194  0  0  0.340737  0  4.050546  0  0  0.355934  0  4.057876  0  0  0.103468  0.331013  0  4.044688  0
C  C46  1  0.25163336  0.25920769  0.44161683  1  0  -0.197101  0  3.748712  0  0  -0.230145  0  4.015018  0  0  -0.236018  0  4.031635  0  0  -0.103395  -0.226504  0  4.004394  0
C  C47  1  0.74841925  0.74075245  0.55837346  1  0  -0.197132  0  3.748629  0  0  -0.230134  0  4.015136  0  0  -0.235924  0  4.031385  0  0  -0.103299  -0.226455  0  4.004236  0
C  C48  1  0.25073927  0.18414463  0.51531734  1  0  -0.017864  0  3.718187  0  0  -0.042186  0  3.971364  0  0  -0.038283  0  3.989381  0  0  -0.076976  -0.044411  0  3.958933  0
C  C49  1  0.74932473  0.81584364  0.48467414  1  0  -0.017969  0  3.717773  0  0  -0.042136  0  3.971123  0  0  -0.038465  0  3.98948  0  0  -0.077125  -0.044556  0  3.958932  0
C  C50  1  0.25166681  0.00607011  0.52699761  1  0  -0.135634  0  3.767096  0  0  -0.132849  0  4.01905  0  0  -0.141948  0  4.041321  0  0  -0.021255  -0.127114  0  4.004192  0
C  C51  1  0.74834923  0.99391173  0.47300019  1  0  -0.136283  0  3.76928  0  0  -0.132767  0  4.019041  0  0  -0.141879  0  4.041458  0  0  -0.021262  -0.12707  0  4.004327  0
C  C52  1  0.25068661  0.93986990  0.60791554  1  0  0.416232  0  3.882792  0  0  0.378829  0  4.180821  0  0  0.402396  0  4.185604  0  0  0.191363  0.363054  0  4.177279  0
C  C53  1  0.74934086  0.06012854  0.39208637  1  0  0.416022  0  3.883793  0  0  0.378678  0  4.181243  0  0  0.402267  0  4.185978  0  0  0.191389  0.362959  0  4.177579  0
C  C54  1  0.49417652  0.92427886  0.83028000  1  0  -0.717388  0  3.496401  0  0  -0.765768  0  3.743237  0  0  -0.780361  0  3.746666  0  0  -0.328138  -0.755637  0  3.740747  0
C  C55  1  0.50580809  0.07575790  0.16972998  1  0  -0.716979  0  3.496656  0  0  -0.765323  0  3.743122  0  0  -0.780119  0  3.746656  0  0  -0.327959  -0.755329  0  3.740875  0
C  C56  1  0.00676330  0.92952908  0.82780563  1  0  -0.716858  0  3.495383  0  0  -0.765334  0  3.740517  0  0  -0.78019  0  3.744042  0  0  -0.327844  -0.755045  0  3.738035  0
C  C57  1  0.99320838  0.07048600  0.17217978  1  0  -0.716518  0  3.495377  0  0  -0.765144  0  3.740268  0  0  -0.780229  0  3.743864  0  0  -0.327856  -0.754947  0  3.738009  0
C  C58  1  0.49079687  0.42825729  0.66711220  1  0  -0.720816  0  3.499855  0  0  -0.768893  0  3.745877  0  0  -0.783566  0  3.749159  0  0  -0.329583  -0.758788  0  3.743656  0
C  C59  1  0.50921948  0.57173855  0.33291131  1  0  -0.72009  0  3.498662  0  0  -0.768806  0  3.745482  0  0  -0.783252  0  3.748414  0  0  -0.329564  -0.75867  0  3.7433  0
C  C60  1  0.00836830  0.42353503  0.66663935  1  0  -0.720874  0  3.497283  0  0  -0.768193  0  3.742322  0  0  -0.782836  0  3.745664  0  0  -0.329601  -0.758115  0  3.740067  0
C  C61  1  0.99164623  0.57645581  0.33333623  1  0  -0.720482  0  3.496409  0  0  -0.7683  0  3.742533  0  0  -0.78276  0  3.745502  0  0  -0.329728  -0.758214  0  3.740266  0
C  C62  1  0.25117180  0.43869913  0.88999403  1  0  0.416766  0  3.879671  0  0  0.37915  0  4.177648  0  0  0.402612  0  4.182474  0  0  0.19209  0.363478  0  4.174004  0
C  C63  1  0.74877985  0.56131717  0.11000887  1  0  0.416737  0  3.879643  0  0  0.379099  0  4.177754  0  0  0.402547  0  4.182656  0  0  0.191916  0.363451  0  4.174063  0
C  C64  1  0.25026578  0.50311575  0.97108503  1  0  -0.133598  0  3.766182  0  0  -0.130584  0  4.016232  0  0  -0.139657  0  4.038809  0  0  -0.02024  -0.124943  0  4.00147  0
C  C65  1  0.74969465  0.49690185  0.02891146  1  0  -0.13365  0  3.766416  0  0  -0.130654  0  4.016523  0  0  -0.139666  0  4.038904  0  0  -0.020143  -0.12501  0  4.001744  0
C  C66  1  0.24795082  0.40055656  0.03862702  1  0  0.325407  0  3.740426  0  0  0.31016  0  4.017317  0  0  0.322894  0  4.028338  0  0  0.111899  0.301281  0  4.0101  0
C  C67  1  0.75204002  0.59946999  0.96137597  1  0  0.325559  0  3.74068  0  0  0.310387  0  4.01744  0  0  0.323372  0  4.028251  0  0  0.112103  0.301471  0  4.010334  0
C  C68  1  0.24779037  0.46846643  0.11371775  1  0  -0.310001  0  3.738086  0  0  -0.349891  0  4.002881  0  0  -0.357243  0  4.016994  0  0  -0.112796  -0.344875  0  3.993216  0
C  C69  1  0.75223206  0.53155246  0.88628473  1  0  -0.310065  0  3.7381  0  0  -0.349908  0  4.002737  0  0  -0.35763  0  4.017573  0  0  -0.112851  -0.344972  0  3.993243  0
C  C70  1  0.24979047  0.64508310  0.12124348  1  0  0.351869  0  3.774078  0  0  0.335925  0  4.060097  0  0  0.351398  0  4.066894  0  0  0.102283  0.326243  0  4.054157  0
C  C71  1  0.75023202  0.35493067  0.87876426  1  0  0.351766  0  3.773935  0  0  0.335979  0  4.059659  0  0  0.350035  0  4.068648  0  0  0.102328  0.326265  0  4.053842  0
C  C72  1  0.25145166  0.75439619  0.05738840  1  0  -0.194705  0  3.746538  0  0  -0.228556  0  4.013574  0  0  -0.234117  0  4.029671  0  0  -0.103409  -0.224877  0  4.002581  0
C  C73  1  0.74854046  0.24561502  0.94261693  1  0  -0.194455  0  3.74626  0  0  -0.228278  0  4.013226  0  0  -0.234075  0  4.029874  0  0  -0.103376  -0.224618  0  4.002279  0
C  C74  1  0.25176927  0.68091788  0.98341536  1  0  -0.021965  0  3.719421  0  0  -0.045031  0  3.973734  0  0  -0.041695  0  3.99193  0  0  -0.077964  -0.047321  0  3.961719  0
C  C75  1  0.74819003  0.31909714  0.01659340  1  0  -0.021925  0  3.719368  0  0  -0.045072  0  3.973843  0  0  -0.041417  0  3.991701  0  0  -0.078034  -0.047342  0  3.961767  0
N  N76  1  0.24846468  0.77500522  0.62051383  1  0  -0.273036  0  2.870888  0  0  -0.272998  0  3.159868  0  0  -0.282529  0  3.169592  0  0  -0.255113  -0.266823  0  3.153075  0
N  N77  1  0.75154511  0.22499449  0.37948979  1  0  -0.274415  0  2.872153  0  0  -0.27296  0  3.160227  0  0  -0.282503  0  3.169932  0  0  -0.255084  -0.266747  0  3.153336  0
N  N78  1  0.25333675  0.27398804  0.87721983  1  0  -0.272213  0  2.864561  0  0  -0.272019  0  3.152955  0  0  -0.281433  0  3.162548  0  0  -0.256143  -0.265882  0  3.146222  0
N  N79  1  0.74662251  0.72603593  0.12278542  1  0  -0.272171  0  2.864701  0  0  -0.271991  0  3.15316  0  0  -0.281414  0  3.162782  0  0  -0.255936  -0.265835  0  3.146363  0
O  O80  1  0.25191351  0.05745581  0.66441082  1  0  -0.622544  0  2.065475  0  0  -0.54533  0  2.30935  0  0  -0.570885  0  2.303114  0  0  -0.288692  -0.527416  0  2.313009  0
O  O81  1  0.74812529  0.94254521  0.33558644  1  0  -0.622614  0  2.065253  0  0  -0.545377  0  2.309295  0  0  -0.570995  0  2.303077  0  0  -0.288742  -0.527443  0  2.312861  0
O  O82  1  0.24751044  0.74090992  0.70196310  1  0  -0.568537  0  2.147912  0  0  -0.465067  0  2.40414  0  0  -0.492475  0  2.405118  0  0  -0.219259  -0.445634  0  2.402769  0
O  O83  1  0.75249556  0.25909490  0.29804051  1  0  -0.56858  0  2.148216  0  0  -0.465129  0  2.404135  0  0  -0.49258  0  2.405126  0  0  -0.21931  -0.445669  0  2.402628  0
O  O84  1  0.25019264  0.55721286  0.83369222  1  0  -0.619278  0  2.050994  0  0  -0.541727  0  2.293789  0  0  -0.567365  0  2.287759  0  0  -0.289192  -0.523817  0  2.297358  0
O  O85  1  0.74975775  0.44279194  0.16631126  1  0  -0.619309  0  2.050663  0  0  -0.541863  0  2.293648  0  0  -0.567476  0  2.287605  0  0  -0.289167  -0.523902  0  2.29709  0
O  O86  1  0.25479167  0.24067397  0.79581010  1  0  -0.566229  0  2.146906  0  0  -0.463111  0  2.403413  0  0  -0.490507  0  2.404378  0  0  -0.218599  -0.443769  0  2.402082  0
O  O87  1  0.74518023  0.75934234  0.20419518  1  0  -0.566326  0  2.14707  0  0  -0.463256  0  2.403688  0  0  -0.490652  0  2.404643  0  0  -0.218627  -0.443858  0  2.402234  0
F  F88  1  0.25481924  0.73187910  0.46428525  1  0  -0.199768  0  1.235607  0  0  -0.137186  0  1.39271  0  0  -0.147764  0  1.384243  0  0  -0.085322  -0.129481  0  1.398286  0
F  F89  1  0.74509960  0.26808732  0.53572402  1  0  -0.189656  0  1.225566  0  0  -0.137062  0  1.392677  0  0  -0.147598  0  1.384229  0  0  -0.085301  -0.129393  0  1.398318  0
F  F90  1  0.25419446  0.22103399  0.30377174  1  0  -0.224387  0  1.209149  0  0  -0.161371  0  1.368363  0  0  -0.172801  0  1.359624  0  0  -0.084992  -0.152643  0  1.374339  0
F  F91  1  0.74579109  0.77889288  0.69621490  1  0  -0.224148  0  1.209156  0  0  -0.160645  0  1.368557  0  0  -0.172587  0  1.359699  0  0  -0.084987  -0.152577  0  1.374502  0
F  F92  1  0.24552705  0.22732917  0.03302825  1  0  -0.201452  0  1.232501  0  0  -0.140328  0  1.389412  0  0  -0.150738  0  1.380802  0  0  -0.085928  -0.132723  0  1.395127  0
F  F93  1  0.75447007  0.77268205  0.96697184  1  0  -0.201376  0  1.232688  0  0  -0.140221  0  1.389545  0  0  -0.150614  0  1.380912  0  0  -0.085985  -0.132665  0  1.395317  0
F  F94  1  0.24997568  0.71216863  0.19520768  1  0  -0.225935  0  1.211484  0  0  -0.161179  0  1.369452  0  0  -0.173746  0  1.360525  0  0  -0.084113  -0.15279  0  1.375304  0
F  F95  1  0.75007963  0.28783110  0.80479605  1  0  -0.225876  0  1.211388  0  0  -0.161092  0  1.369293  0  0  -0.172681  0  1.36056  0  0  -0.084099  -0.152803  0  1.375191  0
