# generated using pymatgen
data_ZnH6(CN2)4
_symmetry_space_group_name_H-M   'P 1'
_cell_length_a   10.48204540
_cell_length_b   15.47324684
_cell_length_c   17.56822086
_cell_angle_alpha   109.36298898
_cell_angle_beta   90.00001839
_cell_angle_gamma   89.99994518
_symmetry_Int_Tables_number   1
_chemical_formula_structural   ZnH6(CN2)4
_chemical_formula_sum   'Zn8 H48 C32 N64'
_cell_volume   2688.24092760
_cell_formula_units_Z   8
loop_
 _symmetry_equiv_pos_site_id
 _symmetry_equiv_pos_as_xyz
  1  'x, y, z'
loop_
 _atom_site_type_symbol
 _atom_site_label
 _atom_site_symmetry_multiplicity
 _atom_site_fract_x
 _atom_site_fract_y
 _atom_site_fract_z
 _atom_site_occupancy
 _atom_site_pbe_bader_charge
 _atom_site_pbe_bader_spin_density
 _atom_site_pbe_cm5_charge
 _atom_site_pbe_ddec_charge
 _atom_site_pbe_ddec_spin_density
 _atom_site_pbe_ddec_sum_bond_order
 _atom_site_pbe_magmom
Zn  Zn0  1  0.70602230  0.30279522  0.18695200  1  1.217688  0  0.762382  0.658548  0  2.480717  0
Zn  Zn1  1  0.75581855  0.72029773  0.32383857  1  1.217748  0  0.763538  0.663884  0  2.472666  0
Zn  Zn2  1  0.20602172  0.19720380  0.31304609  1  1.217647  0  0.762393  0.65858  0  2.480689  0
Zn  Zn3  1  0.25581872  0.77970108  0.17616472  1  1.217654  0  0.763507  0.663952  0  2.472598  0
Zn  Zn4  1  0.29398231  0.69720236  0.81304908  1  1.21764  0  0.762365  0.658538  0  2.480762  0
Zn  Zn5  1  0.24417365  0.27970258  0.67616159  1  1.217646  0  0.763556  0.663849  0  2.472572  0
Zn  Zn6  1  0.79398193  0.80279514  0.68695425  1  1.217595  0  0.762402  0.658608  0  2.480619  0
Zn  Zn7  1  0.74417348  0.22029718  0.82383542  1  1.217601  0  0.763495  0.663844  0  2.472468  0
H  H8  1  0.96212478  0.56153990  0.26434742  1  0.08075  0  0.101083  0.15122  0  1.008614  0
H  H9  1  0.93540774  0.45403164  0.18689280  1  0.10935  0  0.102395  0.149105  0  1.020428  0
H  H10  1  0.95582744  0.45922330  0.28913821  1  0.061744  0  0.102334  0.15367  0  0.985225  0
H  H11  1  0.48487270  0.37838021  0.38578169  1  0.067039  0  0.107756  0.160533  0  0.967317  0
H  H12  1  0.62956683  0.31509106  0.36090140  1  0.074568  0  0.100655  0.145912  0  1.043916  0
H  H13  1  0.49793418  0.27029701  0.40070239  1  0.051002  0  0.104448  0.157183  0  0.983607  0
H  H14  1  0.92808733  0.74891211  0.11761732  1  0.074665  0  0.106737  0.159844  0  0.973046  0
H  H15  1  0.84160047  0.66334441  0.14157328  1  0.101302  0  0.099805  0.147384  0  1.031675  0
H  H16  1  0.99858797  0.63959763  0.09755219  1  0.112263  0  0.10135  0.150852  0  1.022761  0
H  H17  1  0.67500488  0.09199711  0.94965713  1  0.066947  0  0.102068  0.154625  0  0.976917  0
H  H18  1  0.54799525  0.15922434  0.93129286  1  0.096286  0  0.102921  0.151705  0  1.011721  0
H  H19  1  0.56726607  0.15148507  0.02926637  1  0.135413  0  0.097691  0.140969  0  1.06709  0
H  H20  1  0.46212375  0.93846357  0.23564872  1  0.08079  0  0.101084  0.15122  0  1.008674  0
H  H21  1  0.43540838  0.04597069  0.31310174  1  0.109447  0  0.102396  0.14913  0  1.020397  0
H  H22  1  0.45582041  0.04077627  0.21085439  1  0.061679  0  0.102314  0.153695  0  0.985232  0
H  H23  1  0.98487641  0.12161253  0.11422033  1  0.067079  0  0.107764  0.160514  0  0.967265  0
H  H24  1  0.12957192  0.18490048  0.13910020  1  0.074531  0  0.100667  0.145848  0  1.043997  0
H  H25  1  0.99794437  0.22969296  0.09929256  1  0.051095  0  0.104462  0.157153  0  0.983623  0
H  H26  1  0.42808289  0.75109620  0.38238648  1  0.074758  0  0.106701  0.159778  0  0.973179  0
H  H27  1  0.34159968  0.83666119  0.35842744  1  0.10106  0  0.099764  0.14731  0  1.03172  0
H  H28  1  0.49858335  0.86040996  0.40245312  1  0.11227  0  0.10133  0.150807  0  1.022798  0
H  H29  1  0.17500762  0.40800270  0.55034387  1  0.066997  0  0.10208  0.154632  0  0.976926  0
H  H30  1  0.04799716  0.34077621  0.56870833  1  0.096765  0  0.102898  0.151707  0  1.011719  0
H  H31  1  0.06726627  0.34851402  0.47073398  1  0.135454  0  0.097695  0.140985  0  1.06707  0
H  H32  1  0.03787410  0.43846792  0.73564752  1  0.080659  0  0.101067  0.151168  0  1.008609  0
H  H33  1  0.06459591  0.54597550  0.81310194  1  0.109438  0  0.10239  0.149118  0  1.020385  0
H  H34  1  0.04418766  0.54078109  0.71085346  1  0.06157  0  0.102298  0.153634  0  0.985275  0
H  H35  1  0.51513191  0.62162353  0.61422175  1  0.06708  0  0.107759  0.160533  0  0.967384  0
H  H36  1  0.37043968  0.68491338  0.63910508  1  0.074693  0  0.100626  0.145899  0  1.043993  0
H  H37  1  0.50207043  0.72970880  0.59930506  1  0.050765  0  0.104491  0.157239  0  0.983592  0
H  H38  1  0.07190964  0.25109232  0.88238689  1  0.074672  0  0.106723  0.159819  0  0.973118  0
H  H39  1  0.15838696  0.33665588  0.85842005  1  0.10143  0  0.099796  0.147402  0  1.031826  0
H  H40  1  0.00139755  0.36040059  0.90243712  1  0.112539  0  0.101326  0.150823  0  1.02278  0
H  H41  1  0.32499114  0.90799705  0.05034352  1  0.06705  0  0.102072  0.154631  0  0.976962  0
H  H42  1  0.45200363  0.84077324  0.06871107  1  0.096656  0  0.102966  0.151787  0  1.01171  0
H  H43  1  0.43273090  0.84850840  0.97073522  1  0.135529  0  0.09767  0.140933  0  1.067071  0
H  H44  1  0.53788181  0.06153054  0.76433826  1  0.080832  0  0.101051  0.151126  0  1.008693  0
H  H45  1  0.56460481  0.95402069  0.68688559  1  0.109146  0  0.102338  0.149031  0  1.020515  0
H  H46  1  0.54417847  0.95921784  0.78913487  1  0.061818  0  0.102316  0.153643  0  0.985144  0
H  H47  1  0.01513106  0.87838640  0.88577773  1  0.067101  0  0.107744  0.160472  0  0.967226  0
H  H48  1  0.87043269  0.81510327  0.86090552  1  0.074529  0  0.100673  0.145892  0  1.043985  0
H  H49  1  0.00206214  0.77030941  0.90071048  1  0.050688  0  0.104471  0.157166  0  0.983543  0
H  H50  1  0.57191504  0.24890204  0.61760739  1  0.074745  0  0.106708  0.159791  0  0.973073  0
H  H51  1  0.65838870  0.16333913  0.64157785  1  0.101328  0  0.099792  0.147364  0  1.031832  0
H  H52  1  0.50139836  0.13959724  0.59756156  1  0.112498  0  0.101329  0.150811  0  1.02275  0
H  H53  1  0.82500271  0.59199419  0.44965759  1  0.066894  0  0.102064  0.154575  0  0.976962  0
H  H54  1  0.95201030  0.65922685  0.43129605  1  0.09628  0  0.102912  0.15171  0  1.011695  0
H  H55  1  0.93273642  0.65148630  0.52926960  1  0.135364  0  0.097687  0.140944  0  1.067041  0
C  C56  1  0.77535403  0.50620670  0.26263015  1  0.952247  0  0.229896  0.376684  0  3.988818  0
C  C57  1  0.91530000  0.49482035  0.24996173  1  -0.048207  0  -0.230518  -0.46223  0  3.92359  0
C  C58  1  0.47653279  0.26344951  0.27810610  1  1.005094  0  0.236993  0.386257  0  3.977526  0
C  C59  1  0.52527708  0.30910279  0.36105466  1  0.018297  0  -0.226892  -0.462704  0  3.919921  0
C  C60  1  0.99533857  0.72225370  0.22146955  1  0.970683  0  0.235362  0.388889  0  3.982795  0
C  C61  1  0.93740809  0.69075801  0.14004335  1  -0.071748  0  -0.234153  -0.477105  0  3.938496  0
C  C62  1  0.70265013  0.23645362  0.99741988  1  1.000914  0  0.236713  0.390924  0  3.969649  0
C  C63  1  0.61865323  0.15477038  0.97601251  1  -0.11236  0  -0.234852  -0.471253  0  3.934796  0
C  C64  1  0.27535100  0.99379208  0.23736687  1  0.952868  0  0.229888  0.376712  0  3.988862  0
C  C65  1  0.41529687  0.00517924  0.25003315  1  -0.048207  0  -0.230498  -0.462287  0  3.923625  0
C  C66  1  0.97653445  0.23654801  0.22189218  1  1.005677  0  0.237001  0.386286  0  3.977573  0
C  C67  1  0.02528310  0.19088947  0.13894428  1  0.018125  0  -0.226907  -0.462546  0  3.919844  0
C  C68  1  0.49533975  0.77774978  0.27853287  1  0.970227  0  0.235477  0.388989  0  3.982644  0
C  C69  1  0.43740353  0.80924961  0.35996025  1  -0.071116  0  -0.234106  -0.476989  0  3.93862  0
C  C70  1  0.20264833  0.26354481  0.50258015  1  1.003455  0  0.236693  0.390885  0  3.969689  0
C  C71  1  0.11865416  0.34522878  0.52398943  1  -0.112931  0  -0.234825  -0.47128  0  3.934797  0
C  C72  1  0.22465058  0.49379292  0.73736697  1  0.951891  0  0.229863  0.376595  0  3.989042  0
C  C73  1  0.08470651  0.50518268  0.75003296  1  -0.047972  0  -0.230501  -0.462181  0  3.923621  0
C  C74  1  0.52347277  0.73655081  0.72189806  1  1.004313  0  0.236916  0.386136  0  3.977602  0
C  C75  1  0.47472848  0.69089958  0.63895009  1  0.018994  0  -0.226908  -0.462728  0  3.919977  0
C  C76  1  0.00465554  0.27773289  0.77852095  1  0.971152  0  0.235237  0.388819  0  3.982843  0
C  C77  1  0.06258602  0.30923817  0.85995106  1  -0.07218  0  -0.234138  -0.477117  0  3.938746  0
C  C78  1  0.29735161  0.76354260  0.00258308  1  1.001085  0  0.23671  0.391009  0  3.969482  0
C  C79  1  0.38134565  0.84522516  0.02399083  1  -0.112854  0  -0.234865  -0.471369  0  3.93486  0
C  C80  1  0.72465456  0.00620411  0.76262868  1  0.951935  0  0.229899  0.376716  0  3.989125  0
C  C81  1  0.58471155  0.99481487  0.74995611  1  -0.048093  0  -0.230466  -0.462117  0  3.923546  0
C  C82  1  0.02346443  0.76344957  0.77811004  1  1.00503  0  0.237062  0.386336  0  3.977595  0
C  C83  1  0.97471959  0.80910878  0.86105529  1  0.018503  0  -0.226924  -0.462561  0  3.91979  0
C  C84  1  0.50465818  0.22226767  0.72147511  1  0.971099  0  0.235275  0.388815  0  3.982909  0
C  C85  1  0.56258772  0.19075826  0.64004723  1  -0.072221  0  -0.234135  -0.477027  0  3.938662  0
C  C86  1  0.79734864  0.73645071  0.49742033  1  1.001496  0  0.236732  0.390941  0  3.969498  0
C  C87  1  0.88134758  0.65477085  0.47601282  1  -0.112269  0  -0.234849  -0.471237  0  3.934739  0
N  N88  1  0.71280702  0.58561796  0.29509256  1  -0.805936  0  -0.254974  -0.286936  0  3.510533  0
N  N89  1  0.58670378  0.56511043  0.29750467  1  -0.074938  0  -0.10609  -0.087549  0  3.240637  0
N  N90  1  0.57278386  0.47685406  0.26755150  1  -0.109855  0  -0.103859  -0.081595  0  3.239281  0
N  N91  1  0.68924016  0.43810595  0.24492255  1  -0.791246  0  -0.25434  -0.276555  0  3.511879  0
N  N92  1  0.54214784  0.25005629  0.20931999  1  -0.813692  0  -0.249479  -0.272312  0  3.503846  0
N  N93  1  0.46282270  0.20689700  0.14707384  1  -0.0935  0  -0.083508  -0.058736  0  3.27387  0
N  N94  1  0.35370279  0.19383055  0.17608360  1  -0.101636  0  -0.091343  -0.07682  0  3.271284  0
N  N95  1  0.35897752  0.22869258  0.25811731  1  -0.811727  0  -0.251947  -0.283222  0  3.498664  0
N  N96  1  0.93482367  0.73471303  0.29176162  1  -0.787663  0  -0.255923  -0.283156  0  3.516744  0
N  N97  1  0.02348054  0.76343377  0.35189503  1  -0.110527  0  -0.097037  -0.083634  0  3.249907  0
N  N98  1  0.13309176  0.76856834  0.31976488  1  -0.08546  0  -0.086054  -0.058118  0  3.256448  0
N  N99  1  0.11903916  0.74285274  0.23813877  1  -0.805157  0  -0.254629  -0.277637  0  3.492916  0
N  N100  1  0.74081034  0.28817766  0.07155021  1  -0.806728  0  -0.25376  -0.279093  0  3.492885  0
N  N101  1  0.81826367  0.35516871  0.06237690  1  -0.120143  0  -0.093604  -0.083493  0  3.255592  0
N  N102  1  0.82658768  0.34484440  0.98628134  1  -0.080952  0  -0.083134  -0.055816  0  3.255694  0
N  N103  1  0.75562543  0.27115741  0.94409245  1  -0.78249  0  -0.247995  -0.270244  0  3.509077  0
N  N104  1  0.21280601  0.91438222  0.20490600  1  -0.806019  0  -0.254921  -0.286933  0  3.510481  0
N  N105  1  0.08669893  0.93488846  0.20249633  1  -0.075065  0  -0.106145  -0.087601  0  3.240664  0
N  N106  1  0.07277591  0.02314299  0.23244940  1  -0.10985  0  -0.103907  -0.08162  0  3.23932  0
N  N107  1  0.18923598  0.06189034  0.25507645  1  -0.791776  0  -0.254276  -0.276504  0  3.511857  0
N  N108  1  0.04214717  0.24994350  0.29067829  1  -0.813715  0  -0.249545  -0.272506  0  3.504108  0
N  N109  1  0.96282337  0.29310532  0.35292412  1  -0.093381  0  -0.083497  -0.058621  0  3.273921  0
N  N110  1  0.85370438  0.30617251  0.32391341  1  -0.101594  0  -0.091384  -0.076955  0  3.271426  0
N  N111  1  0.85898199  0.27130705  0.24187814  1  -0.812275  0  -0.251913  -0.283121  0  3.498811  0
N  N112  1  0.43482769  0.76529323  0.20824273  1  -0.78776  0  -0.256  -0.283275  0  3.516782  0
N  N113  1  0.52348311  0.73656994  0.14810793  1  -0.110439  0  -0.097023  -0.083625  0  3.249633  0
N  N114  1  0.63309246  0.73143327  0.18023977  1  -0.085295  0  -0.086084  -0.058129  0  3.256354  0
N  N115  1  0.61904081  0.75714956  0.26186550  1  -0.80538  0  -0.254618  -0.2776  0  3.492772  0
N  N116  1  0.24080503  0.21182067  0.42844882  1  -0.806817  0  -0.253745  -0.279032  0  3.492837  0
N  N117  1  0.31825848  0.14482888  0.43762022  1  -0.120178  0  -0.093665  -0.08356  0  3.255692  0
N  N118  1  0.32658702  0.15515327  0.51371565  1  -0.081007  0  -0.083132  -0.055838  0  3.255734  0
N  N119  1  0.25562658  0.22884098  0.55590531  1  -0.784833  0  -0.247987  -0.270199  0  3.509032  0
N  N120  1  0.28719473  0.41438166  0.70490627  1  -0.805632  0  -0.254924  -0.286863  0  3.510495  0
N  N121  1  0.41330082  0.43488510  0.70249638  1  -0.075158  0  -0.106188  -0.087665  0  3.240666  0
N  N122  1  0.42722552  0.52314010  0.73245030  1  -0.109802  0  -0.103835  -0.081543  0  3.239348  0
N  N123  1  0.31076826  0.56189162  0.75507739  1  -0.791145  0  -0.254232  -0.276419  0  3.512035  0
N  N124  1  0.45785867  0.74994609  0.79068476  1  -0.813697  0  -0.249553  -0.272464  0  3.504173  0
N  N125  1  0.53718095  0.79310948  0.85293039  1  -0.093477  0  -0.083311  -0.058407  0  3.273919  0
N  N126  1  0.64630086  0.80617799  0.82392237  1  -0.101904  0  -0.091434  -0.076897  0  3.271248  0
N  N127  1  0.64102709  0.77131117  0.74188784  1  -0.811234  0  -0.251929  -0.283256  0  3.498676  0
N  N128  1  0.06516472  0.26528385  0.70823357  1  -0.788118  0  -0.255818  -0.282926  0  3.516778  0
N  N129  1  0.97650690  0.23657064  0.64810063  1  -0.110568  0  -0.09707  -0.083764  0  3.250143  0
N  N130  1  0.86689471  0.23143332  0.68022998  1  -0.084933  0  -0.086083  -0.058196  0  3.256696  0
N  N131  1  0.88095208  0.25714003  0.76185579  1  -0.805594  0  -0.254529  -0.277485  0  3.492908  0
N  N132  1  0.25919618  0.71181719  0.92845179  1  -0.806782  0  -0.25377  -0.279121  0  3.492634  0
N  N133  1  0.18174093  0.64482612  0.93762167  1  -0.120151  0  -0.093598  -0.08337  0  3.255359  0
N  N134  1  0.17341120  0.65514974  0.01371647  1  -0.081287  0  -0.083188  -0.055954  0  3.255698  0
N  N135  1  0.24437154  0.72883606  0.05590744  1  -0.782353  0  -0.247923  -0.2702  0  3.508762  0
N  N136  1  0.78719096  0.08561534  0.79508881  1  -0.805695  0  -0.25497  -0.286944  0  3.510543  0
N  N137  1  0.91329900  0.06511459  0.79750235  1  -0.075115  0  -0.106199  -0.08767  0  3.240652  0
N  N138  1  0.92722583  0.97686074  0.76755004  1  -0.109814  0  -0.103851  -0.081582  0  3.239423  0
N  N139  1  0.81077339  0.93810722  0.74492064  1  -0.79118  0  -0.254189  -0.276384  0  3.512121  0
N  N140  1  0.95785744  0.75005613  0.70932396  1  -0.813543  0  -0.24955  -0.272497  0  3.50402  0
N  N141  1  0.03718505  0.70689979  0.64707858  1  -0.093196  0  -0.083424  -0.058577  0  3.273989  0
N  N142  1  0.14630404  0.69383329  0.67608891  1  -0.101679  0  -0.091442  -0.076886  0  3.271577  0
N  N143  1  0.14102166  0.72869601  0.75812396  1  -0.811839  0  -0.251932  -0.283296  0  3.498909  0
N  N144  1  0.56516546  0.23472079  0.79176368  1  -0.787836  0  -0.255835  -0.283049  0  3.51689  0
N  N145  1  0.47650814  0.26343791  0.85189670  1  -0.11062  0  -0.096976  -0.083586  0  3.249867  0
N  N146  1  0.36689688  0.26857528  0.81976677  1  -0.085324  0  -0.08613  -0.058276  0  3.256396  0
N  N147  1  0.38095426  0.24286240  0.73814089  1  -0.80519  0  -0.254567  -0.277447  0  3.49278  0
N  N148  1  0.75918813  0.78817348  0.57155184  1  -0.806745  0  -0.253739  -0.279019  0  3.492832  0
N  N149  1  0.68173086  0.85516253  0.56238021  1  -0.120209  0  -0.093723  -0.083772  0  3.255886  0
N  N150  1  0.67340423  0.84483815  0.48628535  1  -0.081013  0  -0.083123  -0.055739  0  3.255749  0
N  N151  1  0.74436753  0.77115317  0.44409478  1  -0.782839  0  -0.247932  -0.270069  0  3.508855  0
