# generated using pymatgen
data_Cd3H24C28(BrN2)6
_symmetry_space_group_name_H-M   'P 1'
_cell_length_a   8.25672704
_cell_length_b   9.94398252
_cell_length_c   24.65800000
_cell_angle_alpha   100.92180066
_cell_angle_beta   90.00000000
_cell_angle_gamma   114.52936546
_symmetry_Int_Tables_number   1
_chemical_formula_structural   Cd3H24C28(BrN2)6
_chemical_formula_sum   'Cd6 H48 C56 Br12 N24'
_cell_volume   1801.43468918
_cell_formula_units_Z   2
loop_
 _symmetry_equiv_pos_site_id
 _symmetry_equiv_pos_as_xyz
  1  'x, y, z'
loop_
 _atom_site_type_symbol
 _atom_site_label
 _atom_site_symmetry_multiplicity
 _atom_site_fract_x
 _atom_site_fract_y
 _atom_site_fract_z
 _atom_site_occupancy
 _atom_site_hle17_bader_spin_density
 _atom_site_hle17_ddec_charge
 _atom_site_hle17_ddec_spin_density
 _atom_site_hle17_ddec_sum_bond_order
 _atom_site_hle17_magmom
 _atom_site_hse06_10hf_bader_spin_density
 _atom_site_hse06_10hf_ddec_charge
 _atom_site_hse06_10hf_ddec_spin_density
 _atom_site_hse06_10hf_ddec_sum_bond_order
 _atom_site_hse06_10hf_magmom
 _atom_site_hse06_bader_spin_density
 _atom_site_hse06_ddec_charge
 _atom_site_hse06_ddec_spin_density
 _atom_site_hse06_ddec_sum_bond_order
 _atom_site_hse06_magmom
 _atom_site_pbe_bader_charge
 _atom_site_pbe_bader_spin_density
 _atom_site_pbe_cm5_charge
 _atom_site_pbe_ddec_charge
 _atom_site_pbe_ddec_spin_density
 _atom_site_pbe_ddec_sum_bond_order
 _atom_site_pbe_magmom
Cd  Cd0  1  0.99047715  0.98257654  0.58096520  1  0  0.857451  0  2.019833  0  0  0.693182  0  2.498496  0  0  0.741076  0  2.456132  0  0.99697  0  0.514079  0.659299  0  2.528056  0
Cd  Cd1  1  0.00799551  0.01739120  0.91903992  1  0  0.857482  0  2.020135  0  0  0.693122  0  2.49856  0  0  0.741094  0  2.456132  0  0.996693  0  0.51399  0.658944  0  2.529456  0
Cd  Cd2  1  0.00951976  0.01742397  0.41903512  1  0  0.857445  0  2.019891  0  0  0.693181  0  2.49856  0  0  0.741074  0  2.456192  0  0.996953  0  0.514067  0.659298  0  2.528121  0
Cd  Cd3  1  0.99200447  0.98260818  0.08095869  1  0  0.857496  0  2.020112  0  0  0.693141  0  2.498527  0  0  0.74111  0  2.456101  0  0.996581  0  0.51401  0.658961  0  2.529429  0
Cd  Cd4  1  0.00335806  0.00014692  0.74996621  1  0  0.927892  0  1.859231  0  0  0.737964  0  2.323495  0  0  0.787805  0  2.282186  0  1.088287  0  0.622054  0.703482  0  2.352266  0
Cd  Cd5  1  0.99664443  0.99985020  0.25003385  1  0  0.927846  0  1.859258  0  0  0.737918  0  2.323529  0  0  0.787754  0  2.282217  0  1.088233  0  0.622058  0.703436  0  2.352301  0
H  H6  1  0.28721774  0.32196202  0.56520769  1  0  0.102083  0  0.966301  0  0  0.106737  0  1.039987  0  0  0.109544  0  1.038685  0  0.080522  0  0.096363  0.104189  0  1.042103  0
H  H7  1  0.96551702  0.67789496  0.93476666  1  0  0.102258  0  0.966441  0  0  0.107273  0  1.039614  0  0  0.110102  0  1.038285  0  0.082758  0  0.096251  0.104281  0  1.042337  0
H  H8  1  0.71278337  0.67803962  0.43479231  1  0  0.102093  0  0.966303  0  0  0.106772  0  1.03996  0  0  0.109582  0  1.038658  0  0.080612  0  0.096367  0.104223  0  1.042077  0
H  H9  1  0.03448587  0.32210781  0.06523424  1  0  0.102254  0  0.966471  0  0  0.107267  0  1.039642  0  0  0.110097  0  1.038313  0  0.082743  0  0.096255  0.104276  0  1.042366  0
H  H10  1  0.08940463  0.44556405  0.55074609  1  0  0.085088  0  0.967359  0  0  0.093512  0  1.035217  0  0  0.096319  0  1.03345  0  0.047696  0  0.090956  0.091264  0  1.037023  0
H  H11  1  0.64411205  0.55431666  0.94926577  1  0  0.085965  0  0.965713  0  0  0.094477  0  1.033286  0  0  0.097224  0  1.031573  0  0.05263  0  0.091231  0.091679  0  1.036218  0
H  H12  1  0.91059713  0.55443646  0.44925383  1  0  0.085081  0  0.967302  0  0  0.093558  0  1.035113  0  0  0.096343  0  1.033372  0  0.047675  0  0.090984  0.091311  0  1.036919  0
H  H13  1  0.35589214  0.44568385  0.05073496  1  0  0.085973  0  0.965792  0  0  0.094488  0  1.033356  0  0  0.097236  0  1.031642  0  0.053363  0  0.091248  0.091691  0  1.036286  0
H  H14  1  0.21045780  0.71861644  0.55084470  1  0  0.094842  0  0.972205  0  0  0.10153  0  1.04137  0  0  0.104298  0  1.040094  0  0.113901  0  0.089016  0.099292  0  1.042982  0
H  H15  1  0.49210173  0.28134790  0.94919625  1  0  0.094538  0  0.972268  0  0  0.101084  0  1.041931  0  0  0.103957  0  1.040442  0  0.123172  0  0.089109  0.099005  0  1.043034  0
H  H16  1  0.78954275  0.28138407  0.44915562  1  0  0.094818  0  0.972221  0  0  0.101532  0  1.041363  0  0  0.104301  0  1.040085  0  0.1139  0  0.089002  0.099293  0  1.042977  0
H  H17  1  0.50790237  0.71865487  0.05080384  1  0  0.094523  0  0.972257  0  0  0.101072  0  1.041926  0  0  0.103946  0  1.040434  0  0.123152  0  0.089098  0.098992  0  1.04303  0
H  H18  1  0.53932476  0.87777843  0.55883535  1  0  0.113255  0  0.957984  0  0  0.119613  0  1.023721  0  0  0.123099  0  1.021196  0  0.092305  0  0.09639  0.116963  0  1.025776  0
H  H19  1  0.66166093  0.12210568  0.94127003  1  0  0.113908  0  0.956641  0  0  0.120547  0  1.021851  0  0  0.124009  0  1.019395  0  0.142601  0  0.096381  0.117294  0  1.025275  0
H  H20  1  0.46067635  0.12222321  0.44116546  1  0  0.11323  0  0.958002  0  0  0.119591  0  1.023736  0  0  0.123082  0  1.021206  0  0.092319  0  0.096381  0.116942  0  1.025793  0
H  H21  1  0.33834027  0.87789370  0.05872899  1  0  0.113909  0  0.956649  0  0  0.120554  0  1.021855  0  0  0.12402  0  1.019395  0  0.142598  0  0.096379  0.117298  0  1.025284  0
H  H22  1  0.02839238  0.32989248  0.66825180  1  0  0.106987  0  0.990844  0  0  0.110878  0  1.06462  0  0  0.114364  0  1.062885  0  0.119416  0  0.090153  0.10837  0  1.066249  0
H  H23  1  0.69854164  0.67058383  0.83174433  1  0  0.107153  0  0.991047  0  0  0.110996  0  1.064924  0  0  0.114408  0  1.063259  0  0.101935  0  0.09022  0.107945  0  1.067026  0
H  H24  1  0.97160647  0.67010463  0.33174705  1  0  0.106933  0  0.990877  0  0  0.110842  0  1.064633  0  0  0.11433  0  1.062901  0  0.119481  0  0.090137  0.108333  0  1.066261  0
H  H25  1  0.30145696  0.32942007  0.16825828  1  0  0.107116  0  0.990961  0  0  0.110926  0  1.064871  0  0  0.114332  0  1.063213  0  0.101985  0  0.090196  0.107876  0  1.06697  0
H  H26  1  0.35729504  0.44394789  0.68794233  1  0  0.081888  0  0.966487  0  0  0.091331  0  1.032565  0  0  0.093943  0  1.031418  0  0.053683  0  0.093248  0.088959  0  1.034405  0
H  H27  1  0.91389560  0.55704152  0.81210516  1  0  0.082179  0  0.966901  0  0  0.091206  0  1.033689  0  0  0.093855  0  1.032455  0  0.024197  0  0.093331  0.089168  0  1.034889  0
H  H28  1  0.64269978  0.55604357  0.31205689  1  0  0.08184  0  0.966421  0  0  0.0913  0  1.032493  0  0  0.093916  0  1.031339  0  0.053656  0  0.093235  0.088927  0  1.034334  0
H  H29  1  0.08610600  0.44296351  0.18789632  1  0  0.082199  0  0.966857  0  0  0.091229  0  1.033645  0  0  0.093878  0  1.03241  0  0.024232  0  0.093342  0.08919  0  1.034845  0
H  H30  1  0.53301019  0.72151761  0.71792703  1  0  0.091944  0  0.9752  0  0  0.091985  0  1.057008  0  0  0.095315  0  1.054882  0  0.074811  0  0.090444  0.089537  0  1.058684  0
H  H31  1  0.81261963  0.27947520  0.78214141  1  0  0.092405  0  0.973997  0  0  0.093266  0  1.05424  0  0  0.096523  0  1.052251  0  0.092184  0  0.0908  0.090055  0  1.057553  0
H  H32  1  0.46698947  0.27847386  0.28207301  1  0  0.091922  0  0.975191  0  0  0.091972  0  1.05698  0  0  0.095302  0  1.054854  0  0.074773  0  0.090418  0.089523  0  1.058658  0
H  H33  1  0.18738075  0.72052983  0.21785886  1  0  0.092469  0  0.974021  0  0  0.093357  0  1.054193  0  0  0.096615  0  1.052204  0  0.092028  0  0.090826  0.090141  0  1.057511  0
H  H34  1  0.38356046  0.89444292  0.73299819  1  0  0.107104  0  0.968514  0  0  0.115964  0  1.032286  0  0  0.118975  0  1.030079  0  0.09554  0  0.098456  0.113651  0  1.034297  0
H  H35  1  0.49045242  0.10620293  0.76697520  1  0  0.10632  0  0.969753  0  0  0.115619  0  1.033179  0  0  0.1186  0  1.03099  0  0.09615  0  0.098377  0.113673  0  1.034487  0
H  H36  1  0.61644332  0.10555194  0.26700170  1  0  0.107169  0  0.96853  0  0  0.116062  0  1.032249  0  0  0.11905  0  1.030076  0  0.09542  0  0.098498  0.113749  0  1.034261  0
H  H37  1  0.50955039  0.89380211  0.23302385  1  0  0.106388  0  0.969691  0  0  0.115678  0  1.033127  0  0  0.118657  0  1.030939  0  0.096091  0  0.098386  0.113731  0  1.034436  0
H  H38  1  0.79831633  0.36175562  0.57565153  1  0  0.097226  0  0.93671  0  0  0.10972  0  1.005874  0  0  0.111091  0  1.003432  0  0.108948  0  0.111631  0.108466  0  1.007074  0
H  H39  1  0.43660993  0.63811831  0.92428721  1  0  0.097091  0  0.938132  0  0  0.109106  0  1.006935  0  0  0.110688  0  1.004608  0  0.118709  0  0.111526  0.10808  0  1.008172  0
H  H40  1  0.20168244  0.63824376  0.42434789  1  0  0.097213  0  0.93668  0  0  0.109725  0  1.005818  0  0  0.111094  0  1.00337  0  0.108966  0  0.111628  0.108471  0  1.007018  0
H  H41  1  0.56338989  0.36188559  0.07571378  1  0  0.097071  0  0.938164  0  0  0.109114  0  1.006944  0  0  0.110682  0  1.004616  0  0.118537  0  0.11155  0.108088  0  1.00818  0
H  H42  1  0.56226823  0.27431254  0.57519774  1  0  0.106266  0  0.912746  0  0  0.122558  0  0.973635  0  0  0.123652  0  0.971868  0  0.10731  0  0.11848  0.121593  0  0.974181  0
H  H43  1  0.28796387  0.72550940  0.92478934  1  0  0.106375  0  0.913192  0  0  0.122049  0  0.973728  0  0  0.12328  0  0.972215  0  0.110178  0  0.118502  0.121273  0  0.974372  0
H  H44  1  0.43773111  0.72568797  0.42480136  1  0  0.106279  0  0.912733  0  0  0.122564  0  0.973634  0  0  0.123655  0  0.971863  0  0.107302  0  0.118483  0.1216  0  0.974179  0
H  H45  1  0.71203304  0.27449111  0.07521179  1  0  0.106349  0  0.913176  0  0  0.122021  0  0.973743  0  0  0.123239  0  0.972226  0  0.110229  0  0.1185  0.121246  0  0.974386  0
H  H46  1  0.57582182  0.39812705  0.67374126  1  0  0.093815  0  0.93683  0  0  0.107205  0  1.003501  0  0  0.10851  0  1.001489  0  0.090152  0  0.114575  0.10593  0  1.004672  0
H  H47  1  0.17772426  0.60176271  0.82620072  1  0  0.094355  0  0.936285  0  0  0.10746  0  1.003181  0  0  0.108712  0  1.001207  0  0.089905  0  0.114828  0.106299  0  1.004241  0
H  H48  1  0.42417760  0.60187120  0.32625848  1  0  0.093851  0  0.936736  0  0  0.107184  0  1.003456  0  0  0.108491  0  1.001451  0  0.090162  0  0.114591  0.105909  0  1.004628  0
H  H49  1  0.82227443  0.39823893  0.17380010  1  0  0.094382  0  0.936293  0  0  0.107441  0  1.003223  0  0  0.108687  0  1.00126  0  0.089974  0  0.114812  0.10628  0  1.004284  0
H  H50  1  0.70843566  0.29526154  0.66706365  1  0  0.10715  0  0.925105  0  0  0.121834  0  0.988847  0  0  0.122796  0  0.987688  0  0.124242  0  0.113618  0.120731  0  0.989319  0
H  H51  1  0.41316973  0.70474575  0.83293476  1  0  0.107184  0  0.92626  0  0  0.122102  0  0.989369  0  0  0.123177  0  0.988061  0  0.133238  0  0.113825  0.121241  0  0.989596  0
H  H52  1  0.29156432  0.70473784  0.33293496  1  0  0.107133  0  0.925079  0  0  0.121804  0  0.988817  0  0  0.122771  0  0.987671  0  0.124681  0  0.113608  0.120704  0  0.989286  0
H  H53  1  0.58682831  0.29525702  0.16706614  1  0  0.107178  0  0.92625  0  0  0.122107  0  0.989325  0  0  0.123185  0  0.988019  0  0.133165  0  0.113826  0.121246  0  0.989552  0
C  C54  1  0.59756161  0.68713417  0.56696178  1  0  0.116253  0  3.827262  0  0  0.110908  0  4.079952  0  0  0.112423  0  4.100765  0  0.396233  0  0.090919  0.110095  0  4.06365  0
C  C55  1  0.91066826  0.31274541  0.93315948  1  0  0.118022  0  3.827091  0  0  0.112072  0  4.079165  0  0  0.113706  0  4.100459  0  0.389806  0  0.092024  0.111193  0  4.063823  0
C  C56  1  0.40243950  0.31286747  0.43303862  1  0  0.116209  0  3.827261  0  0  0.110866  0  4.07992  0  0  0.112378  0  4.100733  0  0.396252  0  0.09091  0.110055  0  4.063617  0
C  C57  1  0.08933294  0.68725397  0.06684116  1  0  0.118056  0  3.827101  0  0  0.112069  0  4.079211  0  0  0.113701  0  4.100513  0  0.389793  0  0.09205  0.111192  0  4.063868  0
C  C58  1  0.52633129  0.53294158  0.56994659  1  0  0.094389  0  3.782918  0  0  0.070036  0  4.024692  0  0  0.084595  0  4.049079  0  0.383308  0  0.105017  0.067727  0  4.009739  0
C  C59  1  0.99358118  0.46688714  0.93011726  1  0  0.093413  0  3.782457  0  0  0.072349  0  4.02371  0  0  0.084318  0  4.048112  0  0.238735  0  0.104763  0.068129  0  4.008977  0
C  C60  1  0.47366983  0.46706006  0.43005342  1  0  0.094444  0  3.783004  0  0  0.070143  0  4.024719  0  0  0.084703  0  4.049102  0  0.383284  0  0.105054  0.067833  0  4.009765  0
C  C61  1  0.00642357  0.53311450  0.06988396  1  0  0.093312  0  3.782652  0  0  0.072283  0  4.023825  0  0  0.084227  0  4.048231  0  0.238733  0  0.104743  0.068058  0  4.009093  0
C  C62  1  0.34241093  0.44144229  0.56379720  1  0  -0.141398  0  3.755583  0  0  -0.157388  0  4.012022  0  0  -0.161863  0  4.031833  0  -0.013622  0  -0.093819  -0.15461  0  3.998176  0
C  C63  1  0.90126132  0.55845425  0.93623371  1  0  -0.141207  0  3.756873  0  0  -0.157875  0  4.012734  0  0  -0.162186  0  4.032874  0  0.058506  0  -0.093574  -0.154346  0  3.998891  0
C  C64  1  0.65758840  0.55855822  0.43620353  1  0  -0.141512  0  3.755633  0  0  -0.157556  0  4.012106  0  0  -0.162038  0  4.031913  0  -0.013743  0  -0.093887  -0.154777  0  3.99826  0
C  C65  1  0.09874278  0.44154852  0.06376719  1  0  -0.141088  0  3.756946  0  0  -0.157766  0  4.012785  0  0  -0.162078  0  4.032928  0  0.058608  0  -0.093548  -0.154237  0  3.998942  0
C  C66  1  0.23352651  0.51266730  0.55624238  1  0  -0.037856  0  3.74413  0  0  -0.05905  0  4.001958  0  0  -0.059706  0  4.024349  0  0.010787  0  -0.087625  -0.058623  0  3.987055  0
C  C67  1  0.72118540  0.48725184  0.94381134  1  0  -0.038737  0  3.741878  0  0  -0.0599  0  3.999646  0  0  -0.060535  0  4.022028  0  -0.043249  0  -0.087724  -0.059327  0  3.985358  0
C  C68  1  0.76647525  0.48733321  0.44375794  1  0  -0.03774  0  3.744031  0  0  -0.058967  0  4.001867  0  0  -0.059605  0  4.024264  0  0.010805  0  -0.087597  -0.05854  0  3.986963  0
C  C69  1  0.27881935  0.51274980  0.05618907  1  0  -0.038794  0  3.742069  0  0  -0.059972  0  3.999863  0  0  -0.060608  0  4.022244  0  -0.044013  0  -0.087741  -0.059399  0  3.985574  0
C  C70  1  0.30317147  0.66844892  0.55544607  1  0  -0.059951  0  3.729554  0  0  -0.077268  0  3.98466  0  0  -0.080473  0  4.007701  0  -0.115331  0  -0.091433  -0.075241  0  3.969752  0
C  C71  1  0.63503535  0.33148039  0.94463316  1  0  -0.059595  0  3.730722  0  0  -0.076851  0  3.985984  0  0  -0.080053  0  4.008803  0  -0.041153  0  -0.091565  -0.074563  0  3.970177  0
C  C72  1  0.69683086  0.33155272  0.44455434  1  0  -0.060002  0  3.729583  0  0  -0.077357  0  3.984726  0  0  -0.080562  0  4.007761  0  -0.115344  0  -0.09145  -0.075329  0  3.96982  0
C  C73  1  0.36496762  0.66852012  0.05536716  1  0  -0.059613  0  3.730769  0  0  -0.076842  0  3.985989  0  0  -0.080044  0  4.008805  0  -0.041218  0  -0.09158  -0.074554  0  3.970184  0
C  C74  1  0.48557322  0.75830381  0.56013435  1  0  -0.113823  0  3.706827  0  0  -0.131622  0  3.95442  0  0  -0.133233  0  3.974276  0  0.097556  0  -0.086189  -0.130416  0  3.941305  0
C  C75  1  0.72750241  0.24158594  0.93999215  1  0  -0.114753  0  3.705082  0  0  -0.132726  0  3.952712  0  0  -0.134282  0  3.972368  0  0.034794  0  -0.086846  -0.131532  0  3.940616  0
C  C76  1  0.51442733  0.24169670  0.43986597  1  0  -0.113759  0  3.706802  0  0  -0.131557  0  3.95438  0  0  -0.133176  0  3.974244  0  0.097565  0  -0.08617  -0.130344  0  3.941245  0
C  C77  1  0.27250121  0.75841344  0.06000768  1  0  -0.114738  0  3.705021  0  0  -0.132724  0  3.952681  0  0  -0.134287  0  3.972336  0  0.034835  0  -0.086845  -0.131528  0  3.940577  0
C  C78  1  0.11907523  0.70893194  0.70909126  1  0  0.123675  0  3.818208  0  0  0.115782  0  4.072382  0  0  0.117953  0  4.092652  0  0.32638  0  0.093629  0.114413  0  4.056853  0
C  C79  1  0.41089085  0.29137711  0.79089370  1  0  0.122609  0  3.816908  0  0  0.115202  0  4.070699  0  0  0.117349  0  4.091022  0  0.371877  0  0.093642  0.113951  0  4.055312  0
C  C80  1  0.88092911  0.29106405  0.29090831  1  0  0.123756  0  3.818217  0  0  0.115851  0  4.0724  0  0  0.118025  0  4.092669  0  0.326318  0  0.093631  0.114484  0  4.056871  0
C  C81  1  0.58911252  0.70862905  0.20910624  1  0  0.122518  0  3.817191  0  0  0.11517  0  4.070915  0  0  0.11731  0  4.091233  0  0.372011  0  0.093702  0.113923  0  4.05553  0
C  C82  1  0.02306511  0.55142566  0.68954613  1  0  0.095294  0  3.783385  0  0  0.07295  0  4.02368  0  0  0.087168  0  4.048354  0  0.345619  0  0.105945  0.070839  0  4.00864  0
C  C83  1  0.47207112  0.44885174  0.81042790  1  0  0.096151  0  3.783855  0  0  0.073936  0  4.02409  0  0  0.087788  0  4.048716  0  0.385851  0  0.106413  0.071564  0  4.009063  0
C  C84  1  0.97693495  0.44857146  0.31045353  1  0  0.095151  0  3.783378  0  0  0.072828  0  4.023692  0  0  0.087032  0  4.048366  0  0.345964  0  0.105923  0.070717  0  4.008652  0
C  C85  1  0.52792935  0.55115103  0.18957421  1  0  0.096228  0  3.783944  0  0  0.073913  0  4.024242  0  0  0.087791  0  4.048838  0  0.385731  0  0.106357  0.071527  0  4.009234  0
C  C86  1  0.10444988  0.45165233  0.68181595  1  0  -0.139864  0  3.740381  0  0  -0.154836  0  3.991981  0  0  -0.159806  0  4.01127  0  0.069953  0  -0.094387  -0.151927  0  3.978049  0
C  C87  1  0.65313940  0.54885111  0.81818062  1  0  -0.139223  0  3.740874  0  0  -0.154575  0  3.99283  0  0  -0.159411  0  4.012082  0  -0.00749  0  -0.094338  -0.150776  0  3.978202  0
C  C88  1  0.89554728  0.54834140  0.31818304  1  0  -0.139739  0  3.740371  0  0  -0.154726  0  3.991966  0  0  -0.159702  0  4.011269  0  0.069669  0  -0.094356  -0.151817  0  3.978033  0
C  C89  1  0.34685929  0.45115053  0.18182182  1  0  -0.139124  0  3.740662  0  0  -0.154419  0  3.992691  0  0  -0.159258  0  4.011936  0  -0.007344  0  -0.094257  -0.150617  0  3.978066  0
C  C90  1  0.28842833  0.51762314  0.69320269  1  0  -0.041855  0  3.753963  0  0  -0.062455  0  4.009598  0  0  -0.063124  0  4.032349  0  -0.068488  0  -0.08837  -0.061332  0  3.994223  0
C  C91  1  0.77143185  0.48317302  0.80682801  1  0  -0.044198  0  3.756776  0  0  -0.06485  0  4.013128  0  0  -0.065529  0  4.035717  0  0.005451  0  -0.089011  -0.063776  0  3.996842  0
C  C92  1  0.71157181  0.48237172  0.30679639  1  0  -0.041789  0  3.753814  0  0  -0.062401  0  4.009458  0  0  -0.06307  0  4.032212  0  -0.068418  0  -0.088359  -0.061278  0  3.994083  0
C  C93  1  0.22856974  0.51683201  0.19317387  1  0  -0.044266  0  3.756836  0  0  -0.064922  0  4.013161  0  0  -0.0656  0  4.03575  0  0.005446  0  -0.089085  -0.063845  0  3.996871  0
C  C94  1  0.38805251  0.67561878  0.71073963  1  0  -0.060843  0  3.72998  0  0  -0.076716  0  3.986152  0  0  -0.079741  0  4.008869  0  -0.010911  0  -0.090761  -0.074772  0  3.970799  0
C  C95  1  0.71341948  0.32522032  0.78930814  1  0  -0.060311  0  3.727179  0  0  -0.076587  0  3.983445  0  0  -0.079638  0  4.006257  0  0.010887  0  -0.090844  -0.074306  0  3.968759  0
C  C96  1  0.61194949  0.32437495  0.28926099  1  0  -0.060836  0  3.729864  0  0  -0.07671  0  3.986054  0  0  -0.079734  0  4.008768  0  -0.010786  0  -0.090737  -0.074767  0  3.970701  0
C  C97  1  0.28658155  0.67478358  0.21069325  1  0  -0.060442  0  3.727237  0  0  -0.076737  0  3.983542  0  0  -0.07979  0  4.006356  0  0.011004  0  -0.090879  -0.074449  0  3.968858  0
C  C98  1  0.30572583  0.77345499  0.71928740  1  0  -0.106134  0  3.710446  0  0  -0.124985  0  3.958794  0  0  -0.12657  0  3.978737  0  0.05271  0  -0.084412  -0.124011  0  3.946191  0
C  C99  1  0.53333195  0.22715582  0.78072630  1  0  -0.105824  0  3.706941  0  0  -0.125303  0  3.955855  0  0  -0.126843  0  3.975803  0  0.015006  0  -0.084732  -0.124508  0  3.942282  0
C  C100  1  0.69427682  0.22653761  0.28071232  1  0  -0.106238  0  3.710454  0  0  -0.125115  0  3.958818  0  0  -0.12669  0  3.978765  0  0.052682  0  -0.084428  -0.124141  0  3.946216  0
C  C101  1  0.46667150  0.77284808  0.21927347  1  0  -0.105823  0  3.706946  0  0  -0.125282  0  3.955788  0  0  -0.12683  0  3.975753  0  0.014999  0  -0.084708  -0.124487  0  3.942212  0
C  C102  1  0.68297744  0.37560823  0.59321700  1  0  -0.033533  0  3.606503  0  0  -0.112704  0  3.869326  0  0  -0.098568  0  3.879116  0  0.32753  0  -0.04389  -0.114662  0  3.863118  0
C  C103  1  0.30738848  0.62424197  0.90673696  1  0  -0.034209  0  3.609442  0  0  -0.109397  0  3.870477  0  0  -0.09796  0  3.880313  0  0.300441  0  -0.043363  -0.112661  0  3.863466  0
C  C104  1  0.31702376  0.62439115  0.40678242  1  0  -0.033549  0  3.606604  0  0  -0.11273  0  3.86939  0  0  -0.098568  0  3.879165  0  0.32753  0  -0.043898  -0.114688  0  3.863181  0
C  C105  1  0.69261078  0.37576080  0.09326354  1  0  -0.03409  0  3.609411  0  0  -0.109364  0  3.870488  0  0  -0.097879  0  3.880236  0  0.30051  0  -0.043342  -0.112632  0  3.863473  0
C  C106  1  0.69576144  0.39309323  0.65654221  1  0  -0.032437  0  3.606219  0  0  -0.109079  0  3.866346  0  0  -0.095293  0  3.87658  0  0.280887  0  -0.044372  -0.110722  0  3.859943  0
C  C107  1  0.30269613  0.60683947  0.84342048  1  0  -0.0336  0  3.609088  0  0  -0.110416  0  3.868223  0  0  -0.096744  0  3.87854  0  0.271843  0  -0.044578  -0.111974  0  3.861989  0
C  C108  1  0.30423798  0.60690502  0.34345794  1  0  -0.032444  0  3.606157  0  0  -0.108988  0  3.866242  0  0  -0.095253  0  3.876509  0  0.280435  0  -0.044346  -0.110633  0  3.859844  0
C  C109  1  0.69730191  0.39316330  0.15658123  1  0  -0.033605  0  3.609044  0  0  -0.110376  0  3.868175  0  0  -0.096708  0  3.878453  0  0.271897  0  -0.044562  -0.111934  0  3.861941  0
Br  Br110  1  0.80303457  0.04261453  0.67524126  1  0  -0.512287  0  1.03404  0  0  -0.442008  0  1.344537  0  0  -0.463728  0  1.322559  0  -0.572449  0  -0.252911  -0.426582  0  1.359922  0
Br  Br111  1  0.76072312  0.95804939  0.82474040  1  0  -0.513242  0  1.033352  0  0  -0.443706  0  1.344227  0  0  -0.465437  0  1.322438  0  -0.573188  0  -0.25311  -0.426778  0  1.359508  0
Br  Br112  1  0.19695056  0.95737694  0.32475959  1  0  -0.512237  0  1.034069  0  0  -0.44197  0  1.344592  0  0  -0.463689  0  1.322616  0  -0.572314  0  -0.2529  -0.426547  0  1.359981  0
Br  Br113  1  0.23927202  0.04194999  0.17525781  1  0  -0.51321  0  1.033329  0  0  -0.44369  0  1.344234  0  0  -0.465401  0  1.322416  0  -0.573173  0  -0.253092  -0.426758  0  1.359513  0
Br  Br114  1  0.28102401  0.07936569  0.64444323  1  0  -0.536403  0  0.944562  0  0  -0.469611  0  1.233432  0  0  -0.489701  0  1.213449  0  -0.57928  0  -0.286122  -0.454838  0  1.248148  0
Br  Br115  1  0.20176044  0.92086198  0.85552944  1  0  -0.53631  0  0.945581  0  0  -0.469029  0  1.233982  0  0  -0.489037  0  1.213953  0  -0.578122  0  -0.285958  -0.454396  0  1.248544  0
Br  Br116  1  0.71897476  0.92063369  0.35555701  1  0  -0.53641  0  0.944574  0  0  -0.469622  0  1.233454  0  0  -0.489708  0  1.213469  0  -0.57931  0  -0.286115  -0.454851  0  1.248173  0
Br  Br117  1  0.79821161  0.07912271  0.14446075  1  0  -0.536331  0  0.945516  0  0  -0.46905  0  1.233903  0  0  -0.489057  0  1.213871  0  -0.578062  0  -0.285993  -0.454416  0  1.248463  0
Br  Br118  1  0.86493313  0.11403055  0.51950370  1  0  -0.509219  0  1.063546  0  0  -0.437976  0  1.369339  0  0  -0.458448  0  1.345351  0  -0.564024  0  -0.246553  -0.422612  0  1.385343  0
Br  Br119  1  0.75077725  0.88585808  0.98036600  1  0  -0.509282  0  1.061291  0  0  -0.437772  0  1.36565  0  0  -0.458216  0  1.341768  0  -0.564454  0  -0.24642  -0.422341  0  1.384529  0
Br  Br120  1  0.13506741  0.88596996  0.48049581  1  0  -0.509249  0  1.063545  0  0  -0.438014  0  1.369343  0  0  -0.458483  0  1.345348  0  -0.564036  0  -0.246577  -0.422654  0  1.385354  0
Br  Br121  1  0.24922451  0.11414243  0.01963230  1  0  -0.509286  0  1.061279  0  0  -0.437759  0  1.365601  0  0  -0.458203  0  1.341716  0  -0.564466  0  -0.246416  -0.422335  0  1.384493  0
N  N122  1  0.67383305  0.50573252  0.57741743  1  0  0.002858  0  3.522386  0  0  0.118027  0  3.71302  0  0  0.074706  0  3.776486  0  -0.783289  0  -0.125127  0.125161  0  3.697276  0
N  N123  1  0.16822915  0.49407812  0.92255743  1  0  0.004063  0  3.523878  0  0  0.112213  0  3.721011  0  0  0.075408  0  3.777607  0  -0.764285  0  -0.125752  0.123419  0  3.700845  0
N  N124  1  0.32616750  0.49426799  0.42258208  1  0  0.002811  0  3.52253  0  0  0.117945  0  3.713181  0  0  0.074626  0  3.776628  0  -0.783337  0  -0.12513  0.12508  0  3.697436  0
N  N125  1  0.83177261  0.50592239  0.07744370  1  0  0.004032  0  3.523951  0  0  0.112268  0  3.720975  0  0  0.075508  0  3.777498  0  -0.764156  0  -0.125752  0.123485  0  3.700799  0
N  N126  1  0.82554530  0.63156440  0.57861448  1  0  -0.048359  0  2.864364  0  0  -0.072503  0  3.147827  0  0  -0.054041  0  3.16384  0  -0.056341  0  -0.073946  -0.0773  0  3.14037  0
N  N127  1  0.19416953  0.36828241  0.92137491  1  0  -0.047778  0  2.864576  0  0  -0.069529  0  3.148699  0  0  -0.053511  0  3.164048  0  -0.060022  0  -0.072973  -0.075671  0  3.140537  0
N  N128  1  0.17445524  0.36843611  0.42138503  1  0  -0.048278  0  2.864307  0  0  -0.072405  0  3.147761  0  0  -0.053947  0  3.163775  0  -0.056332  0  -0.073933  -0.077202  0  3.140305  0
N  N129  1  0.80583280  0.63171923  0.07862550  1  0  -0.047813  0  2.864591  0  0  -0.069585  0  3.148697  0  0  -0.053592  0  3.164043  0  -0.059945  0  -0.072986  -0.075732  0  3.140535  0
N  N130  1  0.78081404  0.73969654  0.57209527  1  0  -0.25589  0  3.240537  0  0  -0.19754  0  3.541192  0  0  -0.212088  0  3.554104  0  -0.689741  0  -0.220244  -0.187134  0  3.529932  0
N  N131  1  0.04136488  0.26021808  0.92798122  1  0  -0.257584  0  3.242929  0  0  -0.199268  0  3.543381  0  0  -0.213781  0  3.556978  0  -0.637441  0  -0.221329  -0.188774  0  3.532515  0
N  N132  1  0.21918828  0.26030510  0.42790473  1  0  -0.255946  0  3.240524  0  0  -0.197613  0  3.541199  0  0  -0.212159  0  3.554109  0  -0.689711  0  -0.220262  -0.187211  0  3.529946  0
N  N133  1  0.95863809  0.73978243  0.07201870  1  0  -0.257576  0  3.242903  0  0  -0.199258  0  3.543359  0  0  -0.213771  0  3.556967  0  -0.637457  0  -0.221357  -0.188763  0  3.532493  0
N  N134  1  0.84848961  0.52965050  0.68317270  1  0  0.005768  0  3.543677  0  0  0.11889  0  3.73436  0  0  0.075623  0  3.797898  0  -0.784374  0  -0.124833  0.125913  0  3.718374  0
N  N135  1  0.31910374  0.47039069  0.81678166  1  0  0.006946  0  3.5444  0  0  0.119251  0  3.735622  0  0  0.076874  0  3.798232  0  -0.77654  0  -0.124779  0.126309  0  3.720033  0
N  N136  1  0.15151336  0.47035001  0.31682641  1  0  0.005873  0  3.543578  0  0  0.118938  0  3.734289  0  0  0.075724  0  3.797782  0  -0.784383  0  -0.12482  0.125961  0  3.718304  0
N  N137  1  0.68089431  0.52961208  0.18321964  1  0  0.006805  0  3.54456  0  0  0.119155  0  3.73575  0  0  0.076762  0  3.798382  0  -0.776536  0  -0.12482  0.126216  0  3.720164  0
N  N138  1  0.83378131  0.66104173  0.69810461  1  0  -0.047583  0  2.876516  0  0  -0.069507  0  3.15913  0  0  -0.050802  0  3.175629  0  -0.066931  0  -0.071428  -0.074294  0  3.151084  0
N  N139  1  0.17319328  0.33888193  0.80184158  1  0  -0.048088  0  2.874445  0  0  -0.06951  0  3.156916  0  0  -0.051176  0  3.173319  0  -0.064966  0  -0.071253  -0.074492  0  3.149704  0
N  N140  1  0.16622288  0.33895878  0.30189409  1  0  -0.047602  0  2.876411  0  0  -0.069508  0  3.159038  0  0  -0.050817  0  3.175528  0  -0.066963  0  -0.071411  -0.074294  0  3.150992  0
N  N141  1  0.82680598  0.66112084  0.19815770  1  0  -0.048174  0  2.874468  0  0  -0.069631  0  3.156975  0  0  -0.0513  0  3.173383  0  -0.065573  0  -0.071337  -0.074612  0  3.14976  0
N  N142  1  0.99461805  0.76887324  0.71402776  1  0  -0.269216  0  3.225364  0  0  -0.205604  0  3.525591  0  0  -0.22134  0  3.538006  0  -0.635327  0  -0.217575  -0.194887  0  3.514395  0
N  N143  1  0.22644224  0.23119508  0.78592908  1  0  -0.269026  0  3.221391  0  0  -0.205779  0  3.521227  0  0  -0.22145  0  3.533711  0  -0.681276  0  -0.218036  -0.195177  0  3.51108  0
N  N144  1  0.00538742  0.23112501  0.28597037  1  0  -0.269271  0  3.2253  0  0  -0.205671  0  3.525537  0  0  -0.221407  0  3.537955  0  -0.635347  0  -0.217654  -0.194955  0  3.514344  0
N  N145  1  0.77355936  0.76880995  0.21406996  1  0  -0.268807  0  3.221349  0  0  -0.205555  0  3.521141  0  0  -0.22122  0  3.533622  0  -0.68091  0  -0.217928  -0.194953  0  3.510989  0
