# generated using pymatgen
data_H14PbC12(NCl)2
_symmetry_space_group_name_H-M   'P 1'
_cell_length_a   7.92750625
_cell_length_b   9.62832774
_cell_length_c   9.62819572
_cell_angle_alpha   86.75755007
_cell_angle_beta   88.13053691
_cell_angle_gamma   88.12777320
_symmetry_Int_Tables_number   1
_chemical_formula_structural   H14PbC12(NCl)2
_chemical_formula_sum   'H28 Pb2 C24 N4 Cl4'
_cell_volume   732.98996382
_cell_formula_units_Z   2
loop_
 _symmetry_equiv_pos_site_id
 _symmetry_equiv_pos_as_xyz
  1  'x, y, z'
loop_
 _atom_site_type_symbol
 _atom_site_label
 _atom_site_symmetry_multiplicity
 _atom_site_fract_x
 _atom_site_fract_y
 _atom_site_fract_z
 _atom_site_occupancy
 _atom_site_hle17_bader_spin_density
 _atom_site_hle17_ddec_charge
 _atom_site_hle17_ddec_spin_density
 _atom_site_hle17_ddec_sum_bond_order
 _atom_site_hle17_magmom
 _atom_site_hse06_10hf_bader_spin_density
 _atom_site_hse06_10hf_ddec_charge
 _atom_site_hse06_10hf_ddec_spin_density
 _atom_site_hse06_10hf_ddec_sum_bond_order
 _atom_site_hse06_10hf_magmom
 _atom_site_hse06_bader_spin_density
 _atom_site_hse06_ddec_charge
 _atom_site_hse06_ddec_spin_density
 _atom_site_hse06_ddec_sum_bond_order
 _atom_site_hse06_magmom
 _atom_site_pbe_bader_spin_density
 _atom_site_pbe_cm5_charge
 _atom_site_pbe_ddec_charge
 _atom_site_pbe_ddec_spin_density
 _atom_site_pbe_ddec_sum_bond_order
 _atom_site_pbe_magmom
H  H0  1  0.62375975  0.13461623  0.75556769  1  0  0.066589  0  0.972379  0  0  0.071681  0  1.050118  0  0  0.07347  0  1.04874  0  0  0.102488  0.068814  0  1.053887  0
H  H1  1  0.87625211  0.24443339  0.86537175  1  0  0.066383  0  0.972179  0  0  0.071537  0  1.04987  0  0  0.073328  0  1.04849  0  0  0.102396  0.068668  0  1.053645  0
H  H2  1  0.37624178  0.86537908  0.24444740  1  0  0.066581  0  0.972306  0  0  0.071689  0  1.050018  0  0  0.073478  0  1.048638  0  0  0.102466  0.068819  0  1.053792  0
H  H3  1  0.12376793  0.75557228  0.13463688  1  0  0.066428  0  0.972285  0  0  0.07161  0  1.049942  0  0  0.0734  0  1.048565  0  0  0.102432  0.068737  0  1.053717  0
H  H4  1  0.54304842  0.22931153  0.31889078  1  0  0.097412  0  0.967669  0  0  0.107677  0  1.032417  0  0  0.110458  0  1.030306  0  0  0.095936  0.104762  0  1.035283  0
H  H5  1  0.95692507  0.68111590  0.77070218  1  0  0.097562  0  0.967585  0  0  0.10785  0  1.032333  0  0  0.11063  0  1.030218  0  0  0.095993  0.104933  0  1.035206  0
H  H6  1  0.45694471  0.77070457  0.68112203  1  0  0.097497  0  0.967702  0  0  0.107816  0  1.032384  0  0  0.110597  0  1.030268  0  0  0.096025  0.1049  0  1.035252  0
H  H7  1  0.04305471  0.31888660  0.22930886  1  0  0.097461  0  0.967605  0  0  0.107742  0  1.032353  0  0  0.11052  0  1.030234  0  0  0.095957  0.104827  0  1.03522  0
H  H8  1  0.23824312  0.18224838  0.36601534  1  0  0.10429  0  0.968507  0  0  0.11293  0  1.031873  0  0  0.115998  0  1.030797  0  0  0.09746  0.110551  0  1.032788  0
H  H9  1  0.26175727  0.63400381  0.81773019  1  0  0.104275  0  0.968312  0  0  0.112926  0  1.031694  0  0  0.11601  0  1.030599  0  0  0.097446  0.110558  0  1.032608  0
H  H10  1  0.76175169  0.81775734  0.63400023  1  0  0.104247  0  0.968479  0  0  0.112866  0  1.0319  0  0  0.115957  0  1.030801  0  0  0.097423  0.110511  0  1.032786  0
H  H11  1  0.73824956  0.36601484  0.18224154  1  0  0.104334  0  0.968272  0  0  0.112937  0  1.031681  0  0  0.116039  0  1.03057  0  0  0.097451  0.110557  0  1.032608  0
H  H12  1  0.13903121  0.11889458  0.61061386  1  0  0.072806  0  0.97427  0  0  0.08076  0  1.04357  0  0  0.083038  0  1.041633  0  0  0.104  0.07911  0  1.04449  0
H  H13  1  0.36096749  0.38939494  0.88106259  1  0  0.072794  0  0.974256  0  0  0.08076  0  1.043432  0  0  0.083042  0  1.041485  0  0  0.103953  0.079068  0  1.04441  0
H  H14  1  0.86096632  0.88110588  0.38939785  1  0  0.07276  0  0.974197  0  0  0.080676  0  1.043509  0  0  0.082959  0  1.041574  0  0  0.103935  0.07901  0  1.044465  0
H  H15  1  0.63905727  0.61061620  0.11889151  1  0  0.072714  0  0.974507  0  0  0.080658  0  1.043763  0  0  0.082923  0  1.041867  0  0  0.103991  0.079009  0  1.044684  0
H  H16  1  0.86299551  0.19017321  0.60833528  1  0  0.10475  0  0.981406  0  0  0.121944  0  1.051073  0  0  0.123318  0  1.050907  0  0  0.082911  0.121031  0  1.050892  0
H  H17  1  0.63700745  0.39165456  0.80984818  1  0  0.104702  0  0.981488  0  0  0.121885  0  1.051186  0  0  0.123257  0  1.051025  0  0  0.082857  0.120957  0  1.051018  0
H  H18  1  0.13699932  0.80983129  0.39166791  1  0  0.104718  0  0.981334  0  0  0.121904  0  1.05102  0  0  0.123277  0  1.050856  0  0  0.082883  0.120993  0  1.050838  0
H  H19  1  0.36301715  0.60833129  0.19015861  1  0  0.104697  0  0.981323  0  0  0.121893  0  1.050999  0  0  0.123265  0  1.050837  0  0  0.082844  0.120981  0  1.050816  0
H  H20  1  0.85021631  0.15389276  0.42973293  1  0  0.117413  0  0.958134  0  0  0.135741  0  1.025431  0  0  0.136844  0  1.025543  0  0  0.085974  0.134781  0  1.025447  0
H  H21  1  0.64977077  0.57025285  0.84612020  1  0  0.117411  0  0.957973  0  0  0.135679  0  1.02537  0  0  0.13679  0  1.025474  0  0  0.085927  0.134713  0  1.025389  0
H  H22  1  0.14977617  0.84610769  0.57027893  1  0  0.117387  0  0.957984  0  0  0.135653  0  1.025371  0  0  0.136755  0  1.025486  0  0  0.085957  0.134697  0  1.025381  0
H  H23  1  0.35024429  0.42971838  0.15388478  1  0  0.117441  0  0.957716  0  0  0.135687  0  1.025144  0  0  0.136791  0  1.025255  0  0  0.085968  0.134722  0  1.025167  0
H  H24  1  0.81512616  0.32613052  0.48094708  1  0  0.109029  0  0.942606  0  0  0.13285  0  0.998086  0  0  0.133593  0  0.998988  0  0  0.091224  0.132243  0  0.997686  0
H  H25  1  0.68483393  0.51903737  0.67388150  1  0  0.108972  0  0.942832  0  0  0.132803  0  0.998264  0  0  0.133544  0  0.99917  0  0  0.091233  0.132197  0  0.997861  0
H  H26  1  0.18486362  0.67387399  0.51905730  1  0  0.108987  0  0.942744  0  0  0.132819  0  0.998207  0  0  0.133565  0  0.999107  0  0  0.091178  0.132211  0  0.997809  0
H  H27  1  0.31514771  0.48094941  0.32612229  1  0  0.10897  0  0.942628  0  0  0.132775  0  0.998111  0  0  0.133522  0  0.999009  0  0  0.09118  0.132168  0  0.99771  0
Pb  Pb28  1  0.24999229  0.06198642  0.93799220  1  0  1.074735  0  1.672052  0  0  0.879522  0  2.109354  0  0  0.934885  0  2.071508  0  0  0.479865  0.843296  0  2.132522  0
Pb  Pb29  1  0.74999796  0.93800541  0.06199956  1  0  1.074693  0  1.672139  0  0  0.879476  0  2.109454  0  0  0.934844  0  2.071599  0  0  0.479848  0.843229  0  2.132654  0
C  C30  1  0.54213382  0.14975663  0.66640904  1  0  0.056394  0  3.702432  0  0  0.01982  0  3.948976  0  0  0.025262  0  3.969502  0  0  0.042466  0.016646  0  3.936077  0
C  C31  1  0.95787313  0.33359800  0.85021182  1  0  0.056517  0  3.702468  0  0  0.019905  0  3.949027  0  0  0.025344  0  3.969552  0  0  0.042384  0.016725  0  3.936137  0
C  C32  1  0.45786028  0.85023439  0.33359825  1  0  0.056361  0  3.702315  0  0  0.019764  0  3.948869  0  0  0.025206  0  3.969388  0  0  0.04238  0.016585  0  3.935976  0
C  C33  1  0.04213919  0.66641054  0.14978021  1  0  0.056435  0  3.702097  0  0  0.019837  0  3.948685  0  0  0.025273  0  3.969215  0  0  0.042439  0.016667  0  3.93578  0
C  C34  1  0.60975172  0.19014618  0.53472295  1  0  0.10128  0  3.74405  0  0  0.134563  0  3.973674  0  0  0.130935  0  3.999591  0  0  -0.001712  0.136942  0  3.955996  0
C  C35  1  0.89024890  0.46527405  0.80985880  1  0  0.10146  0  3.744347  0  0  0.134806  0  3.973939  0  0  0.131182  0  3.999858  0  0  -0.001631  0.137189  0  3.956256  0
C  C36  1  0.39026331  0.80985845  0.46528694  1  0  0.101418  0  3.744295  0  0  0.134777  0  3.973817  0  0  0.131151  0  3.99973  0  0  -0.001551  0.137161  0  3.956138  0
C  C37  1  0.10976406  0.53471911  0.19015092  1  0  0.101453  0  3.744214  0  0  0.13463  0  3.974011  0  0  0.13101  0  3.999927  0  0  -0.001715  0.137004  0  3.956335  0
C  C38  1  0.49740595  0.20291566  0.42500269  1  0  -0.067558  0  3.686462  0  0  -0.092815  0  3.926842  0  0  -0.09093  0  3.946106  0  0  -0.069615  -0.093187  0  3.914218  0
C  C39  1  0.00257180  0.57500765  0.79709373  1  0  -0.067577  0  3.686623  0  0  -0.09297  0  3.927153  0  0  -0.091083  0  3.946415  0  0  -0.069607  -0.093352  0  3.914555  0
C  C40  1  0.50259683  0.79707960  0.57500925  1  0  -0.067565  0  3.686707  0  0  -0.092921  0  3.927099  0  0  -0.091038  0  3.946368  0  0  -0.069674  -0.093301  0  3.914493  0
C  C41  1  0.99742151  0.42500305  0.20290595  1  0  -0.067528  0  3.686397  0  0  -0.092815  0  3.926858  0  0  -0.090927  0  3.946122  0  0  -0.069531  -0.093188  0  3.914242  0
C  C42  1  0.32689073  0.17762031  0.45038995  1  0  -0.112999  0  3.755847  0  0  -0.121876  0  4.005404  0  0  -0.128232  0  4.027019  0  0  -0.086216  -0.118191  0  3.991217  0
C  C43  1  0.17309204  0.54961472  0.82234093  1  0  -0.113308  0  3.75617  0  0  -0.122227  0  4.005768  0  0  -0.128595  0  4.027377  0  0  -0.086361  -0.118574  0  3.991586  0
C  C44  1  0.67311183  0.82238001  0.54961125  1  0  -0.113139  0  3.756016  0  0  -0.122025  0  4.005604  0  0  -0.128398  0  4.027207  0  0  -0.086304  -0.118368  0  3.991429  0
C  C45  1  0.82690488  0.45039851  0.17761692  1  0  -0.113221  0  3.756089  0  0  -0.122071  0  4.00566  0  0  -0.128452  0  4.027251  0  0  -0.08635  -0.118395  0  3.991472  0
C  C46  1  0.27106999  0.14062447  0.58546532  1  0  0.109478  0  3.731237  0  0  0.075975  0  3.98187  0  0  0.08237  0  4.001789  0  0  0.037651  0.071769  0  3.968866  0
C  C47  1  0.22892157  0.41454870  0.85934795  1  0  0.10982  0  3.731198  0  0  0.076505  0  3.981576  0  0  0.082897  0  4.001499  0  0  0.037981  0.072398  0  3.968449  0
C  C48  1  0.72892502  0.85937599  0.41454647  1  0  0.109699  0  3.731431  0  0  0.076307  0  3.981978  0  0  0.082688  0  4.001915  0  0  0.037841  0.072161  0  3.968858  0
C  C49  1  0.77107542  0.58546382  0.14063280  1  0  0.109596  0  3.731348  0  0  0.076168  0  3.981932  0  0  0.082555  0  4.001855  0  0  0.037686  0.071973  0  3.968907  0
C  C50  1  0.79446070  0.21633118  0.51284501  1  0  -0.336456  0  3.721847  0  0  -0.414859  0  3.94999  0  0  -0.417166  0  3.961184  0  0  -0.242488  -0.412937  0  3.942023  0
C  C51  1  0.70553377  0.48713999  0.78367312  1  0  -0.336357  0  3.72193  0  0  -0.414718  0  3.950084  0  0  -0.417029  0  3.96128  0  0  -0.242395  -0.412771  0  3.942127  0
C  C52  1  0.20554321  0.78366712  0.48716044  1  0  -0.336438  0  3.721583  0  0  -0.414803  0  3.949742  0  0  -0.417111  0  3.960938  0  0  -0.242467  -0.412881  0  3.941764  0
C  C53  1  0.29446438  0.51284353  0.21631900  1  0  -0.336374  0  3.721849  0  0  -0.41463  0  3.950019  0  0  -0.416942  0  3.961219  0  0  -0.24233  -0.412703  0  3.942049  0
N  N54  1  0.37748816  0.12633841  0.69149918  1  0  -0.332629  0  3.280599  0  0  -0.251513  0  3.534982  0  0  -0.272573  0  3.560333  0  0  -0.306231  -0.238157  0  3.517555  0
N  N55  1  0.12252220  0.30849928  0.87363165  1  0  -0.3329  0  3.280512  0  0  -0.251884  0  3.534902  0  0  -0.272943  0  3.560245  0  0  -0.306344  -0.23854  0  3.517478  0
N  N56  1  0.62251201  0.87365892  0.30851165  1  0  -0.332746  0  3.280569  0  0  -0.251683  0  3.534974  0  0  -0.27274  0  3.560317  0  0  -0.306265  -0.238334  0  3.517553  0
N  N57  1  0.87749689  0.69149656  0.12634550  1  0  -0.332642  0  3.280374  0  0  -0.25154  0  3.534747  0  0  -0.272598  0  3.560093  0  0  -0.306208  -0.238183  0  3.517314  0
Cl  Cl58  1  0.96893376  0.95698263  0.79907267  1  0  -0.627099  0  0.831818  0  0  -0.55257  0  1.077987  0  0  -0.573769  0  1.060886  0  0  -0.273732  -0.535757  0  1.088974  0
Cl  Cl59  1  0.53103536  0.20092436  0.04302387  1  0  -0.62716  0  0.831747  0  0  -0.552629  0  1.07789  0  0  -0.573824  0  1.060784  0  0  -0.273778  -0.535819  0  1.088878  0
Cl  Cl60  1  0.03103675  0.04303008  0.20092440  1  0  -0.627123  0  0.831748  0  0  -0.552613  0  1.077925  0  0  -0.573797  0  1.060798  0  0  -0.273766  -0.5358  0  1.088914  0
Cl  Cl61  1  0.46894127  0.79906137  0.95698014  1  0  -0.62713  0  0.83174  0  0  -0.552639  0  1.077929  0  0  -0.573822  0  1.060805  0  0  -0.273758  -0.535831  0  1.088928  0
