# generated using pymatgen
data_MnH12C8(N3O)2
_symmetry_space_group_name_H-M   'P 1'
_cell_length_a   7.12741915
_cell_length_b   7.11439242
_cell_length_c   7.11452488
_cell_angle_alpha   64.17294353
_cell_angle_beta   71.50283683
_cell_angle_gamma   71.50544539
_symmetry_Int_Tables_number   1
_chemical_formula_structural   MnH12C8(N3O)2
_chemical_formula_sum   'Mn1 H12 C8 N6 O2'
_cell_volume   301.10093571
_cell_formula_units_Z   1
loop_
 _symmetry_equiv_pos_site_id
 _symmetry_equiv_pos_as_xyz
  1  'x, y, z'
loop_
 _atom_site_type_symbol
 _atom_site_label
 _atom_site_symmetry_multiplicity
 _atom_site_fract_x
 _atom_site_fract_y
 _atom_site_fract_z
 _atom_site_occupancy
 _atom_site_hle17_ddec_charge
 _atom_site_hle17_ddec_spin_density
 _atom_site_hle17_ddec_sum_bond_order
 _atom_site_hle17_magmom
 _atom_site_hse06_10hf_ddec_charge
 _atom_site_hse06_10hf_ddec_spin_density
 _atom_site_hse06_10hf_ddec_sum_bond_order
 _atom_site_hse06_10hf_magmom
 _atom_site_hse06_ddec_charge
 _atom_site_hse06_ddec_spin_density
 _atom_site_hse06_ddec_sum_bond_order
 _atom_site_hse06_magmom
 _atom_site_pbe_cm5_charge
 _atom_site_pbe_ddec_charge
 _atom_site_pbe_ddec_spin_density
 _atom_site_pbe_ddec_sum_bond_order
 _atom_site_pbe_magmom
Mn  Mn0  1  0.50000224  0.99999663  0.00000427  1  1.226655  4.775591  1.898026  4.673  1.074809  4.683976  2.430274  4.515  1.125247  4.730862  2.356781  4.579  0.668635  1.035423  4.636952  2.48479  4.452
H  H1  1  0.78460071  0.75946674  0.75943825  1  0.364303  0.000464  0.924483  0.001  0.335401  0.001305  1.00208  0.002  0.344433  0.000898  0.992785  0.002  0.303687  0.329125  0.001693  1.008331  0.002
H  H2  1  0.21539665  0.24053511  0.24056571  1  0.364258  0.000459  0.924545  0.001  0.335336  0.001306  1.002173  0.002  0.344371  0.000898  0.992875  0.002  0.303649  0.329045  0.001694  1.008438  0.002
H  H3  1  0.99696097  0.77824498  0.01222402  1  0.033064  -0.00029  0.939788  0.0  0.048055  -0.000157  1.006946  0.0  0.047556  -0.000257  1.007532  0.0  0.09445  0.048393  -3.8e-05  1.006624  0.0
H  H4  1  0.00305768  0.98777334  0.22175306  1  0.032993  -0.000315  0.939602  0.0  0.047931  -0.000157  1.006846  0.0  0.047432  -0.000257  1.007431  0.0  0.094414  0.048267  -3.8e-05  1.006532  0.0
H  H5  1  0.00304114  0.22175516  0.98777356  1  0.033072  -0.000277  0.939801  0.0  0.04806  -0.000158  1.006952  0.0  0.04756  -0.000257  1.007538  0.0  0.09447  0.048397  -3.8e-05  1.006636  0.0
H  H6  1  0.99694412  0.01222845  0.77824668  1  0.032996  -0.000299  0.939614  0.0  0.047954  -0.000157  1.006836  0.0  0.047455  -0.000257  1.00742  0.0  0.094432  0.048295  -3.8e-05  1.006516  0.0
H  H7  1  0.29594000  0.73076183  0.73074836  1  0.108618  7.2e-05  0.971735  0.0  0.129708  0.000266  1.034334  0.0  0.129619  0.000128  1.036768  0.0  0.091115  0.129758  0.000415  1.032653  0.001
H  H8  1  0.70406001  0.26924137  0.26924288  1  0.108607  7.8e-05  0.971784  0.0  0.129692  0.000265  1.034397  0.0  0.129602  0.000128  1.036833  0.0  0.091114  0.129743  0.000415  1.032716  0.001
H  H9  1  0.14215558  0.78828514  0.55105645  1  0.104905  -0.000283  0.963637  0.0  0.124332  -0.00025  1.027733  0.0  0.125446  -0.000265  1.028396  0.0  0.087257  0.123468  -0.000227  1.027357  0.0
H  H10  1  0.85784421  0.44894674  0.21172076  1  0.104933  -0.000279  0.96361  0.0  0.124353  -0.00025  1.02771  0.0  0.125467  -0.000265  1.02837  0.0  0.087277  0.123481  -0.000227  1.02734  0.0
H  H11  1  0.85783818  0.21171975  0.44894025  1  0.104917  -0.000286  0.963592  0.0  0.124338  -0.00025  1.027699  0.0  0.125461  -0.000265  1.028341  0.0  0.087264  0.123461  -0.000227  1.02734  0.0
H  H12  1  0.14215104  0.55105815  0.78827546  1  0.104988  -0.000276  0.963558  0.0  0.124406  -0.00025  1.027654  0.0  0.125521  -0.000265  1.028314  0.0  0.08729  0.123531  -0.000227  1.027289  0.0
C  C13  1  0.67013059  0.44574216  0.74893746  1  0.51932  0.018694  3.938562  0.019  0.479091  0.023621  4.219011  0.024  0.504289  0.020664  4.230722  0.021  0.324686  0.461561  0.026864  4.210875  0.026
C  C14  1  0.32988190  0.25106717  0.55424379  1  0.519117  0.018779  3.93911  0.019  0.478818  0.023621  4.219638  0.024  0.504026  0.02066  4.231362  0.021  0.324462  0.461253  0.026864  4.211487  0.026
C  C15  1  0.32986384  0.55423736  0.25107895  1  0.51901  0.01877  3.937874  0.019  0.478748  0.023661  4.21837  0.024  0.503962  0.020695  4.230089  0.021  0.324508  0.46118  0.026907  4.210222  0.026
C  C16  1  0.67011906  0.74893136  0.44575488  1  0.519278  0.018801  3.938715  0.019  0.47903  0.023628  4.219224  0.024  0.504231  0.020671  4.230942  0.021  0.324536  0.461497  0.026871  4.211083  0.026
C  C17  1  0.98445980  0.84423113  0.84424661  1  0.207243  0.001625  3.637758  0.002  0.153795  0.002782  3.907994  0.003  0.162531  0.002059  3.914632  0.002  -0.075236  0.147656  0.003479  3.903267  0.003
C  C18  1  0.01553840  0.15577379  0.15575006  1  0.207185  0.001621  3.637769  0.002  0.153754  0.002784  3.907993  0.003  0.16249  0.002059  3.91463  0.002  -0.075275  0.147613  0.003479  3.90326  0.003
C  C19  1  0.14918912  0.72071453  0.72070860  1  -0.346004  0.000365  3.701561  0.0  -0.419585  0.000612  3.940832  0.001  -0.423126  0.000343  3.95145  0.0  -0.255324  -0.416917  0.000888  3.933597  0.001
C  C20  1  0.85080940  0.27928874  0.27928590  1  -0.345893  0.000354  3.701653  0.0  -0.419481  0.000614  3.940916  0.001  -0.423019  0.000341  3.951528  0.0  -0.255283  -0.416808  0.000888  3.933686  0.001
N  N21  1  0.62764046  0.28219521  0.87316078  1  -0.5864  0.018565  2.820714  0.002  -0.545101  0.027904  3.116734  0.005  -0.5672  0.023242  3.118191  0.002  -0.3555  -0.529296  0.032265  3.116047  0.008
N  N22  1  0.37239374  0.12683679  0.71779896  1  -0.586375  0.018448  2.820151  0.002  -0.545042  0.027895  3.116184  0.005  -0.567153  0.023243  3.117653  0.002  -0.355382  -0.529229  0.032259  3.115504  0.008
N  N23  1  0.37236143  0.71782092  0.12683103  1  -0.586198  0.018482  2.819746  0.002  -0.544887  0.027878  3.115795  0.005  -0.566988  0.023222  3.117253  0.002  -0.355385  -0.529082  0.032245  3.115122  0.008
N  N24  1  0.62760986  0.87316340  0.28220092  1  -0.586517  0.018439  2.820268  0.002  -0.545197  0.027895  3.116294  0.005  -0.567305  0.023234  3.117759  0.002  -0.355432  -0.529381  0.032259  3.115599  0.008
N  N25  1  0.72764524  0.62489830  0.62487378  1  -0.480893  0.006185  3.307788  0.005  -0.414331  0.010717  3.557427  0.009  -0.43836  0.008555  3.560639  0.007  -0.301878  -0.397721  0.01306  3.555198  0.01
N  N26  1  0.27235605  0.37507661  0.37515095  1  -0.480731  0.006208  3.308465  0.005  -0.414085  0.010724  3.558029  0.009  -0.438134  0.008556  3.561263  0.007  -0.30176  -0.397392  0.013064  3.555729  0.01
O  O27  1  0.78343818  0.84182387  0.84189341  1  -0.60826  0.030142  2.210033  0.019  -0.534991  0.040087  2.473539  0.026  -0.557746  0.035814  2.460042  0.023  -0.398423  -0.517702  0.044247  2.482093  0.03
O  O28  1  0.21656202  0.15818585  0.15810044  1  -0.608192  0.030161  2.210035  0.019  -0.534911  0.040086  2.473528  0.026  -0.557667  0.035813  2.460031  0.023  -0.398366  -0.517619  0.044247  2.482091  0.03
