# generated using pymatgen
data_AgH9C12N2O5
_symmetry_space_group_name_H-M   'P 1'
_cell_length_a   8.42126413
_cell_length_b   11.86176798
_cell_length_c   12.69287310
_cell_angle_alpha   89.99999000
_cell_angle_beta   107.48758097
_cell_angle_gamma   89.99994789
_symmetry_Int_Tables_number   1
_chemical_formula_structural   AgH9C12N2O5
_chemical_formula_sum   'Ag4 H36 C48 N8 O20'
_cell_volume   1209.30492800
_cell_formula_units_Z   4
loop_
 _symmetry_equiv_pos_site_id
 _symmetry_equiv_pos_as_xyz
  1  'x, y, z'
loop_
 _atom_site_type_symbol
 _atom_site_label
 _atom_site_symmetry_multiplicity
 _atom_site_fract_x
 _atom_site_fract_y
 _atom_site_fract_z
 _atom_site_occupancy
 _atom_site_hle17_bader_spin_density
 _atom_site_hle17_ddec_charge
 _atom_site_hle17_ddec_spin_density
 _atom_site_hle17_ddec_sum_bond_order
 _atom_site_hle17_magmom
 _atom_site_hse06_10hf_bader_spin_density
 _atom_site_hse06_10hf_ddec_charge
 _atom_site_hse06_10hf_ddec_spin_density
 _atom_site_hse06_10hf_ddec_sum_bond_order
 _atom_site_hse06_10hf_magmom
 _atom_site_hse06_bader_spin_density
 _atom_site_hse06_ddec_charge
 _atom_site_hse06_ddec_spin_density
 _atom_site_hse06_ddec_sum_bond_order
 _atom_site_hse06_magmom
 _atom_site_pbe_bader_spin_density
 _atom_site_pbe_cm5_charge
 _atom_site_pbe_ddec_charge
 _atom_site_pbe_ddec_spin_density
 _atom_site_pbe_ddec_sum_bond_order
 _atom_site_pbe_magmom
Ag  Ag0  1  0.90707976  0.84885961  0.72012779  1  0  0.537144  0  1.45813  0  0  0.397638  0  1.905748  0  0  0.422465  0  1.864453  0  0  0.468141  0.381636  0  1.933733  0
Ag  Ag1  1  0.59292148  0.34885924  0.27987326  1  0  0.537167  0  1.458155  0  0  0.397662  0  1.905769  0  0  0.42249  0  1.864477  0  0  0.468159  0.381661  0  1.933754  0
Ag  Ag2  1  0.09292136  0.15114015  0.27987316  1  0  0.537165  0  1.458089  0  0  0.397652  0  1.905696  0  0  0.422479  0  1.864402  0  0  0.468149  0.381654  0  1.933685  0
Ag  Ag3  1  0.40707965  0.65114051  0.72012769  1  0  0.537175  0  1.458119  0  0  0.397675  0  1.905723  0  0  0.422503  0  1.864428  0  0  0.468156  0.381678  0  1.933708  0
H  H4  1  0.75657193  0.02015182  0.79650718  1  0  0.409862  0  0.896217  0  0  0.378536  0  0.960701  0  0  0.389943  0  0.943999  0  0  0.279468  0.370478  0  0.972466  0
H  H5  1  0.74342730  0.52015154  0.20349274  1  0  0.410002  0  0.896031  0  0  0.378608  0  0.960613  0  0  0.390014  0  0.943912  0  0  0.279507  0.370546  0  0.972387  0
H  H6  1  0.24342794  0.97984878  0.20349352  1  0  0.409983  0  0.89606  0  0  0.378586  0  0.960648  0  0  0.389992  0  0.943946  0  0  0.279494  0.370523  0  0.972422  0
H  H7  1  0.25657133  0.47984821  0.79650693  1  0  0.409987  0  0.896049  0  0  0.378589  0  0.960639  0  0  0.389995  0  0.943938  0  0  0.279501  0.370531  0  0.972405  0
H  H8  1  0.94688682  0.06034812  0.84251491  1  0  0.405209  0  0.898322  0  0  0.37702  0  0.95851  0  0  0.386795  0  0.944282  0  0  0.282918  0.37019  0  0.96842  0
H  H9  1  0.55311236  0.56034798  0.15748499  1  0  0.405202  0  0.898335  0  0  0.377041  0  0.958484  0  0  0.386816  0  0.944255  0  0  0.282937  0.370217  0  0.968385  0
H  H10  1  0.05311431  0.93965163  0.15748525  1  0  0.405235  0  0.898287  0  0  0.377036  0  0.958488  0  0  0.386812  0  0.944259  0  0  0.282928  0.37021  0  0.968392  0
H  H11  1  0.44688627  0.43965093  0.84251468  1  0  0.405236  0  0.898284  0  0  0.37704  0  0.958481  0  0  0.386815  0  0.944253  0  0  0.282924  0.370212  0  0.968389  0
H  H12  1  0.92239705  0.81544129  0.96506298  1  0  0.09481  0  0.934043  0  0  0.102644  0  0.997508  0  0  0.10544  0  0.994788  0  0  0.120583  0.100524  0  0.999591  0
H  H13  1  0.57760175  0.31544098  0.03493680  1  0  0.094836  0  0.934025  0  0  0.102669  0  0.99749  0  0  0.105465  0  0.994771  0  0  0.120586  0.100548  0  0.999577  0
H  H14  1  0.07760158  0.18455846  0.03493747  1  0  0.09482  0  0.934  0  0  0.102683  0  0.997431  0  0  0.105479  0  0.994711  0  0  0.1206  0.100564  0  0.999516  0
H  H15  1  0.42239688  0.68455961  0.96506365  1  0  0.094817  0  0.934035  0  0  0.102657  0  0.997487  0  0  0.105451  0  0.994768  0  0  0.120586  0.100535  0  0.999572  0
H  H16  1  0.87065832  0.66812440  0.09194730  1  0  0.125343  0  0.951677  0  0  0.132607  0  1.011653  0  0  0.136895  0  1.009424  0  0  0.112581  0.129545  0  1.013404  0
H  H17  1  0.62934195  0.16812389  0.90805122  1  0  0.125412  0  0.951596  0  0  0.132624  0  1.011642  0  0  0.136914  0  1.009409  0  0  0.112576  0.129559  0  1.013391  0
H  H18  1  0.12934032  0.33187536  0.90805157  1  0  0.125358  0  0.951679  0  0  0.13259  0  1.011683  0  0  0.136878  0  1.009456  0  0  0.112569  0.129529  0  1.013428  0
H  H19  1  0.37065793  0.83187586  0.09194870  1  0  0.125409  0  0.951571  0  0  0.132589  0  1.011651  0  0  0.13688  0  1.009415  0  0  0.112583  0.129528  0  1.013393  0
H  H20  1  0.77909048  0.47482610  0.01447905  1  0  0.114953  0  0.934801  0  0  0.124756  0  0.993997  0  0  0.127732  0  0.992085  0  0  0.114999  0.122523  0  0.995488  0
H  H21  1  0.72090809  0.97482569  0.98552065  1  0  0.114944  0  0.934874  0  0  0.124749  0  0.994075  0  0  0.127725  0  0.992163  0  0  0.115014  0.122515  0  0.995562  0
H  H22  1  0.22090940  0.52517366  0.98552086  1  0  0.114934  0  0.934831  0  0  0.124734  0  0.994031  0  0  0.12771  0  0.992117  0  0  0.114995  0.122501  0  0.995518  0
H  H23  1  0.27909179  0.02517491  0.01448005  1  0  0.114995  0  0.934892  0  0  0.124799  0  0.994078  0  0  0.127776  0  0.992166  0  0  0.115031  0.122567  0  0.995562  0
H  H24  1  0.85412299  0.61710837  0.42717977  1  0  0.111526  0  0.941708  0  0  0.120298  0  1.001724  0  0  0.123584  0  0.999109  0  0  0.114054  0.117858  0  1.003724  0
H  H25  1  0.64587610  0.11710876  0.57281931  1  0  0.111501  0  0.941734  0  0  0.12027  0  1.001769  0  0  0.123556  0  0.999155  0  0  0.114052  0.11783  0  1.003763  0
H  H26  1  0.14587689  0.38289055  0.57281936  1  0  0.111529  0  0.941702  0  0  0.120301  0  1.001734  0  0  0.123586  0  0.99912  0  0  0.114058  0.117861  0  1.00373  0
H  H27  1  0.35412377  0.88289100  0.42718060  1  0  0.111505  0  0.94174  0  0  0.120271  0  1.001783  0  0  0.123557  0  0.999168  0  0  0.114056  0.117831  0  1.003785  0
H  H28  1  0.54987643  0.66316569  0.34754762  1  0  0.117118  0  0.970295  0  0  0.125316  0  1.030141  0  0  0.129264  0  1.028034  0  0  0.109306  0.122468  0  1.03188  0
H  H29  1  0.95012260  0.16316587  0.65245223  1  0  0.117122  0  0.970293  0  0  0.125344  0  1.030102  0  0  0.129293  0  1.027992  0  0  0.109297  0.122496  0  1.031839  0
H  H30  1  0.45012220  0.33683322  0.65245204  1  0  0.11714  0  0.970322  0  0  0.125359  0  1.030131  0  0  0.129309  0  1.028019  0  0  0.109304  0.122514  0  1.031869  0
H  H31  1  0.04987728  0.83683389  0.34754847  1  0  0.117107  0  0.970319  0  0  0.125304  0  1.030153  0  0  0.129253  0  1.028045  0  0  0.109284  0.122454  0  1.0319  0
H  H32  1  0.37034564  0.65723997  0.47294985  1  0  0.085657  0  0.936753  0  0  0.095463  0  0.999172  0  0  0.097617  0  0.997485  0  0  0.117705  0.093792  0  1.000601  0
H  H33  1  0.12965535  0.15723954  0.52705021  1  0  0.085644  0  0.936772  0  0  0.095436  0  0.999207  0  0  0.097589  0  0.99752  0  0  0.11769  0.093771  0  1.000628  0
H  H34  1  0.62965672  0.34276062  0.52705056  1  0  0.085655  0  0.936713  0  0  0.095446  0  0.999154  0  0  0.0976  0  0.997466  0  0  0.117706  0.093784  0  1.000578  0
H  H35  1  0.87034452  0.84276022  0.47295049  1  0  0.085662  0  0.936769  0  0  0.095454  0  0.999209  0  0  0.097608  0  0.997521  0  0  0.117695  0.093791  0  1.000631  0
H  H36  1  0.90754734  0.42097988  0.72944997  1  0  0.392051  0  0.907995  0  0  0.357007  0  0.993293  0  0  0.369967  0  0.980912  0  0  0.290609  0.348012  0  1.001691  0
H  H37  1  0.59245504  0.92097969  0.27054972  1  0  0.392077  0  0.907964  0  0  0.357032  0  0.993263  0  0  0.369992  0  0.980881  0  0  0.290624  0.348039  0  1.001654  0
H  H38  1  0.09245254  0.57901903  0.27054916  1  0  0.392073  0  0.907943  0  0  0.357066  0  0.993175  0  0  0.370026  0  0.980793  0  0  0.290631  0.34807  0  1.001576  0
H  H39  1  0.40754733  0.07901922  0.72945148  1  0  0.392046  0  0.908009  0  0  0.35696  0  0.993378  0  0  0.36992  0  0.980998  0  0  0.290605  0.347966  0  1.001771  0
C  C40  1  0.87778429  0.73165532  0.93503590  1  0  0.139284  0  3.667618  0  0  0.106766  0  3.919164  0  0  0.114984  0  3.935868  0  0  0.050545  0.101383  0  3.907954  0
C  C41  1  0.62221464  0.23165497  0.06496313  1  0  0.139233  0  3.667608  0  0  0.106709  0  3.919144  0  0  0.114926  0  3.935849  0  0  0.050514  0.101316  0  3.907943  0
C  C42  1  0.12221435  0.26834612  0.06496376  1  0  0.139285  0  3.66759  0  0  0.10674  0  3.919123  0  0  0.114958  0  3.935827  0  0  0.050526  0.101352  0  3.907921  0
C  C43  1  0.37778524  0.76834562  0.93503757  1  0  0.139245  0  3.667601  0  0  0.106729  0  3.91912  0  0  0.114948  0  3.935824  0  0  0.050499  0.101341  0  3.907918  0
C  C44  1  0.85087153  0.64851013  0.00519737  1  0  -0.110125  0  3.700319  0  0  -0.12467  0  3.955444  0  0  -0.132393  0  3.975938  0  0  -0.080381  -0.119903  0  3.941921  0
C  C45  1  0.64912627  0.14851129  0.99480145  1  0  -0.110187  0  3.700177  0  0  -0.124672  0  3.955274  0  0  -0.132397  0  3.975771  0  0  -0.08035  -0.119897  0  3.941744  0
C  C46  1  0.14912586  0.35148962  0.99480362  1  0  -0.110167  0  3.700351  0  0  -0.124688  0  3.955494  0  0  -0.132412  0  3.975985  0  0  -0.080361  -0.119914  0  3.941956  0
C  C47  1  0.35087485  0.85149015  0.00519714  1  0  -0.110139  0  3.700245  0  0  -0.12461  0  3.955361  0  0  -0.132333  0  3.975856  0  0  -0.080333  -0.119839  0  3.94183  0
C  C48  1  0.80008254  0.54214227  0.96187769  1  0  0.007145  0  3.681411  0  0  -0.021882  0  3.931029  0  0  -0.016428  0  3.948466  0  0  -0.055674  -0.025292  0  3.91942  0
C  C49  1  0.69991666  0.04214104  0.03812222  1  0  0.007183  0  3.681343  0  0  -0.021861  0  3.930965  0  0  -0.016407  0  3.948402  0  0  -0.055664  -0.02527  0  3.919344  0
C  C50  1  0.19991609  0.45785748  0.03812119  1  0  0.007202  0  3.681355  0  0  -0.02181  0  3.930947  0  0  -0.016354  0  3.948382  0  0  -0.055638  -0.025221  0  3.919332  0
C  C51  1  0.30008571  0.95785871  0.96187977  1  0  0.007093  0  3.681425  0  0  -0.021946  0  3.931028  0  0  -0.016492  0  3.948466  0  0  -0.055715  -0.025357  0  3.919409  0
C  C52  1  0.77450340  0.52268229  0.84931510  1  0  -0.169639  0  3.773987  0  0  -0.148982  0  4.011158  0  0  -0.161083  0  4.032409  0  0  -0.013929  -0.141435  0  3.997366  0
C  C53  1  0.72549833  0.02268355  0.15068452  1  0  -0.169538  0  3.774018  0  0  -0.148885  0  4.01121  0  0  -0.160987  0  4.032463  0  0  -0.013927  -0.141344  0  3.997418  0
C  C54  1  0.22549897  0.47731662  0.15068531  1  0  -0.169526  0  3.774  0  0  -0.148882  0  4.01119  0  0  -0.160984  0  4.032443  0  0  -0.013915  -0.141342  0  3.9974  0
C  C55  1  0.27450404  0.97731789  0.84931589  1  0  -0.169545  0  3.774025  0  0  -0.148873  0  4.011192  0  0  -0.160976  0  4.032445  0  0  -0.0139  -0.141327  0  3.997397  0
C  C56  1  0.79183620  0.61302464  0.78232930  1  0  0.162213  0  3.770786  0  0  0.148727  0  4.017625  0  0  0.158152  0  4.034308  0  0  0.119804  0.142368  0  4.006578  0
C  C57  1  0.70816414  0.11302506  0.21767003  1  0  0.162208  0  3.77075  0  0  0.148729  0  4.017588  0  0  0.158153  0  4.03427  0  0  0.119818  0.142374  0  4.006536  0
C  C58  1  0.20816492  0.38697511  0.21766928  1  0  0.162146  0  3.77088  0  0  0.148683  0  4.017685  0  0  0.158107  0  4.034369  0  0  0.119786  0.142332  0  4.006628  0
C  C59  1  0.29183573  0.88697469  0.78233067  1  0  0.162127  0  3.770911  0  0  0.148665  0  4.017727  0  0  0.15809  0  4.03441  0  0  0.119795  0.142309  0  4.006678  0
C  C60  1  0.72876271  0.40706633  0.80329418  1  0  0.665673  0  3.83096  0  0  0.610594  0  4.137093  0  0  0.644369  0  4.12841  0  0  0.23499  0.587694  0  4.142521  0
C  C61  1  0.77123719  0.90706856  0.19670660  1  0  0.665488  0  3.831096  0  0  0.610394  0  4.137248  0  0  0.644172  0  4.128569  0  0  0.234941  0.587497  0  4.142671  0
C  C62  1  0.27123716  0.59293258  0.19670652  1  0  0.665543  0  3.831044  0  0  0.610437  0  4.137223  0  0  0.644213  0  4.128543  0  0  0.234914  0.587538  0  4.142648  0
C  C63  1  0.22876393  0.09293288  0.80329435  1  0  0.665614  0  3.831036  0  0  0.610482  0  4.137238  0  0  0.64426  0  4.128555  0  0  0.234949  0.587578  0  4.142668  0
C  C64  1  0.73185769  0.60912391  0.65846501  1  0  0.144331  0  3.766986  0  0  0.132328  0  4.011263  0  0  0.140035  0  4.030294  0  0  0.114398  0.127121  0  3.998672  0
C  C65  1  0.76814017  0.10912511  0.34153541  1  0  0.14425  0  3.767028  0  0  0.13224  0  4.011255  0  0  0.139952  0  4.03028  0  0  0.114365  0.12703  0  3.998665  0
C  C66  1  0.26814219  0.39087500  0.34153570  1  0  0.144226  0  3.766969  0  0  0.132222  0  4.011209  0  0  0.139934  0  4.03023  0  0  0.114352  0.127022  0  3.998608  0
C  C67  1  0.23186095  0.89087549  0.65846554  1  0  0.144279  0  3.767  0  0  0.13225  0  4.01125  0  0  0.139959  0  4.03028  0  0  0.114363  0.127044  0  3.998652  0
C  C68  1  0.83771900  0.59816093  0.59246352  1  0  -0.143657  0  3.735377  0  0  -0.124971  0  3.976218  0  0  -0.135595  0  3.995702  0  0  -0.011712  -0.118403  0  3.963621  0
C  C69  1  0.66228261  0.09816134  0.40753685  1  0  -0.143535  0  3.735386  0  0  -0.124788  0  3.976138  0  0  -0.135414  0  3.995623  0  0  -0.01168  -0.118224  0  3.963544  0
C  C70  1  0.16228212  0.40183967  0.40753664  1  0  -0.143496  0  3.735471  0  0  -0.124793  0  3.97629  0  0  -0.135418  0  3.995774  0  0  -0.011666  -0.118239  0  3.9637  0
C  C71  1  0.33771726  0.90184010  0.59246385  1  0  -0.143508  0  3.735493  0  0  -0.12475  0  3.976242  0  0  -0.135377  0  3.995731  0  0  -0.011647  -0.118187  0  3.963645  0
C  C72  1  0.77253263  0.62016442  0.47927642  1  0  0.012893  0  3.665201  0  0  -0.016188  0  3.91718  0  0  -0.009445  0  3.930995  0  0  -0.05426  -0.020615  0  3.908206  0
C  C73  1  0.72746647  0.12016393  0.52072345  1  0  0.012866  0  3.66518  0  0  -0.01625  0  3.917169  0  0  -0.009509  0  3.930991  0  0  -0.054281  -0.020677  0  3.908189  0
C  C74  1  0.22746725  0.37983533  0.52072270  1  0  0.012863  0  3.665245  0  0  -0.016246  0  3.917253  0  0  -0.009503  0  3.931072  0  0  -0.054271  -0.020673  0  3.908277  0
C  C75  1  0.27253466  0.87983583  0.47927750  1  0  0.012879  0  3.665198  0  0  -0.016242  0  3.917186  0  0  -0.009499  0  3.931005  0  0  -0.05427  -0.020669  0  3.908211  0
C  C76  1  0.60407929  0.64450908  0.43498247  1  0  -0.102051  0  3.683813  0  0  -0.117581  0  3.942408  0  0  -0.124069  0  3.959939  0  0  -0.078777  -0.113647  0  3.930986  0
C  C77  1  0.89592225  0.14450931  0.56501788  1  0  -0.102085  0  3.683812  0  0  -0.117627  0  3.9424  0  0  -0.124115  0  3.95993  0  0  -0.078789  -0.113692  0  3.930976  0
C  C78  1  0.39592183  0.35548983  0.56501769  1  0  -0.10212  0  3.683934  0  0  -0.117656  0  3.942521  0  0  -0.124145  0  3.960051  0  0  -0.078776  -0.113719  0  3.9311  0
C  C79  1  0.10407763  0.85548960  0.43498282  1  0  -0.102059  0  3.683837  0  0  -0.117579  0  3.942434  0  0  -0.124066  0  3.959962  0  0  -0.078757  -0.113642  0  3.931017  0
C  C80  1  0.50429464  0.64389706  0.50456447  1  0  0.147386  0  3.67355  0  0  0.110294  0  3.933037  0  0  0.119124  0  3.949714  0  0  0.048587  0.104494  0  3.921826  0
C  C81  1  0.99570441  0.14389808  0.49543539  1  0  0.147393  0  3.673631  0  0  0.110309  0  3.933122  0  0  0.119139  0  3.9498  0  0  0.048602  0.104505  0  3.921906  0
C  C82  1  0.49570524  0.35610185  0.49543544  1  0  0.14741  0  3.67357  0  0  0.110321  0  3.93306  0  0  0.119152  0  3.949737  0  0  0.048595  0.104509  0  3.921855  0
C  C83  1  0.00429546  0.85610167  0.50456453  1  0  0.147349  0  3.673633  0  0  0.110264  0  3.933123  0  0  0.119094  0  3.949799  0  0  0.048588  0.104458  0  3.921909  0
C  C84  1  0.01605757  0.56225676  0.64012511  1  0  0.659024  0  3.898537  0  0  0.603205  0  4.201663  0  0  0.63768  0  4.1933  0  0  0.210185  0.579823  0  4.20671  0
C  C85  1  0.48393984  0.06225866  0.35987740  1  0  0.658885  0  3.898697  0  0  0.603061  0  4.201803  0  0  0.637536  0  4.193442  0  0  0.210156  0.579678  0  4.20685  0
C  C86  1  0.98394356  0.43774299  0.35987505  1  0  0.658976  0  3.898555  0  0  0.603147  0  4.201706  0  0  0.637622  0  4.193343  0  0  0.210169  0.57978  0  4.206737  0
C  C87  1  0.51605630  0.93774447  0.64012571  1  0  0.658946  0  3.898552  0  0  0.603094  0  4.201704  0  0  0.637569  0  4.193343  0  0  0.210117  0.579713  0  4.20675  0
N  N88  1  0.84672933  0.71479023  0.82569760  1  0  -0.322195  0  3.282062  0  0  -0.251218  0  3.570584  0  0  -0.268246  0  3.582179  0  0  -0.333171  -0.239876  0  3.562672  0
N  N89  1  0.65327086  0.21479069  0.17430169  1  0  -0.322163  0  3.282015  0  0  -0.25119  0  3.570538  0  0  -0.268218  0  3.582134  0  0  -0.333155  -0.239847  0  3.562628  0
N  N90  1  0.15327179  0.28520953  0.17430335  1  0  -0.322188  0  3.282129  0  0  -0.251204  0  3.570633  0  0  -0.268233  0  3.58223  0  0  -0.33316  -0.239868  0  3.562729  0
N  N91  1  0.34672777  0.78520991  0.82569719  1  0  -0.322152  0  3.282059  0  0  -0.251191  0  3.570579  0  0  -0.26822  0  3.582174  0  0  -0.333143  -0.239851  0  3.562672  0
N  N92  1  0.56723806  0.62897092  0.61445813  1  0  -0.330961  0  3.337027  0  0  -0.25434  0  3.626706  0  0  -0.273037  0  3.641867  0  0  -0.340176  -0.241863  0  3.616289  0
N  N93  1  0.93276227  0.12897116  0.38554277  1  0  -0.33092  0  3.337025  0  0  -0.254297  0  3.626703  0  0  -0.272996  0  3.641863  0  0  -0.340157  -0.241817  0  3.616288  0
N  N94  1  0.43276307  0.37102883  0.38554282  1  0  -0.330918  0  3.337005  0  0  -0.254288  0  3.626674  0  0  -0.272986  0  3.641835  0  0  -0.340164  -0.241807  0  3.616257  0
N  N95  1  0.06723761  0.87102859  0.61445793  1  0  -0.330886  0  3.33695  0  0  -0.254256  0  3.626617  0  0  -0.272953  0  3.641779  0  0  -0.34014  -0.241777  0  3.616199  0
O  O96  1  0.86895299  0.99913147  0.84521565  1  0  -0.826256  0  1.867437  0  0  -0.762917  0  2.050739  0  0  -0.785013  0  2.018468  0  0  -0.597604  -0.746982  0  2.07282  0
O  O97  1  0.63104803  0.49913111  0.15478455  1  0  -0.826387  0  1.867305  0  0  -0.76302  0  2.050651  0  0  -0.785115  0  2.018379  0  0  -0.597662  -0.747085  0  2.072731  0
O  O98  1  0.13104813  0.00086828  0.15478530  1  0  -0.8264  0  1.867252  0  0  -0.762997  0  2.050655  0  0  -0.785093  0  2.018382  0  0  -0.597641  -0.747064  0  2.072747  0
O  O99  1  0.36895185  0.50086864  0.84521537  1  0  -0.826401  0  1.867248  0  0  -0.763001  0  2.05065  0  0  -0.785095  0  2.018379  0  0  -0.597635  -0.747067  0  2.072729  0
O  O100  1  0.61971668  0.35168086  0.82744230  1  0  -0.560354  0  1.9558  0  0  -0.510425  0  2.170546  0  0  -0.531925  0  2.160235  0  0  -0.278442  -0.495569  0  2.177276  0
O  O101  1  0.88028704  0.85168050  0.17255846  1  0  -0.560317  0  1.955763  0  0  -0.510377  0  2.170502  0  0  -0.531878  0  2.160188  0  0  -0.278462  -0.495517  0  2.177226  0
O  O102  1  0.38028568  0.64831890  0.17255890  1  0  -0.56033  0  1.955744  0  0  -0.510402  0  2.170499  0  0  -0.531902  0  2.160186  0  0  -0.278432  -0.495544  0  2.177225  0
O  O103  1  0.11971532  0.14831841  0.82744274  1  0  -0.560355  0  1.955763  0  0  -0.510407  0  2.170531  0  0  -0.531904  0  2.160209  0  0  -0.278461  -0.49555  0  2.177261  0
O  O104  1  0.80984014  0.36690029  0.73736853  1  0  -0.533251  0  2.065285  0  0  -0.481802  0  2.285463  0  0  -0.505517  0  2.272947  0  0  -0.315704  -0.465276  0  2.293455  0
O  O105  1  0.69016107  0.86690088  0.26263093  1  0  -0.533233  0  2.065343  0  0  -0.481773  0  2.285517  0  0  -0.505489  0  2.273002  0  0  -0.315693  -0.465252  0  2.293511  0
O  O106  1  0.19015973  0.63309862  0.26262981  1  0  -0.533203  0  2.065331  0  0  -0.481757  0  2.285468  0  0  -0.505474  0  2.272954  0  0  -0.315676  -0.465233  0  2.293467  0
O  O107  1  0.30983881  0.13309888  0.73736977  1  0  -0.533225  0  2.065332  0  0  -0.481738  0  2.285574  0  0  -0.505453  0  2.273057  0  0  -0.315666  -0.465216  0  2.293573  0
O  O108  1  0.12261246  0.60466862  0.60153250  1  0  -0.592384  0  1.996678  0  0  -0.53783  0  2.25532  0  0  -0.563333  0  2.245846  0  0  -0.315056  -0.520012  0  2.261293  0
O  O109  1  0.37739111  0.10466889  0.39846650  1  0  -0.592296  0  1.996893  0  0  -0.537741  0  2.25552  0  0  -0.563239  0  2.246046  0  0  -0.315026  -0.519923  0  2.261496  0
O  O110  1  0.87738618  0.39533114  0.39846559  1  0  -0.592386  0  1.996644  0  0  -0.537827  0  2.255295  0  0  -0.563329  0  2.245821  0  0  -0.315058  -0.520013  0  2.261266  0
O  O111  1  0.62261375  0.89533086  0.60153440  1  0  -0.59238  0  1.99662  0  0  -0.537811  0  2.255268  0  0  -0.563314  0  2.245794  0  0  -0.315047  -0.519994  0  2.261242  0
O  O112  1  0.04562257  0.48629589  0.71732056  1  0  -0.640794  0  2.007886  0  0  -0.57042  0  2.222138  0  0  -0.597991  0  2.211706  0  0  -0.314003  -0.551063  0  2.228646  0
O  O113  1  0.45437794  0.98629631  0.28268014  1  0  -0.640747  0  2.007784  0  0  -0.570383  0  2.222038  0  0  -0.597955  0  2.211607  0  0  -0.313998  -0.551023  0  2.228548  0
O  O114  1  0.95437731  0.51370386  0.28267778  1  0  -0.640817  0  2.007851  0  0  -0.57047  0  2.222098  0  0  -0.59804  0  2.211665  0  0  -0.314016  -0.551117  0  2.228612  0
O  O115  1  0.54562194  0.01370429  0.71732135  1  0  -0.64077  0  2.007882  0  0  -0.570392  0  2.222172  0  0  -0.597963  0  2.21174  0  0  -0.313997  -0.551035  0  2.228679  0
