# generated using pymatgen
data_BaH6C2(N2O)4
_symmetry_space_group_name_H-M   'P 1'
_cell_length_a   6.29154635
_cell_length_b   8.42091210
_cell_length_c   9.20034433
_cell_angle_alpha   105.94391452
_cell_angle_beta   89.99777039
_cell_angle_gamma   111.94374130
_symmetry_Int_Tables_number   1
_chemical_formula_structural   BaH6C2(N2O)4
_chemical_formula_sum   'Ba2 H12 C4 N16 O8'
_cell_volume   431.84522648
_cell_formula_units_Z   2
loop_
 _symmetry_equiv_pos_site_id
 _symmetry_equiv_pos_as_xyz
  1  'x, y, z'
loop_
 _atom_site_type_symbol
 _atom_site_label
 _atom_site_symmetry_multiplicity
 _atom_site_fract_x
 _atom_site_fract_y
 _atom_site_fract_z
 _atom_site_occupancy
 _atom_site_pbe_bader_spin_density
 _atom_site_pbe_cm5_charge
 _atom_site_pbe_ddec_charge
 _atom_site_pbe_ddec_spin_density
 _atom_site_pbe_ddec_sum_bond_order
 _atom_site_pbe_magmom
Ba  Ba0  1  0.85994331  0.99999215  0.74995189  1  0  0.872331  1.323424  0  1.553465  0
Ba  Ba1  1  0.14005690  0.00000938  0.25004662  1  0  0.872327  1.323414  0  1.553498  0
H  H2  1  0.32652080  0.52250977  0.40460350  1  0  0.319899  0.252374  0  1.052559  0
H  H3  1  0.80393420  0.47740666  0.09534057  1  0  0.319686  0.252488  0  1.052724  0
H  H4  1  0.67347900  0.47748774  0.59539292  1  0  0.319872  0.252382  0  1.052561  0
H  H5  1  0.19606920  0.52259488  0.90466120  1  0  0.31974  0.252609  0  1.05266  0
H  H6  1  0.27491660  0.88625986  0.85381142  1  0  0.300076  0.378962  0  0.959808  0
H  H7  1  0.38875505  0.11378086  0.64624251  1  0  0.300155  0.379463  0  0.959392  0
H  H8  1  0.72508161  0.11373766  0.14618500  1  0  0.300077  0.378976  0  0.959772  0
H  H9  1  0.61124517  0.88622067  0.35375818  1  0  0.300131  0.379446  0  0.959426  0
H  H10  1  0.36568982  0.09010956  0.92018487  1  0  0.303903  0.370663  0  0.97243  0
H  H11  1  0.27558037  0.90992169  0.57974415  1  0  0.303768  0.370289  0  0.972859  0
H  H12  1  0.63431064  0.90988930  0.07981297  1  0  0.303917  0.37072  0  0.972366  0
H  H13  1  0.72441758  0.09007851  0.42025511  1  0  0.303782  0.370315  0  0.972808  0
C  C14  1  0.27094266  0.61168844  0.64769640  1  0  0.321053  0.535049  0  4.207159  0
C  C15  1  0.65911829  0.38819672  0.85223454  1  0  0.320207  0.534288  0  4.209102  0
C  C16  1  0.72906342  0.38831846  0.35230889  1  0  0.321085  0.535089  0  4.207104  0
C  C17  1  0.34087095  0.61178605  0.14776035  1  0  0.320245  0.534182  0  4.208789  0
N  N18  1  0.14731739  0.50528696  0.73040361  1  0  -0.231934  -0.346715  0  3.32235  0
N  N19  1  0.64196350  0.49465408  0.76957364  1  0  -0.231455  -0.345955  0  3.322228  0
N  N20  1  0.85268734  0.49471726  0.26959884  1  0  -0.231856  -0.346673  0  3.322471  0
N  N21  1  0.35803697  0.50534478  0.23042637  1  0  -0.231454  -0.345865  0  3.322425  0
N  N22  1  0.07773479  0.33387577  0.64191072  1  0  -0.110802  -0.082597  0  3.349775  0
N  N23  1  0.74386487  0.66606051  0.85805839  1  0  -0.111554  -0.083221  0  3.349203  0
N  N24  1  0.92226768  0.66612710  0.35808704  1  0  -0.110824  -0.082565  0  3.349799  0
N  N25  1  0.25613560  0.33393835  0.14194163  1  0  -0.11152  -0.083174  0  3.34918  0
N  N26  1  0.14582444  0.32782894  0.50718412  1  0  -0.112021  -0.09195  0  3.286715  0
N  N27  1  0.81801856  0.67210117  0.99277287  1  0  -0.111202  -0.091344  0  3.285874  0
N  N28  1  0.85417510  0.67217126  0.49281297  1  0  -0.111951  -0.09183  0  3.286444  0
N  N29  1  0.18198392  0.32790170  0.00722816  1  0  -0.111192  -0.091353  0  3.285767  0
N  N30  1  0.26368982  0.49834306  0.50834578  1  0  -0.263655  -0.248453  0  3.642135  0
N  N31  1  0.76528572  0.50157890  0.99159852  1  0  -0.263318  -0.248536  0  3.643164  0
N  N32  1  0.73631022  0.50165177  0.49165214  1  0  -0.263707  -0.248602  0  3.642229  0
N  N33  1  0.23471944  0.49842933  0.00840276  1  0  -0.263364  -0.248584  0  3.643319  0
O  O34  1  0.37560229  0.78266751  0.69003101  1  0  -0.351851  -0.615947  0  2.242716  0
O  O35  1  0.59274304  0.21726149  0.80987891  1  0  -0.351323  -0.615335  0  2.243894  0
O  O36  1  0.62439165  0.21732464  0.30996515  1  0  -0.351914  -0.615986  0  2.242392  0
O  O37  1  0.40726120  0.78274809  0.19012923  1  0  -0.351371  -0.615385  0  2.243112  0
O  O38  1  0.23899857  0.98105221  0.92849648  1  0  -0.610972  -0.813478  0  2.082828  0
O  O39  1  0.25797302  0.01899453  0.57154160  1  0  -0.610996  -0.813516  0  2.082972  0
O  O40  1  0.76099578  0.01894397  0.07149960  1  0  -0.610987  -0.813523  0  2.082858  0
O  O41  1  0.74202493  0.98100566  0.42846093  1  0  -0.611028  -0.813547  0  2.082913  0
