# generated using pymatgen
data_KH3C5(NO2)2
_symmetry_space_group_name_H-M   'P 1'
_cell_length_a   7.37407930
_cell_length_b   8.32106373
_cell_length_c   11.26263542
_cell_angle_alpha   90.00017561
_cell_angle_beta   89.99969001
_cell_angle_gamma   91.04436281
_symmetry_Int_Tables_number   1
_chemical_formula_structural   KH3C5(NO2)2
_chemical_formula_sum   'K4 H12 C20 N8 O16'
_cell_volume   690.96257875
_cell_formula_units_Z   4
loop_
 _symmetry_equiv_pos_site_id
 _symmetry_equiv_pos_as_xyz
  1  'x, y, z'
loop_
 _atom_site_type_symbol
 _atom_site_label
 _atom_site_symmetry_multiplicity
 _atom_site_fract_x
 _atom_site_fract_y
 _atom_site_fract_z
 _atom_site_occupancy
 _atom_site_hle17_bader_spin_density
 _atom_site_hle17_ddec_charge
 _atom_site_hle17_ddec_spin_density
 _atom_site_hle17_ddec_sum_bond_order
 _atom_site_hle17_magmom
 _atom_site_hse06_10hf_bader_spin_density
 _atom_site_hse06_10hf_ddec_charge
 _atom_site_hse06_10hf_ddec_spin_density
 _atom_site_hse06_10hf_ddec_sum_bond_order
 _atom_site_hse06_10hf_magmom
 _atom_site_hse06_bader_spin_density
 _atom_site_hse06_ddec_charge
 _atom_site_hse06_ddec_spin_density
 _atom_site_hse06_ddec_sum_bond_order
 _atom_site_hse06_magmom
 _atom_site_pbe_bader_spin_density
 _atom_site_pbe_cm5_charge
 _atom_site_pbe_ddec_charge
 _atom_site_pbe_ddec_spin_density
 _atom_site_pbe_ddec_sum_bond_order
 _atom_site_pbe_magmom
K  K0  1  0.22991843  0.42173516  0.46996910  1  0  0.930483  0  0.458374  0  0  0.875649  0  0.650212  0  0  0.891263  0  0.62694  0  0  0.777716  0.863764  0  0.667205  0
K  K1  1  0.27009028  0.57824921  0.96996497  1  0  0.930491  0  0.458343  0  0  0.875655  0  0.650194  0  0  0.891268  0  0.626924  0  0  0.77771  0.863772  0  0.667186  0
K  K2  1  0.77009477  0.57825891  0.53003062  1  0  0.930487  0  0.458375  0  0  0.875643  0  0.650223  0  0  0.891259  0  0.626955  0  0  0.777709  0.863757  0  0.667216  0
K  K3  1  0.72990887  0.42172691  0.03003830  1  0  0.930515  0  0.458317  0  0  0.87566  0  0.650187  0  0  0.891273  0  0.626917  0  0  0.777711  0.863776  0  0.66718  0
H  H4  1  0.14135014  0.85566424  0.42917557  1  0  0.306685  0  0.907639  0  0  0.284288  0  0.973358  0  0  0.293405  0  0.965394  0  0  0.328311  0.277766  0  0.979215  0
H  H5  1  0.35865804  0.14433800  0.92917724  1  0  0.306662  0  0.90771  0  0  0.284263  0  0.973431  0  0  0.293381  0  0.965466  0  0  0.328281  0.277742  0  0.979289  0
H  H6  1  0.85865232  0.14433350  0.57082149  1  0  0.30662  0  0.907769  0  0  0.284244  0  0.973471  0  0  0.293361  0  0.965507  0  0  0.328294  0.277722  0  0.979327  0
H  H7  1  0.64134472  0.85567055  0.07082248  1  0  0.306659  0  0.907686  0  0  0.28428  0  0.973386  0  0  0.293397  0  0.965424  0  0  0.328316  0.277759  0  0.979241  0
H  H8  1  0.15390303  0.93994279  0.05708422  1  0  0.138136  0  0.957579  0  0  0.141782  0  1.029011  0  0  0.146519  0  1.024818  0  0  0.11985  0.138026  0  1.032737  0
H  H9  1  0.34611474  0.06005189  0.55708664  1  0  0.138063  0  0.957729  0  0  0.141744  0  1.029145  0  0  0.146484  0  1.024945  0  0  0.11981  0.137987  0  1.032872  0
H  H10  1  0.84610072  0.06005253  0.94291284  1  0  0.138105  0  0.957661  0  0  0.141807  0  1.029047  0  0  0.146548  0  1.024848  0  0  0.11986  0.13805  0  1.032774  0
H  H11  1  0.65388382  0.93995188  0.44291663  1  0  0.138081  0  0.957696  0  0  0.141792  0  1.029064  0  0  0.146531  0  1.024867  0  0  0.119862  0.138036  0  1.032789  0
H  H12  1  0.41002703  0.45708220  0.21691259  1  0  0.386935  0  0.921612  0  0  0.353701  0  1.004473  0  0  0.368225  0  0.989872  0  0  0.294897  0.343604  0  1.014465  0
H  H13  1  0.08996277  0.54292891  0.71691436  1  0  0.386909  0  0.921633  0  0  0.353719  0  1.004402  0  0  0.368242  0  0.989801  0  0  0.294875  0.343622  0  1.014393  0
H  H14  1  0.58997281  0.54291916  0.78308802  1  0  0.386825  0  0.921759  0  0  0.353648  0  1.004507  0  0  0.368171  0  0.98991  0  0  0.294872  0.34355  0  1.014498  0
H  H15  1  0.91003588  0.45707846  0.28309069  1  0  0.386834  0  0.921724  0  0  0.353604  0  1.004576  0  0  0.368127  0  0.989979  0  0  0.294871  0.343507  0  1.014565  0
C  C16  1  0.02546687  0.68076335  0.22295209  1  0  0.652157  0  3.935897  0  0  0.606494  0  4.235118  0  0  0.640171  0  4.225147  0  0  0.21324  0.58359  0  4.241154  0
C  C17  1  0.47453875  0.31923327  0.72295019  1  0  0.652271  0  3.935855  0  0  0.606549  0  4.235074  0  0  0.640229  0  4.225098  0  0  0.21329  0.583643  0  4.241109  0
C  C18  1  0.97453423  0.31923439  0.77704852  1  0  0.652051  0  3.935981  0  0  0.606368  0  4.235203  0  0  0.640047  0  4.22523  0  0  0.213193  0.583464  0  4.241237  0
C  C19  1  0.52545709  0.68077052  0.27704865  1  0  0.652002  0  3.936078  0  0  0.606346  0  4.23524  0  0  0.640025  0  4.225268  0  0  0.213191  0.583442  0  4.241276  0
C  C20  1  0.11292357  0.84078028  0.23847157  1  0  0.031579  0  3.718985  0  0  0.019955  0  3.981496  0  0  0.018629  0  4.000155  0  0  0.087927  0.020901  0  3.968636  0
C  C21  1  0.38708739  0.15921758  0.73846962  1  0  0.031508  0  3.719224  0  0  0.020093  0  3.981458  0  0  0.018766  0  4.000117  0  0  0.087865  0.021039  0  3.968598  0
C  C22  1  0.88708021  0.15921625  0.76152282  1  0  0.031509  0  3.719128  0  0  0.019986  0  3.981521  0  0  0.018661  0  4.000181  0  0  0.087885  0.020931  0  3.96866  0
C  C23  1  0.61290852  0.84078861  0.26152744  1  0  0.03183  0  3.718853  0  0  0.020318  0  3.98121  0  0  0.018994  0  3.999868  0  0  0.088044  0.021261  0  3.968353  0
C  C24  1  0.16758502  0.95191809  0.15266308  1  0  -0.177869  0  3.674864  0  0  -0.219018  0  3.942313  0  0  -0.221132  0  3.960217  0  0  -0.087227  -0.21728  0  3.930372  0
C  C25  1  0.33242123  0.04808066  0.65266641  1  0  -0.177844  0  3.675084  0  0  -0.21909  0  3.942437  0  0  -0.221213  0  3.960358  0  0  -0.087181  -0.217349  0  3.930491  0
C  C26  1  0.83241604  0.04807846  0.84733309  1  0  -0.177927  0  3.674972  0  0  -0.21916  0  3.942382  0  0  -0.221277  0  3.960284  0  0  -0.087282  -0.217422  0  3.930441  0
C  C27  1  0.66757465  0.95192433  0.34733597  1  0  -0.17801  0  3.674927  0  0  -0.219257  0  3.942347  0  0  -0.221386  0  3.960276  0  0  -0.087304  -0.217517  0  3.9304  0
C  C28  1  0.23889289  0.08311926  0.21762102  1  0  0.006356  0  3.785599  0  0  0.010061  0  4.053191  0  0  0.005339  0  4.07277  0  0  0.081218  0.013175  0  4.039725  0
C  C29  1  0.26110878  0.91687977  0.71762301  1  0  0.006367  0  3.785599  0  0  0.010091  0  4.053193  0  0  0.005371  0  4.072772  0  0  0.081237  0.013204  0  4.039727  0
C  C30  1  0.76110682  0.91687729  0.78237426  1  0  0.006417  0  3.785597  0  0  0.010115  0  4.053191  0  0  0.005398  0  4.072768  0  0  0.081241  0.013227  0  4.039727  0
C  C31  1  0.73888710  0.08312522  0.28237760  1  0  0.006487  0  3.785663  0  0  0.01014  0  4.053235  0  0  0.005421  0  4.072809  0  0  0.081281  0.013255  0  4.039772  0
C  C32  1  0.31942843  0.23385932  0.17159274  1  0  0.67011  0  3.837077  0  0  0.623793  0  4.128425  0  0  0.658206  0  4.117398  0  0  0.239206  0.600393  0  4.135272  0
C  C33  1  0.18057500  0.76614071  0.67159557  1  0  0.670375  0  3.836873  0  0  0.624012  0  4.128305  0  0  0.658424  0  4.117271  0  0  0.239255  0.600612  0  4.135149  0
C  C34  1  0.68057009  0.76614325  0.82840521  1  0  0.670217  0  3.83714  0  0  0.623908  0  4.128482  0  0  0.658318  0  4.117449  0  0  0.239259  0.600508  0  4.135328  0
C  C35  1  0.81942210  0.23385946  0.32840948  1  0  0.669964  0  3.837426  0  0  0.62383  0  4.128488  0  0  0.658243  0  4.117458  0  0  0.239204  0.600421  0  4.135346  0
N  N36  1  0.15333155  0.90894356  0.34605474  1  0  -0.139993  0  3.46699  0  0  -0.078472  0  3.705266  0  0  -0.089725  0  3.722736  0  0  -0.246674  -0.070952  0  3.693794  0
N  N37  1  0.34667451  0.09105596  0.84605456  1  0  -0.139979  0  3.46705  0  0  -0.078518  0  3.705258  0  0  -0.089772  0  3.722728  0  0  -0.246599  -0.071  0  3.693791  0
N  N38  1  0.84667087  0.09105298  0.65394143  1  0  -0.139769  0  3.467076  0  0  -0.078315  0  3.705332  0  0  -0.089568  0  3.722802  0  0  -0.246556  -0.070795  0  3.69386  0
N  N39  1  0.65332547  0.90895021  0.15394427  1  0  -0.14002  0  3.466743  0  0  -0.078571  0  3.705021  0  0  -0.089827  0  3.722493  0  0  -0.246714  -0.07105  0  3.693554  0
N  N40  1  0.22843614  0.05509414  0.33650171  1  0  -0.208965  0  2.899009  0  0  -0.210194  0  3.178684  0  0  -0.211368  0  3.193007  0  0  -0.217741  -0.209053  0  3.169348  0
N  N41  1  0.27156319  0.94490417  0.83650195  1  0  -0.208992  0  2.899153  0  0  -0.210223  0  3.178828  0  0  -0.211396  0  3.193151  0  0  -0.21777  -0.209083  0  3.169494  0
N  N42  1  0.77156360  0.94490361  0.66349535  1  0  -0.209045  0  2.899052  0  0  -0.210262  0  3.178736  0  0  -0.211433  0  3.193055  0  0  -0.217789  -0.209122  0  3.169399  0
N  N43  1  0.72843951  0.05510198  0.16349778  1  0  -0.208984  0  2.898786  0  0  -0.21019  0  3.178465  0  0  -0.211364  0  3.192789  0  0  -0.217753  -0.20905  0  3.169131  0
O  O44  1  0.99576815  0.63172534  0.11927738  1  0  -0.670643  0  1.922984  0  0  -0.625115  0  2.151339  0  0  -0.646767  0  2.141181  0  0  -0.447432  -0.609909  0  2.158062  0
O  O45  1  0.50423376  0.36827287  0.61927552  1  0  -0.670656  0  1.923008  0  0  -0.625149  0  2.151413  0  0  -0.6468  0  2.141255  0  0  -0.447453  -0.60994  0  2.158133  0
O  O46  1  0.00423143  0.36826641  0.88072500  1  0  -0.670594  0  1.923156  0  0  -0.625069  0  2.151528  0  0  -0.646723  0  2.14137  0  0  -0.447391  -0.609861  0  2.158248  0
O  O47  1  0.49576626  0.63173450  0.38072598  1  0  -0.670581  0  1.923126  0  0  -0.625074  0  2.151481  0  0  -0.646725  0  2.141324  0  0  -0.447411  -0.609863  0  2.1582  0
O  O48  1  0.98521431  0.60061987  0.31873868  1  0  -0.688742  0  2.03011  0  0  -0.638814  0  2.269585  0  0  -0.66395  0  2.258544  0  0  -0.407113  -0.62114  0  2.276715  0
O  O49  1  0.51478997  0.39937552  0.81873684  1  0  -0.688737  0  2.030013  0  0  -0.638838  0  2.269473  0  0  -0.663973  0  2.258431  0  0  -0.407119  -0.621164  0  2.276605  0
O  O50  1  0.01478957  0.39938027  0.68126282  1  0  -0.688761  0  2.029975  0  0  -0.63886  0  2.269425  0  0  -0.663995  0  2.258386  0  0  -0.407153  -0.621184  0  2.276553  0
O  O51  1  0.48521117  0.60062343  0.18126554  1  0  -0.68877  0  2.030176  0  0  -0.638851  0  2.269651  0  0  -0.663988  0  2.258609  0  0  -0.407112  -0.621177  0  2.276783  0
O  O52  1  0.35921554  0.25425163  0.06455735  1  0  -0.632641  0  1.974069  0  0  -0.592022  0  2.203298  0  0  -0.612877  0  2.192184  0  0  -0.343604  -0.577422  0  2.210551  0
O  O53  1  0.14079413  0.74574674  0.56455673  1  0  -0.632741  0  1.974075  0  0  -0.592091  0  2.203282  0  0  -0.612951  0  2.192183  0  0  -0.343594  -0.577492  0  2.210536  0
O  O54  1  0.64078153  0.74574734  0.93543971  1  0  -0.63269  0  1.974109  0  0  -0.592086  0  2.203334  0  0  -0.612938  0  2.192218  0  0  -0.34361  -0.577482  0  2.210577  0
O  O55  1  0.85920965  0.25424979  0.43544655  1  0  -0.632615  0  1.974229  0  0  -0.592066  0  2.203334  0  0  -0.612921  0  2.192221  0  0  -0.3436  -0.577465  0  2.210595  0
O  O56  1  0.34692929  0.34545788  0.25228441  1  0  -0.603521  0  2.155363  0  0  -0.552034  0  2.387484  0  0  -0.575875  0  2.373171  0  0  -0.392584  -0.535409  0  2.396817  0
O  O57  1  0.15305214  0.65455462  0.75228797  1  0  -0.603654  0  2.155365  0  0  -0.552181  0  2.387448  0  0  -0.576025  0  2.373147  0  0  -0.392581  -0.535558  0  2.396785  0
O  O58  1  0.65307063  0.65454588  0.74771354  1  0  -0.603539  0  2.155582  0  0  -0.552049  0  2.38758  0  0  -0.575911  0  2.37332  0  0  -0.392579  -0.535424  0  2.396914  0
O  O59  1  0.84694106  0.34545158  0.24771974  1  0  -0.603405  0  2.155521  0  0  -0.551968  0  2.387553  0  0  -0.575814  0  2.373253  0  0  -0.392555  -0.535342  0  2.39689  0
