# generated using pymatgen
data_AgH11C11N3Cl
_symmetry_space_group_name_H-M   'P 1'
_cell_length_a   7.31865587
_cell_length_b   10.89915518
_cell_length_c   11.20091691
_cell_angle_alpha   76.40424303
_cell_angle_beta   82.65629849
_cell_angle_gamma   87.37874684
_symmetry_Int_Tables_number   1
_chemical_formula_structural   AgH11C11N3Cl
_chemical_formula_sum   'Ag3 H33 C33 N9 Cl3'
_cell_volume   861.19152218
_cell_formula_units_Z   3
loop_
 _symmetry_equiv_pos_site_id
 _symmetry_equiv_pos_as_xyz
  1  'x, y, z'
loop_
 _atom_site_type_symbol
 _atom_site_label
 _atom_site_symmetry_multiplicity
 _atom_site_fract_x
 _atom_site_fract_y
 _atom_site_fract_z
 _atom_site_occupancy
 _atom_site_hle17_bader_spin_density
 _atom_site_hle17_ddec_charge
 _atom_site_hle17_ddec_spin_density
 _atom_site_hle17_ddec_sum_bond_order
 _atom_site_hle17_magmom
 _atom_site_hse06_10hf_bader_spin_density
 _atom_site_hse06_10hf_ddec_charge
 _atom_site_hse06_10hf_ddec_spin_density
 _atom_site_hse06_10hf_ddec_sum_bond_order
 _atom_site_hse06_10hf_magmom
 _atom_site_hse06_bader_spin_density
 _atom_site_hse06_ddec_charge
 _atom_site_hse06_ddec_spin_density
 _atom_site_hse06_ddec_sum_bond_order
 _atom_site_hse06_magmom
 _atom_site_pbe_bader_spin_density
 _atom_site_pbe_cm5_charge
 _atom_site_pbe_ddec_charge
 _atom_site_pbe_ddec_spin_density
 _atom_site_pbe_ddec_sum_bond_order
 _atom_site_pbe_magmom
Ag  Ag0  1  0.02037427  0.80367612  0.43685623  1  0  0.33184  0  1.857451  0  0  0.213357  0  2.377199  0  0  0.235031  0  2.327142  0  0  0.272033  0.19896  0  2.41094  0
Ag  Ag1  1  0.35594905  0.79159280  0.56007360  1  0  0.167154  0  2.064993  0  0  0.063433  0  2.59102  0  0  0.080176  0  2.538172  0  0  0.298358  0.052402  0  2.627522  0
Ag  Ag2  1  0.65273135  0.93211089  0.62332795  1  0  0.451131  0  1.69161  0  0  0.342815  0  2.192931  0  0  0.371908  0  2.139456  0  0  0.268218  0.323315  0  2.228945  0
H  H3  1  0.31441795  0.26822427  0.47212657  1  0  0.105719  0  0.951253  0  0  0.119205  0  1.014239  0  0  0.120531  0  1.014657  0  0  0.098266  0.118018  0  1.01464  0
H  H4  1  0.11129669  0.24237063  0.41025825  1  0  0.108733  0  0.946983  0  0  0.123822  0  1.005493  0  0  0.125448  0  1.005236  0  0  0.098145  0.123332  0  1.004567  0
H  H5  1  0.92181398  0.27968711  0.58427878  1  0  0.080526  0  0.949336  0  0  0.095141  0  1.013449  0  0  0.09588  0  1.014238  0  0  0.092205  0.094557  0  1.012803  0
H  H6  1  0.12453994  0.26897894  0.65807520  1  0  0.081524  0  0.956083  0  0  0.099458  0  1.015762  0  0  0.099477  0  1.018084  0  0  0.093893  0.099158  0  1.014597  0
H  H7  1  0.90055685  0.49461861  0.59911167  1  0  0.086299  0  0.941194  0  0  0.100818  0  1.001989  0  0  0.101205  0  1.002537  0  0  0.10284  0.100375  0  1.001749  0
H  H8  1  0.12969258  0.48981570  0.63716553  1  0  0.069513  0  0.953355  0  0  0.081872  0  1.022256  0  0  0.081175  0  1.024305  0  0  0.100981  0.08219  0  1.021021  0
H  H9  1  0.10531576  0.86775783  0.21991639  1  0  0.087282  0  1.024999  0  0  0.093274  0  1.105201  0  0  0.097214  0  1.100937  0  0  0.080264  0.090194  0  1.108454  0
H  H10  1  0.21714145  0.02941305  0.03519834  1  0  0.075593  0  0.961039  0  0  0.090975  0  1.016908  0  0  0.092854  0  1.016682  0  0  0.09663  0.089528  0  1.017257  0
H  H11  1  0.43375670  0.97096090  0.86469533  1  0  0.078803  0  1.005433  0  0  0.083389  0  1.082179  0  0  0.086662  0  1.079947  0  0  0.082645  0.081037  0  1.083821  0
H  H12  1  0.54465565  0.74748532  0.88811620  1  0  0.085426  0  0.9676  0  0  0.093182  0  1.036416  0  0  0.095774  0  1.035072  0  0  0.091636  0.091143  0  1.037634  0
H  H13  1  0.43804981  0.58531692  0.07832213  1  0  0.110345  0  0.948903  0  0  0.119114  0  1.010765  0  0  0.122594  0  1.008782  0  0  0.107621  0.116521  0  1.012291  0
H  H14  1  0.63196965  0.11363830  0.03759429  1  0  0.105586  0  0.923929  0  0  0.126619  0  0.97362  0  0  0.127582  0  0.974434  0  0  0.106903  0.125982  0  0.972899  0
H  H15  1  0.77507949  0.13817171  0.14760456  1  0  0.104419  0  0.918479  0  0  0.118785  0  0.978058  0  0  0.120929  0  0.976746  0  0  0.101586  0.116825  0  0.979486  0
H  H16  1  0.51119053  0.26390277  0.20675266  1  0  0.090824  0  0.933481  0  0  0.108689  0  0.988324  0  0  0.110082  0  0.988572  0  0  0.099756  0.107191  0  0.98923  0
H  H17  1  0.35816305  0.17518611  0.15144364  1  0  0.074899  0  0.938961  0  0  0.090859  0  1.000269  0  0  0.091844  0  1.000642  0  0  0.092853  0.090065  0  1.000155  0
H  H18  1  0.50149034  0.11052103  0.40392647  1  0  0.075734  0  0.953357  0  0  0.082749  0  1.031457  0  0  0.08376  0  1.030425  0  0  0.097015  0.081275  0  1.033603  0
H  H19  1  0.28405683  0.07367310  0.36391773  1  0  0.080731  0  0.965977  0  0  0.091835  0  1.036176  0  0  0.092958  0  1.035394  0  0  0.097329  0.091001  0  1.036746  0
H  H20  1  0.50922737  0.60026787  0.51372153  1  0  0.087691  0  1.005242  0  0  0.09939  0  1.076385  0  0  0.102399  0  1.073358  0  0  0.081597  0.097186  0  1.078541  0
H  H21  1  0.57166585  0.37018473  0.54152374  1  0  0.088992  0  0.985203  0  0  0.097105  0  1.050728  0  0  0.099696  0  1.049866  0  0  0.088771  0.095243  0  1.051316  0
H  H22  1  0.75485343  0.28638261  0.37571035  1  0  0.09214  0  0.960769  0  0  0.10148  0  1.02522  0  0  0.103921  0  1.025012  0  0  0.094118  0.099101  0  1.026861  0
H  H23  1  0.87746261  0.43665863  0.17816531  1  0  0.085423  0  0.949913  0  0  0.098965  0  1.005377  0  0  0.101391  0  1.004533  0  0  0.099688  0.097264  0  1.005935  0
H  H24  1  0.81048596  0.66551359  0.14795980  1  0  0.115366  0  0.961974  0  0  0.119732  0  1.033547  0  0  0.123592  0  1.030693  0  0  0.107205  0.117  0  1.035592  0
H  H25  1  0.87978002  0.93603401  0.00401107  1  0  0.108466  0  0.958258  0  0  0.121875  0  1.020782  0  0  0.123731  0  1.020415  0  0  0.101975  0.120483  0  1.020973  0
H  H26  1  0.73090095  0.92619396  0.89475951  1  0  0.098312  0  0.969544  0  0  0.111515  0  1.039387  0  0  0.112791  0  1.03913  0  0  0.097178  0.110335  0  1.039651  0
H  H27  1  0.85706355  0.12094476  0.77818898  1  0  0.081671  0  0.961639  0  0  0.093632  0  1.029784  0  0  0.09543  0  1.029138  0  0  0.086541  0.092337  0  1.030192  0
H  H28  1  0.05470712  0.09962480  0.85869339  1  0  0.06387  0  0.969697  0  0  0.078348  0  1.037819  0  0  0.078958  0  1.038715  0  0  0.087116  0.07805  0  1.036988  0
H  H29  1  0.00626728  0.01854341  0.62392612  1  0  0.073011  0  0.974905  0  0  0.081836  0  1.050423  0  0  0.082941  0  1.048936  0  0  0.08648  0.080769  0  1.05166  0
H  H30  1  0.21472591  0.04679620  0.68065158  1  0  0.081675  0  0.968179  0  0  0.090867  0  1.03928  0  0  0.092235  0  1.03847  0  0  0.093275  0.089669  0  1.040147  0
H  H31  1  0.93539047  0.47921920  0.94302002  1  0  0.114084  0  0.93965  0  0  0.123475  0  0.998864  0  0  0.127372  0  0.996083  0  0  0.111235  0.120705  0  1.000808  0
H  H32  1  0.03412608  0.25253381  0.97439446  1  0  0.079691  0  0.959223  0  0  0.093069  0  1.01617  0  0  0.095615  0  1.014963  0  0  0.098562  0.091384  0  1.01679  0
H  H33  1  0.35025566  0.19614991  0.88429872  1  0  0.085015  0  0.97445  0  0  0.0929  0  1.043815  0  0  0.095435  0  1.042873  0  0  0.094428  0.091083  0  1.044645  0
H  H34  1  0.56654408  0.36522149  0.77531407  1  0  0.09452  0  0.939123  0  0  0.106982  0  0.992828  0  0  0.11  0  0.991497  0  0  0.101164  0.104899  0  0.99364  0
H  H35  1  0.47234055  0.59105096  0.75215363  1  0  0.103404  0  1.005673  0  0  0.110162  0  1.075962  0  0  0.113369  0  1.074023  0  0  0.08737  0.1077  0  1.077677  0
C  C36  1  0.12263304  0.64099518  0.37939104  1  0  -0.064872  0  3.428333  0  0  -0.096601  0  3.785856  0  0  -0.085773  0  3.789494  0  0  0.067624  -0.109166  0  3.776654  0
C  C37  1  0.18518760  0.43756916  0.38055025  1  0  0.329043  0  3.716065  0  0  0.305819  0  3.991697  0  0  0.319225  0  4.004825  0  0  0.23789  0.296172  0  3.985054  0
C  C38  1  0.17559614  0.30564264  0.45534965  1  0  -0.20248  0  3.640172  0  0  -0.238645  0  3.876747  0  0  -0.241898  0  3.886982  0  0  -0.148046  -0.23673  0  3.869129  0
C  C39  1  0.05860794  0.31942469  0.57792003  1  0  -0.115571  0  3.574025  0  0  -0.153601  0  3.820642  0  0  -0.154612  0  3.832894  0  0  -0.155065  -0.152692  0  3.812194  0
C  C40  1  0.04165972  0.46204241  0.57604553  1  0  0.010762  0  3.563893  0  0  -0.047451  0  3.813353  0  0  -0.043012  0  3.82444  0  0  -0.053815  -0.050489  0  3.806017  0
C  C41  1  0.26764894  0.71680957  0.16091263  1  0  0.177369  0  3.742926  0  0  0.165492  0  3.992879  0  0  0.173793  0  4.012883  0  0  0.097312  0.154648  0  3.975268  0
C  C42  1  0.20445134  0.84159512  0.14851773  1  0  -0.144978  0  3.738908  0  0  -0.165019  0  3.988545  0  0  -0.17055  0  4.009936  0  0  -0.098919  -0.16204  0  3.976064  0
C  C43  1  0.26716605  0.93233738  0.04315686  1  0  -0.061657  0  3.792029  0  0  -0.071132  0  4.036224  0  0  -0.072838  0  4.060301  0  0  -0.097773  -0.069969  0  4.020049  0
C  C44  1  0.38845499  0.89974838  0.94844463  1  0  -0.092035  0  3.778436  0  0  -0.10607  0  4.028824  0  0  -0.109813  0  4.052139  0  0  -0.10388  -0.103712  0  4.013163  0
C  C45  1  0.44954136  0.77449462  0.96130644  1  0  -0.051096  0  3.75746  0  0  -0.062929  0  4.007649  0  0  -0.064549  0  4.029784  0  0  -0.09239  -0.061935  0  3.993085  0
C  C46  1  0.39075013  0.68290136  0.06720866  1  0  -0.124651  0  3.698742  0  0  -0.151341  0  3.957972  0  0  -0.154039  0  3.975534  0  0  -0.087932  -0.150223  0  3.947682  0
C  C47  1  0.50211176  0.84052883  0.38369227  1  0  -0.026789  0  3.431417  0  0  -0.066451  0  3.77253  0  0  -0.056729  0  3.775981  0  0  0.063741  -0.073412  0  3.770204  0
C  C48  1  0.62397309  0.96905781  0.20807262  1  0  0.325215  0  3.710597  0  0  0.300425  0  3.992151  0  0  0.313728  0  4.006394  0  0  0.23693  0.291979  0  3.982194  0
C  C49  1  0.64118635  0.10264339  0.13649486  1  0  -0.192077  0  3.648602  0  0  -0.235397  0  3.89967  0  0  -0.237843  0  3.909286  0  0  -0.141406  -0.233521  0  3.893148  0
C  C50  1  0.47816116  0.16818383  0.20241179  1  0  -0.10651  0  3.584806  0  0  -0.146055  0  3.839486  0  0  -0.146854  0  3.850621  0  0  -0.150306  -0.145695  0  3.832748  0
C  C51  1  0.43241482  0.08219141  0.33324275  1  0  -0.002869  0  3.576297  0  0  -0.062158  0  3.827913  0  0  -0.058371  0  3.839226  0  0  -0.057767  -0.064625  0  3.821084  0
C  C52  1  0.65336110  0.64690239  0.32818269  1  0  0.163619  0  3.761662  0  0  0.145905  0  4.012768  0  0  0.15066  0  4.035074  0  0  0.092608  0.14283  0  3.997628  0
C  C53  1  0.58701468  0.56410959  0.43926883  1  0  -0.142093  0  3.738717  0  0  -0.16482  0  3.990847  0  0  -0.169836  0  4.013694  0  0  -0.098242  -0.161  0  3.974739  0
C  C54  1  0.62311416  0.43511384  0.45510777  1  0  -0.059079  0  3.774233  0  0  -0.069704  0  4.022519  0  0  -0.070858  0  4.044658  0  0  -0.095031  -0.06856  0  4.006978  0
C  C55  1  0.72584754  0.38765717  0.36140381  1  0  -0.081534  0  3.754432  0  0  -0.098375  0  4.008647  0  0  -0.101308  0  4.030805  0  0  -0.096623  -0.096396  0  3.995021  0
C  C56  1  0.79323837  0.47131434  0.25131443  1  0  -0.057338  0  3.775531  0  0  -0.07032  0  4.026041  0  0  -0.071044  0  4.046917  0  0  -0.09201  -0.069766  0  4.011892  0
C  C57  1  0.75745170  0.60075383  0.23370469  1  0  -0.134434  0  3.712652  0  0  -0.159905  0  3.974766  0  0  -0.163027  0  3.993761  0  0  -0.089844  -0.157995  0  3.961981  0
C  C58  1  0.19183115  0.77190194  0.72850591  1  0  -0.020309  0  3.443763  0  0  -0.054704  0  3.795685  0  0  -0.044506  0  3.799474  0  0  0.063729  -0.069244  0  3.787889  0
C  C59  1  0.98657629  0.83000814  0.87129560  1  0  0.333598  0  3.702248  0  0  0.312547  0  3.975203  0  0  0.325839  0  3.988762  0  0  0.238655  0.302905  0  3.969083  0
C  C60  1  0.87569053  0.93586374  0.90672435  1  0  -0.20606  0  3.66515  0  0  -0.247338  0  3.908286  0  0  -0.249684  0  3.91745  0  0  -0.15195  -0.245466  0  3.90195  0
C  C61  1  0.96325331  0.05295450  0.81363996  1  0  -0.123502  0  3.620598  0  0  -0.167299  0  3.881277  0  0  -0.168316  0  3.892664  0  0  -0.162036  -0.166541  0  3.873253  0
C  C62  1  0.07755490  0.00486354  0.70696866  1  0  -0.004302  0  3.564335  0  0  -0.056208  0  3.805682  0  0  -0.052644  0  3.816958  0  0  -0.060943  -0.058462  0  3.79855  0
C  C63  1  0.19631485  0.54659968  0.84393817  1  0  0.173196  0  3.775563  0  0  0.163173  0  4.024028  0  0  0.168133  0  4.046672  0  0  0.099405  0.152691  0  4.005439  0
C  C64  1  0.07348450  0.45226822  0.90829183  1  0  -0.132027  0  3.723507  0  0  -0.154162  0  3.972576  0  0  -0.156831  0  3.991025  0  0  -0.08424  -0.152582  0  3.961803  0
C  C65  1  0.13031312  0.32617413  0.92471324  1  0  -0.072482  0  3.806241  0  0  -0.081103  0  4.051954  0  0  -0.083008  0  4.074273  0  0  -0.093847  -0.079782  0  4.036259  0
C  C66  1  0.30674802  0.29444605  0.87586631  1  0  -0.084961  0  3.787364  0  0  -0.102845  0  4.042457  0  0  -0.105381  0  4.065095  0  0  -0.0966  -0.100893  0  4.026759  0
C  C67  1  0.42855225  0.38984249  0.81291879  1  0  -0.048039  0  3.762408  0  0  -0.057381  0  4.002852  0  0  -0.058716  0  4.024653  0  0  -0.088524  -0.05617  0  3.987611  0
C  C68  1  0.37524359  0.51651810  0.79788756  1  0  -0.157099  0  3.732635  0  0  -0.171651  0  3.973371  0  0  -0.176326  0  3.994692  0  0  -0.094526  -0.169045  0  3.961058  0
N  N69  1  0.10899043  0.52104817  0.44792749  1  0  -0.117893  0  3.598088  0  0  -0.024985  0  3.817037  0  0  -0.042778  0  3.842399  0  0  -0.240503  -0.01435  0  3.802235  0
N  N70  1  0.20974108  0.62298149  0.26928061  1  0  0.021563  0  3.58701  0  0  0.109483  0  3.805904  0  0  0.092927  0  3.834951  0  0  -0.119115  0.141808  0  3.751815  0
N  N71  1  0.24942334  0.49689374  0.26834468  1  0  -0.304751  0  2.801505  0  0  -0.302002  0  3.066838  0  0  -0.308233  0  3.079108  0  0  -0.218969  -0.304069  0  3.052704  0
N  N72  1  0.50922664  0.96083641  0.31583125  1  0  -0.12534  0  3.611868  0  0  -0.033375  0  3.831563  0  0  -0.051323  0  3.858119  0  0  -0.244072  -0.021187  0  3.813471  0
N  N73  1  0.61486351  0.77894536  0.30917003  1  0  0.022605  0  3.574702  0  0  0.132304  0  3.762396  0  0  0.121454  0  3.787493  0  0  -0.117511  0.139475  0  3.74575  0
N  N74  1  0.69224673  0.85789327  0.19972529  1  0  -0.293583  0  2.827667  0  0  -0.294914  0  3.097427  0  0  -0.303881  0  3.110841  0  0  -0.210488  -0.289014  0  3.088404  0
N  N75  1  0.09553500  0.87000792  0.76133968  1  0  -0.130339  0  3.613768  0  0  -0.036869  0  3.828212  0  0  -0.055163  0  3.855333  0  0  -0.246612  -0.026027  0  3.813404  0
N  N76  1  0.13689737  0.67450038  0.82567053  1  0  0.016924  0  3.612927  0  0  0.10183  0  3.835585  0  0  0.089292  0  3.864079  0  0  -0.122299  0.136069  0  3.778305  0
N  N77  1  0.00797959  0.70844237  0.91492782  1  0  -0.286144  0  2.790415  0  0  -0.284619  0  3.057348  0  0  -0.292474  0  3.070395  0  0  -0.21266  -0.286769  0  3.042368  0
Cl  Cl78  1  0.92646325  0.02489678  0.40266517  1  0  -0.570323  0  1.023823  0  0  -0.487656  0  1.323571  0  0  -0.507222  0  1.298469  0  0  -0.336449  -0.47306  0  1.339668  0
Cl  Cl79  1  0.76532794  0.71834244  0.65664435  1  0  -0.553791  0  1.133583  0  0  -0.4707  0  1.46367  0  0  -0.49275  0  1.438089  0  0  -0.31777  -0.455105  0  1.481397  0
Cl  Cl80  1  0.54002106  0.13190957  0.65307357  1  0  -0.588296  0  1.018448  0  0  -0.503919  0  1.313246  0  0  -0.52482  0  1.289524  0  0  -0.315607  -0.489165  0  1.329526  0
