# generated using pymatgen
data_MnH14C11(N2O3)2
_symmetry_space_group_name_H-M   'P 1'
_cell_length_a   7.95271960
_cell_length_b   9.01483305
_cell_length_c   9.62627717
_cell_angle_alpha   90.00143149
_cell_angle_beta   90.00057390
_cell_angle_gamma   96.57734629
_symmetry_Int_Tables_number   1
_chemical_formula_structural   MnH14C11(N2O3)2
_chemical_formula_sum   'Mn2 H28 C22 N8 O12'
_cell_volume   685.58893955
_cell_formula_units_Z   2
loop_
 _symmetry_equiv_pos_site_id
 _symmetry_equiv_pos_as_xyz
  1  'x, y, z'
loop_
 _atom_site_type_symbol
 _atom_site_label
 _atom_site_symmetry_multiplicity
 _atom_site_fract_x
 _atom_site_fract_y
 _atom_site_fract_z
 _atom_site_occupancy
 _atom_site_hle17_ddec_charge
 _atom_site_hle17_ddec_spin_density
 _atom_site_hle17_ddec_sum_bond_order
 _atom_site_hle17_magmom
 _atom_site_hse06_10hf_ddec_charge
 _atom_site_hse06_10hf_ddec_spin_density
 _atom_site_hse06_10hf_ddec_sum_bond_order
 _atom_site_hse06_10hf_magmom
 _atom_site_hse06_ddec_charge
 _atom_site_hse06_ddec_spin_density
 _atom_site_hse06_ddec_sum_bond_order
 _atom_site_hse06_magmom
 _atom_site_pbe_cm5_charge
 _atom_site_pbe_ddec_charge
 _atom_site_pbe_ddec_spin_density
 _atom_site_pbe_ddec_sum_bond_order
 _atom_site_pbe_magmom
Mn  Mn0  1  0.81280409  0.85150785  0.11506283  1  1.158039  4.777672  1.881983  4.662  1.019131  4.677255  2.378718  4.489  1.05799  4.738682  2.31667  4.574  0.627327  0.994388  4.604285  2.420808  4.393
Mn  Mn1  1  0.18720192  0.14848729  0.61506061  1  1.158097  4.777696  1.881972  4.662  1.019157  4.677292  2.378743  4.489  1.058028  4.738703  2.316692  4.574  0.627337  0.994414  4.604346  2.420834  4.393
H  H2  1  0.17207839  0.87874909  0.03295396  1  0.417677  0.000139  0.884963  0.001  0.383927  0.000778  0.954222  0.002  0.395489  0.000505  0.937181  0.002  0.28538  0.376097  0.001028  0.965688  0.002
H  H3  1  0.82793120  0.12125147  0.53296269  1  0.417647  0.000137  0.884989  0.001  0.383865  0.000778  0.95431  0.002  0.395429  0.000505  0.937267  0.002  0.285382  0.376037  0.001028  0.965774  0.002
H  H4  1  0.17195568  0.87851327  0.19732176  1  0.417657  0.000139  0.885092  0.001  0.383953  0.000777  0.9543  0.002  0.395505  0.000505  0.937284  0.002  0.285447  0.376127  0.001027  0.965754  0.002
H  H5  1  0.82805462  0.12147863  0.69732946  1  0.417588  0.000138  0.885142  0.001  0.383954  0.000778  0.954223  0.002  0.395501  0.000505  0.937217  0.002  0.285468  0.376131  0.001028  0.965674  0.002
H  H6  1  0.47592275  0.80685435  0.03256796  1  0.422561  8.9e-05  0.884525  0.001  0.391974  0.000914  0.948639  0.002  0.40182  0.000554  0.934361  0.001  0.29079  0.384945  0.001319  0.958836  0.002
H  H7  1  0.52408887  0.19315178  0.53257685  1  0.422588  9.2e-05  0.884509  0.001  0.392016  0.000914  0.94859  0.002  0.401859  0.000554  0.934313  0.001  0.290784  0.384984  0.001318  0.958794  0.002
H  H8  1  0.47590239  0.80680996  0.19780629  1  0.422822  9.3e-05  0.88418  0.001  0.391856  0.000914  0.948692  0.002  0.401733  0.000554  0.934393  0.001  0.290612  0.384823  0.001319  0.958861  0.002
H  H9  1  0.52410399  0.19318981  0.69781622  1  0.422715  9.4e-05  0.884287  0.001  0.391749  0.000914  0.948804  0.002  0.401627  0.000554  0.934504  0.001  0.290543  0.384716  0.001319  0.958973  0.002
H  H10  1  0.73258845  0.38670999  0.75402380  1  0.126731  0.000198  0.983993  0.0  0.132866  0.000463  1.050415  0.0  0.136345  0.00029  1.047814  0.0  0.122517  0.13061  0.000538  1.052176  0.0
H  H11  1  0.26740406  0.61329375  0.25404717  1  0.126653  0.000186  0.984123  0.0  0.132797  0.000463  1.050538  0.0  0.136276  0.00029  1.047938  0.0  0.122511  0.130547  0.000538  1.052287  0.0
H  H12  1  0.62491086  0.51310146  0.99585038  1  0.098089  -0.000183  0.96922  0.0  0.107464  -1.5e-05  1.031356  0.0  0.109038  -6.6e-05  1.031884  0.0  0.116498  0.106591  8.3e-05  1.03066  0.0
H  H13  1  0.37508875  0.48690586  0.49587174  1  0.098003  -0.000184  0.96925  0.0  0.107417  -1.6e-05  1.031306  0.0  0.108994  -6.5e-05  1.031835  0.0  0.116517  0.106558  8.3e-05  1.030593  0.0
H  H14  1  0.98953556  0.82446496  0.80266968  1  0.116811  -0.000837  0.978172  0.0  0.122262  -0.000513  1.04426  0.0  0.12537  -0.000562  1.040824  0.0  0.140829  0.120052  -0.000415  1.046595  0.0
H  H15  1  0.01046195  0.17553456  0.30267358  1  0.116769  -0.000832  0.978258  0.0  0.12223  -0.000513  1.044313  0.0  0.125338  -0.000562  1.040874  0.0  0.140818  0.120018  -0.000415  1.046647  0.0
H  H16  1  0.09477352  0.66357078  0.61517002  1  0.09223  -0.000135  0.913564  0.0  0.10396  3.7e-05  0.978383  0.0  0.10308  -6.2e-05  0.980031  0.0  0.137058  0.104408  0.000218  0.977188  0.0
H  H17  1  0.90521930  0.33642001  0.11517573  1  0.092292  -0.000127  0.91352  0.0  0.103989  3.7e-05  0.978362  0.0  0.103116  -6.2e-05  0.980013  0.0  0.137057  0.104422  0.000219  0.977157  0.0
H  H18  1  0.02025340  0.46895014  0.61517786  1  0.090479  -8.9e-05  0.934109  0.0  0.098771  0.000341  1.004271  0.0  0.100085  0.000192  1.002941  0.0  0.133045  0.096807  0.000468  1.00598  0.0
H  H19  1  0.97973127  0.53104518  0.11519074  1  0.090607  -0.000103  0.933911  0.0  0.09885  0.000341  1.004122  0.0  0.100171  0.000192  1.002796  0.0  0.133049  0.096879  0.000468  1.005794  0.0
H  H20  1  0.98985681  0.82448478  0.42753504  1  0.11684  -0.000853  0.978341  0.0  0.122309  -0.000519  1.044439  0.0  0.125432  -0.000566  1.040981  0.0  0.140645  0.120103  -0.00042  1.046771  0.0
H  H21  1  0.01014503  0.17550825  0.92754236  1  0.116784  -0.000834  0.978349  0.0  0.1223  -0.000518  1.044426  0.0  0.125423  -0.000567  1.040968  0.0  0.140641  0.120093  -0.000421  1.046757  0.0
H  H22  1  0.62601218  0.51297049  0.23362944  1  0.097537  -0.000184  0.969507  0.0  0.106803  -1.2e-05  1.031855  0.0  0.108364  -6.2e-05  1.032411  0.0  0.116271  0.105972  8.7e-05  1.031102  0.0
H  H23  1  0.37398267  0.48702482  0.73365110  1  0.097422  -0.000172  0.969716  0.0  0.106672  -1.2e-05  1.032059  0.0  0.108251  -6.2e-05  1.032578  0.0  0.116189  0.105806  8.7e-05  1.031358  0.0
H  H24  1  0.73334113  0.38644026  0.47543427  1  0.126662  0.000194  0.984228  0.0  0.132768  0.000461  1.050667  0.0  0.136227  0.000288  1.048157  0.0  0.122501  0.130555  0.000533  1.052309  0.0
H  H25  1  0.26664812  0.61355761  0.97546002  1  0.12662  0.000177  0.984324  0.0  0.132825  0.00046  1.050625  0.0  0.136287  0.000289  1.048115  0.0  0.122514  0.13061  0.000534  1.052271  0.0
H  H26  1  0.45255277  0.19206671  0.99493908  1  0.114713  -0.000344  0.939309  0.0  0.122574  -0.000303  1.000193  0.0  0.126843  -0.000251  0.99771  0.0  0.10302  0.118979  -0.000338  1.003203  0.0
H  H27  1  0.54746881  0.80793593  0.49492874  1  0.114834  -0.000342  0.939113  0.0  0.12262  -0.000303  1.000084  0.0  0.126929  -0.000251  0.997576  0.0  0.103004  0.119024  -0.000337  1.003098  0.0
H  H28  1  0.45259076  0.19188549  0.23565905  1  0.115035  -0.000359  0.939112  0.0  0.123035  -0.000306  0.999947  0.0  0.127268  -0.000252  0.997464  0.0  0.103225  0.119531  -0.000341  1.002894  0.0
H  H29  1  0.54742846  0.80816669  0.73564797  1  0.115004  -0.000362  0.939157  0.0  0.12299  -0.000306  1.000009  0.0  0.12722  -0.000252  0.99753  0.0  0.10316  0.119479  -0.00034  1.002946  0.0
C  C30  1  0.76793812  0.49550231  0.80006896  1  -0.068496  -0.00106  3.6655  0.0  -0.110396  9.9e-05  3.925891  0.0  -0.109607  -0.000506  3.945849  0.0  -0.003664  -0.110804  0.000782  3.912  0.001
C  C31  1  0.23205684  0.50449716  0.30008642  1  -0.068301  -0.000981  3.665513  0.0  -0.110187  9.8e-05  3.925893  0.0  -0.109399  -0.000506  3.945849  0.0  -0.003584  -0.1106  0.000782  3.912016  0.001
C  C32  1  0.71822937  0.55858497  0.92074749  1  -0.008954  0.001621  3.763126  0.002  -0.037258  0.002879  4.027821  0.003  -0.03701  0.002427  4.050442  0.003  -0.002856  -0.037273  0.003463  4.011315  0.004
C  C33  1  0.28176435  0.44141352  0.42076288  1  -0.008963  0.001608  3.763228  0.002  -0.037274  0.00288  4.027999  0.003  -0.037025  0.002427  4.050621  0.003  -0.002916  -0.037303  0.003463  4.011489  0.004
C  C34  1  0.90489578  0.72354218  0.82535295  1  0.166831  0.006162  3.619952  0.006  0.107098  0.008723  3.887014  0.008  0.120155  0.007437  3.899511  0.007  0.149291  0.099539  0.009166  3.877035  0.008
C  C35  1  0.09509581  0.27645804  0.32535988  1  0.166739  0.006154  3.619813  0.006  0.107071  0.008726  3.886846  0.008  0.120128  0.007436  3.899343  0.007  0.149227  0.099514  0.009167  3.87687  0.008
C  C36  1  0.98182103  0.58183462  0.61503981  1  0.096717  0.001  3.629197  0.001  0.02001  0.001396  3.873543  0.001  0.029435  0.001075  3.883791  0.001  0.065594  0.014505  0.001652  3.866543  0.001
C  C37  1  0.01816787  0.41816402  0.11505454  1  0.096405  0.001006  3.629061  0.001  0.019782  0.001395  3.87336  0.001  0.029171  0.001076  3.883638  0.001  0.065532  0.014359  0.001652  3.866256  0.001
C  C38  1  0.90529611  0.72353608  0.40473240  1  0.16587  0.006229  3.620981  0.006  0.1064  0.008723  3.88772  0.008  0.119457  0.007439  3.900237  0.007  0.149996  0.098822  0.009165  3.877741  0.008
C  C39  1  0.09470380  0.27645407  0.90474274  1  0.165953  0.006167  3.620731  0.006  0.106379  0.008719  3.887486  0.008  0.119439  0.007436  3.899999  0.007  0.149947  0.098802  0.009162  3.877509  0.008
C  C40  1  0.71902760  0.55853698  0.30892218  1  -0.007599  0.001667  3.762495  0.003  -0.03566  0.002895  4.027127  0.003  -0.035402  0.002445  4.049753  0.003  -0.00227  -0.035698  0.003481  4.010598  0.004
C  C41  1  0.28096137  0.44146391  0.80894098  1  -0.007405  0.001582  3.762662  0.002  -0.035499  0.002896  4.027281  0.003  -0.035251  0.002443  4.049924  0.003  -0.002123  -0.035512  0.00348  4.010762  0.004
C  C42  1  0.76853809  0.49533986  0.42956747  1  -0.069618  -0.001102  3.666113  0.0  -0.111602  8.4e-05  3.926492  0.0  -0.110909  -0.000525  3.946517  0.0  -0.004118  -0.111942  0.000769  3.912528  0.001
C  C43  1  0.23145060  0.50465781  0.92958730  1  -0.069515  -0.000946  3.666215  0.0  -0.111568  8.2e-05  3.926531  0.0  -0.110885  -0.000523  3.94657  0.0  -0.004098  -0.111909  0.000769  3.912566  0.001
C  C44  1  0.68256129  0.10149853  0.94072490  1  0.687408  0.0096  3.881583  0.009  0.630772  0.018974  4.189317  0.016  0.667241  0.012125  4.176913  0.011  0.207829  0.60537  0.025967  4.198486  0.02
C  C45  1  0.31743086  0.89849608  0.44070744  1  0.68747  0.009595  3.881289  0.009  0.630822  0.018975  4.188993  0.016  0.667294  0.012126  4.176596  0.011  0.20788  0.605417  0.025964  4.198169  0.02
C  C46  1  0.55958831  0.14738478  0.04478665  1  -0.164907  0.001798  3.636697  0.001  -0.188079  0.009125  3.908446  0.006  -0.188027  0.003081  3.913346  0.002  -0.086901  -0.19128  0.018103  3.910328  0.012
C  C47  1  0.44042429  0.85260939  0.54479440  1  -0.16502  0.001641  3.636113  0.001  -0.188151  0.009133  3.90784  0.006  -0.188143  0.003083  3.912736  0.002  -0.086827  -0.191352  0.018108  3.90972  0.012
C  C48  1  0.55963417  0.14728470  0.18578301  1  -0.165253  0.001843  3.638235  0.001  -0.188922  0.009172  3.910121  0.006  -0.188817  0.003133  3.915067  0.002  -0.087232  -0.192223  0.01815  3.91192  0.012
C  C49  1  0.44035678  0.85273162  0.68579595  1  -0.165302  0.001999  3.638374  0.001  -0.188895  0.009157  3.910204  0.006  -0.188803  0.00313  3.91518  0.002  -0.087255  -0.192165  0.018128  3.911981  0.012
C  C50  1  0.68269025  0.10133376  0.28967778  1  0.685962  0.009551  3.886121  0.009  0.62947  0.018925  4.193368  0.016  0.665861  0.012095  4.181073  0.011  0.207748  0.604118  0.025892  4.202491  0.02
C  C51  1  0.31732339  0.89868313  0.78967309  1  0.686231  0.009502  3.886309  0.009  0.629698  0.018912  4.193589  0.016  0.666089  0.012086  4.181292  0.011  0.207817  0.604341  0.025875  4.202727  0.02
N  N52  1  0.80564072  0.69981223  0.93608042  1  -0.384774  0.026065  3.23498  0.01  -0.319039  0.02852  3.527126  0.007  -0.338252  0.026923  3.540855  0.006  -0.347067  -0.305297  0.030318  3.516266  0.009
N  N53  1  0.19435842  0.30018778  0.43608977  1  -0.384692  0.026042  3.234798  0.01  -0.31904  0.028522  3.52704  0.007  -0.338253  0.026926  3.540768  0.006  -0.346997  -0.3053  0.030321  3.516188  0.009
N  N54  1  0.88640658  0.60140921  0.74090969  1  -0.089769  0.000925  3.57662  0.001  0.000335  0.002389  3.800916  0.002  -0.0154  0.00184  3.82778  0.002  -0.246247  0.010741  0.003131  3.782235  0.003
N  N55  1  0.11358918  0.39859189  0.24092373  1  -0.089669  0.000926  3.576601  0.001  0.000381  0.002388  3.800896  0.002  -0.015343  0.00184  3.827764  0.002  -0.246265  0.010762  0.00313  3.7822  0.003
N  N56  1  0.80628736  0.69983215  0.29385707  1  -0.384421  0.026053  3.236263  0.01  -0.319084  0.028524  3.528707  0.007  -0.338322  0.026933  3.542442  0.006  -0.347335  -0.305327  0.030321  3.517863  0.009
N  N57  1  0.19370719  0.30016490  0.79386774  1  -0.38452  0.02608  3.235866  0.01  -0.31906  0.028527  3.528226  0.007  -0.3383  0.026935  3.541965  0.006  -0.347337  -0.305299  0.030324  3.517362  0.009
N  N58  1  0.88676099  0.60128408  0.48899298  1  -0.087759  0.000921  3.578054  0.001  0.002256  0.002401  3.802082  0.002  -0.013435  0.001851  3.828926  0.002  -0.24617  0.012635  0.003139  3.783422  0.003
N  N59  1  0.11322690  0.39871196  0.98900628  1  -0.087783  0.000925  3.577896  0.001  0.002221  0.002402  3.801967  0.002  -0.013461  0.001851  3.828815  0.002  -0.246204  0.01258  0.003139  3.783285  0.003
O  O60  1  0.80374506  0.02696858  0.97381626  1  -0.645331  0.02839  2.080275  0.016  -0.579553  0.030758  2.346746  0.015  -0.607173  0.02836  2.331954  0.012  -0.317831  -0.560579  0.034565  2.356718  0.019
O  O61  1  0.19625202  0.97302247  0.47380885  1  -0.645249  0.028398  2.080538  0.016  -0.579436  0.030762  2.346963  0.015  -0.607051  0.028365  2.33217  0.012  -0.317764  -0.560466  0.034568  2.356937  0.019
O  O62  1  0.66359186  0.14453721  0.81553984  1  -0.655949  0.007356  2.007229  0.009  -0.589381  0.015006  2.23093  0.017  -0.614473  0.010189  2.219032  0.012  -0.311761  -0.572155  0.021155  2.239223  0.023
O  O63  1  0.33641528  0.85543130  0.31552572  1  -0.656097  0.007339  2.007136  0.009  -0.589482  0.014999  2.230839  0.017  -0.61459  0.010184  2.218963  0.012  -0.311788  -0.572246  0.021147  2.239111  0.023
O  O64  1  0.80381556  0.02676646  0.25662623  1  -0.644792  0.028399  2.081803  0.016  -0.578894  0.030766  2.347821  0.015  -0.606376  0.028359  2.332998  0.012  -0.317751  -0.559977  0.034572  2.35777  0.019
O  O65  1  0.19617651  0.97322507  0.75661704  1  -0.644932  0.02842  2.081608  0.016  -0.57906  0.030766  2.347704  0.015  -0.60655  0.02836  2.332883  0.012  -0.31782  -0.560136  0.034572  2.357659  0.019
O  O66  1  0.66356108  0.14435281  0.41486677  1  -0.655299  0.007339  2.00895  0.009  -0.588609  0.014956  2.232263  0.017  -0.613696  0.010156  2.220412  0.012  -0.311447  -0.571381  0.021094  2.240533  0.023
O  O67  1  0.33644683  0.85565769  0.91484152  1  -0.65538  0.00737  2.009175  0.009  -0.588681  0.014952  2.232495  0.017  -0.613767  0.010156  2.220636  0.012  -0.311471  -0.571462  0.021089  2.240791  0.023
O  O68  1  0.09489212  0.87279184  0.11511306  1  -0.850063  0.0286  1.864342  0.016  -0.793109  0.040745  2.07418  0.025  -0.813477  0.036093  2.036045  0.021  -0.582169  -0.777754  0.045317  2.099483  0.029
O  O69  1  0.90511923  0.12720549  0.61512049  1  -0.849938  0.028607  1.864404  0.016  -0.793006  0.040748  2.074228  0.025  -0.813373  0.036095  2.036097  0.021  -0.582194  -0.77765  0.045319  2.099529  0.029
O  O70  1  0.53725095  0.77382433  0.11517402  1  -0.853686  0.033054  1.901113  0.023  -0.800458  0.04466  2.114303  0.031  -0.822392  0.039307  2.083151  0.027  -0.580809  -0.784096  0.050396  2.13582  0.037
O  O71  1  0.46275428  0.22617417  0.61518211  1  -0.853654  0.033048  1.901191  0.023  -0.800396  0.044659  2.114332  0.031  -0.822346  0.039307  2.083217  0.027  -0.580724  -0.784028  0.050394  2.135849  0.037
