# generated using pymatgen
data_Zn4H6C24S4N2O21
_symmetry_space_group_name_H-M   'P 1'
_cell_length_a   19.62309953
_cell_length_b   19.73310417
_cell_length_c   33.28658928
_cell_angle_alpha   79.09557887
_cell_angle_beta   79.40208327
_cell_angle_gamma   64.07537543
_symmetry_Int_Tables_number   1
_chemical_formula_structural   Zn4H6C24S4N2O21
_chemical_formula_sum   'Zn16 H24 C96 S16 N8 O84'
_cell_volume   11308.01666925
_cell_formula_units_Z   4
loop_
 _symmetry_equiv_pos_site_id
 _symmetry_equiv_pos_as_xyz
  1  'x, y, z'
loop_
 _atom_site_type_symbol
 _atom_site_label
 _atom_site_symmetry_multiplicity
 _atom_site_fract_x
 _atom_site_fract_y
 _atom_site_fract_z
 _atom_site_occupancy
 _atom_site_pbe_bader_charge
 _atom_site_pbe_bader_spin_density
 _atom_site_pbe_cm5_charge
 _atom_site_pbe_ddec_charge
 _atom_site_pbe_ddec_spin_density
 _atom_site_pbe_ddec_sum_bond_order
 _atom_site_pbe_magmom
Zn  Zn0  1  0.05772800  0.40085311  0.47825211  1  1.312995  0  0.669795  0.96677  0  2.357091  0
Zn  Zn1  1  0.98322595  0.48304556  0.56032206  1  1.316045  0  0.676127  0.958178  0  2.379009  0
Zn  Zn2  1  0.06063288  0.55984165  0.48184446  1  1.32312  0  0.678663  0.970542  0  2.354556  0
Zn  Zn3  1  0.89968620  0.55463440  0.48001916  1  1.320101  0  0.678444  0.969747  0  2.358389  0
Zn  Zn4  1  0.69315406  0.35028889  0.27045318  1  1.313787  0  0.669617  0.967285  0  2.351713  0
Zn  Zn5  1  0.69204192  0.18736727  0.26755223  1  1.317258  0  0.673063  0.963252  0  2.36254  0
Zn  Zn6  1  0.76668254  0.26941818  0.18964060  1  1.323963  0  0.677959  0.970078  0  2.350722  0
Zn  Zn7  1  0.84776539  0.19329308  0.27265319  1  1.322398  0  0.681035  0.965273  0  2.365336  0
Zn  Zn8  1  0.26562511  0.76792483  0.68956863  1  1.316489  0  0.676255  0.957855  0  2.380638  0
Zn  Zn9  1  0.34984141  0.69454683  0.77115712  1  1.318911  0  0.673235  0.963072  0  2.368609  0
Zn  Zn10  1  0.19303113  0.84972217  0.77030125  1  1.317469  0  0.675352  0.973566  0  2.351337  0
Zn  Zn11  1  0.19240614  0.68720772  0.76810066  1  1.321874  0  0.678307  0.969464  0  2.356265  0
Zn  Zn12  1  0.56024323  0.06059005  0.98243004  1  1.315493  0  0.672493  0.962184  0  2.365189  0
Zn  Zn13  1  0.40001945  0.05507991  0.97854779  1  1.31516  0  0.676072  0.959313  0  2.370187  0
Zn  Zn14  1  0.55862999  0.90199985  0.97829864  1  1.319753  0  0.674553  0.973122  0  2.344487  0
Zn  Zn15  1  0.47866757  0.98522254  0.06028955  1  1.323613  0  0.678698  0.971437  0  2.350179  0
H  H16  1  0.74800258  0.45241188  0.35023001  1  0.161116  0  0.128345  0.147737  0  0.964836  0
H  H17  1  0.00111535  0.29781685  0.40008208  1  0.168165  0  0.128196  0.147577  0  0.96564  0
H  H18  1  0.20063885  0.70059101  0.59944712  1  0.131935  0  0.129669  0.152844  0  0.96022  0
H  H19  1  0.04986662  0.54865238  0.65054746  1  0.130684  0  0.129416  0.149632  0  0.963258  0
H  H20  1  0.65048574  0.15129131  0.04925142  1  0.176809  0  0.128957  0.14863  0  0.965859  0
H  H21  1  0.59967758  0.09862131  0.20080803  1  0.169784  0  0.128806  0.147915  0  0.96512  0
H  H22  1  0.29879231  0.99976970  0.90024064  1  0.171632  0  0.13015  0.150924  0  0.9633  0
H  H23  1  0.45182402  0.74906001  0.84985669  1  0.171723  0  0.12891  0.149042  0  0.964639  0
H  H24  1  0.32788082  0.53966093  0.39837673  1  0.598199  0  0.346049  0.372481  0  0.858549  0
H  H25  1  0.42400460  0.20866722  0.35142833  1  0.605537  0  0.344068  0.369811  0  0.862944  0
H  H26  1  0.75429006  0.54216904  0.68519501  1  0.617912  0  0.344026  0.370207  0  0.863225  0
H  H27  1  0.49417761  0.70743959  0.56553759  1  0.622014  0  0.34531  0.371883  0  0.860422  0
H  H28  1  0.04294590  0.25500540  0.68369323  1  0.623405  0  0.345266  0.370924  0  0.861483  0
H  H29  1  0.20782519  0.99627654  0.56524651  1  0.626925  0  0.343988  0.37063  0  0.862505  0
H  H30  1  0.74526268  0.81199283  0.38636062  1  0.613235  0  0.345421  0.371041  0  0.861741  0
H  H31  1  0.00448955  0.93327120  0.36448055  1  0.606404  0  0.346523  0.372632  0  0.857843  0
H  H32  1  0.70611875  0.49722704  0.06573061  1  0.590623  0  0.345868  0.372438  0  0.859222  0
H  H33  1  0.54232734  0.75817278  0.18353352  1  0.629687  0  0.344937  0.370145  0  0.861716  0
H  H34  1  0.14611816  0.08126248  0.22083965  1  0.606664  0  0.345761  0.371303  0  0.859957  0
H  H35  1  0.09769625  0.17305851  0.03064192  1  0.613048  0  0.344301  0.370494  0  0.862213  0
H  H36  1  0.50838150  0.43151153  0.86361189  1  0.614761  0  0.344041  0.370997  0  0.862136  0
H  H37  1  0.24485854  0.31666568  0.88671222  1  0.593257  0  0.345296  0.371896  0  0.86041  0
H  H38  1  0.92252787  0.71024877  0.85021406  1  0.604075  0  0.346058  0.372551  0  0.858317  0
H  H39  1  0.83102211  0.04004681  0.89751972  1  0.641901  0  0.34419  0.370704  0  0.861999  0
C  C40  1  0.06292429  0.31689649  0.56161228  1  1.551888  0  0.212938  0.622958  0  4.220589  0
C  C41  1  0.07018775  0.56841594  0.56847003  1  1.607408  0  0.232975  0.608767  0  4.175468  0
C  C42  1  0.18452620  0.43926735  0.43742647  1  1.575345  0  0.213532  0.62306  0  4.221712  0
C  C43  1  0.93631847  0.68280153  0.43962388  1  1.559113  0  0.213861  0.621833  0  4.216941  0
C  C44  1  0.93110700  0.42945552  0.43196004  1  1.622524  0  0.233562  0.610656  0  4.170952  0
C  C45  1  0.81633770  0.56027013  0.56307562  1  1.579432  0  0.213326  0.621097  0  4.223203  0
C  C46  1  0.56695851  0.30953161  0.31089240  1  1.566676  0  0.212903  0.624046  0  4.216667  0
C  C47  1  0.68117350  0.18121628  0.18113841  1  1.613106  0  0.233386  0.610145  0  4.17228  0
C  C48  1  0.68872015  0.43597196  0.18779415  1  1.56363  0  0.212658  0.621091  0  4.220437  0
C  C49  1  0.93273365  0.18933887  0.18996989  1  1.556194  0  0.214663  0.62205  0  4.2216  0
C  C50  1  0.81686291  0.31951983  0.31957894  1  1.626097  0  0.23309  0.609269  0  4.175996  0
C  C51  1  0.81298833  0.06366713  0.31175409  1  1.54908  0  0.213715  0.62244  0  4.219775  0
C  C52  1  0.43237896  0.68971062  0.68767530  1  1.570061  0  0.21332  0.622809  0  4.221201  0
C  C53  1  0.31921336  0.81978730  0.81817125  1  1.620824  0  0.23249  0.609917  0  4.174146  0
C  C54  1  0.18788944  0.93412765  0.68730655  1  1.564517  0  0.21349  0.621197  0  4.2247  0
C  C55  1  0.06747921  0.80892106  0.81100850  1  1.559941  0  0.214543  0.623717  0  4.21531  0
C  C56  1  0.18151116  0.67968907  0.68152316  1  1.616911  0  0.233261  0.60866  0  4.17402  0
C  C57  1  0.31567212  0.56521249  0.81192391  1  1.568965  0  0.213903  0.622776  0  4.219005  0
C  C58  1  0.43737913  0.18308699  0.93835212  1  1.573511  0  0.21327  0.622577  0  4.218924  0
C  C59  1  0.43235555  0.93014457  0.93092346  1  1.6128  0  0.232908  0.608486  0  4.175424  0
C  C60  1  0.68592883  0.94131481  0.93844913  1  1.565242  0  0.213081  0.621961  0  4.219759  0
C  C61  1  0.55982076  0.81867093  0.06144866  1  1.56036  0  0.214669  0.622582  0  4.216743  0
C  C62  1  0.56703689  0.07060640  0.06892689  1  1.61749  0  0.233115  0.609234  0  4.173681  0
C  C63  1  0.31215264  0.06292495  0.06053748  1  1.550859  0  0.211877  0.619587  0  4.223173  0
C  C64  1  0.90168573  0.40341027  0.40199112  1  0.001315  0  0.004134  -0.049759  0  3.9145  0
C  C65  1  0.84849054  0.34788305  0.34728401  1  0.042269  0  0.005845  -0.047203  0  3.910206  0
C  C66  1  0.83076023  0.44632295  0.38704194  1  0.182549  0  0.093473  0.069797  0  3.912718  0
C  C67  1  0.92023043  0.30575955  0.36143756  1  0.189508  0  0.094268  0.070816  0  3.91151  0
C  C68  1  0.80392218  0.41893163  0.36083545  1  0.070283  0  -0.061458  -0.124489  0  3.912722  0
C  C69  1  0.94594250  0.33205085  0.38874765  1  0.026071  0  -0.061676  -0.125413  0  3.915079  0
C  C70  1  0.09780114  0.59926953  0.59691643  1  0.075096  0  0.005132  -0.048514  0  3.915238  0
C  C71  1  0.15068015  0.65197319  0.65310353  1  0.081349  0  0.005684  -0.046564  0  3.912998  0
C  C72  1  0.13977030  0.64301256  0.58326634  1  0.172212  0  0.093654  0.068647  0  3.917994  0
C  C73  1  0.10727467  0.60966091  0.66675007  1  0.196009  0  0.092978  0.068653  0  3.914447  0
C  C74  1  0.16690499  0.66786647  0.61057798  1  0.053849  0  -0.061223  -0.127329  0  3.912758  0
C  C75  1  0.08230957  0.58265728  0.63943308  1  0.021828  0  -0.060056  -0.122837  0  3.910814  0
C  C76  1  0.30557141  0.45385014  0.40004092  1  0.582736  0  0.088923  0.282961  0  4.084639  0
C  C77  1  0.44616380  0.29477358  0.34872445  1  0.593081  0  0.087184  0.281  0  4.085967  0
C  C78  1  0.25901557  0.41497200  0.41295215  1  -0.094352  0  -0.038694  -0.233554  0  3.919793  0
C  C79  1  0.49275836  0.33356195  0.33574766  1  -0.086367  0  -0.039006  -0.233882  0  3.920059  0
C  C80  1  0.37812802  0.33865650  0.37246797  1  -0.164361  0  -0.038713  -0.136778  0  4.149058  0
C  C81  1  0.37418217  0.40950533  0.37680948  1  -0.125303  0  -0.03782  -0.135852  0  4.145212  0
C  C82  1  0.72518981  0.57668697  0.63067907  1  0.628825  0  0.087256  0.281193  0  4.087633  0
C  C83  1  0.52345679  0.67351078  0.62005148  1  0.550717  0  0.087713  0.283327  0  4.083885  0
C  C84  1  0.74224259  0.58534671  0.58792894  1  -0.143627  0  -0.0378  -0.233715  0  3.921564  0
C  C85  1  0.50643052  0.66525378  0.66282873  1  -0.072018  0  -0.038887  -0.234218  0  3.922606  0
C  C86  1  0.60350501  0.64163734  0.60840494  1  -0.145594  0  -0.038437  -0.139516  0  4.149285  0
C  C87  1  0.64519981  0.60955256  0.64230425  1  -0.132698  0  -0.038201  -0.137095  0  4.151289  0
C  C88  1  0.07755537  0.22593466  0.62938397  1  0.517329  0  0.087819  0.283424  0  4.084057  0
C  C89  1  0.17308735  0.02509760  0.61957830  1  0.623865  0  0.087275  0.282019  0  4.086505  0
C  C90  1  0.08659263  0.24297369  0.58660119  1  -0.082804  0  -0.039132  -0.234453  0  3.921887  0
C  C91  1  0.16372376  0.00809090  0.66233758  1  -0.115782  0  -0.037994  -0.233792  0  3.922938  0
C  C92  1  0.14098735  0.10476481  0.60764642  1  -0.154421  0  -0.038827  -0.137323  0  4.150337  0
C  C93  1  0.10874306  0.14623348  0.64131887  1  -0.101228  0  -0.03778  -0.138806  0  4.149498  0
C  C94  1  0.84271411  0.79917159  0.39757164  1  0.611278  0  0.089209  0.28427  0  4.083979  0
C  C95  1  0.90641154  0.94705069  0.35378009  1  0.624065  0  0.08939  0.28381  0  4.08492  0
C  C96  1  0.91097994  0.75707878  0.41499323  1  -0.079131  0  -0.038676  -0.235237  0  3.920493  0
C  C97  1  0.83794235  0.98954270  0.33657859  1  -0.115863  0  -0.038841  -0.233521  0  3.917077  0
C  C98  1  0.90774365  0.87773033  0.37622751  1  -0.149261  0  -0.038351  -0.139979  0  4.147564  0
C  C99  1  0.84109813  0.86876851  0.37539247  1  -0.196892  0  -0.038807  -0.136842  0  4.147633  0
C  C100  1  0.65456961  0.15124168  0.15168630  1  0.011956  0  0.005704  -0.047598  0  3.908307  0
C  C101  1  0.59768571  0.09654733  0.09836516  1  0.07068  0  0.004665  -0.049915  0  3.911646  0
C  C102  1  0.66888312  0.16450744  0.10873642  1  0.197411  0  0.093484  0.069616  0  3.911935  0
C  C103  1  0.58497159  0.08169694  0.14131280  1  0.191033  0  0.094369  0.071856  0  3.909272  0
C  C104  1  0.64012240  0.13905751  0.08252642  1  -0.023227  0  -0.061377  -0.123908  0  3.910698  0
C  C105  1  0.61150857  0.10937996  0.16752726  1  0.045035  0  -0.061584  -0.124401  0  3.908681  0
C  C106  1  0.67312028  0.52692575  0.11998484  1  0.563419  0  0.088613  0.283383  0  4.083356  0
C  C107  1  0.57514127  0.72801502  0.12935308  1  0.59997  0  0.088817  0.283684  0  4.082481  0
C  C108  1  0.66413957  0.50998610  0.16280268  1  -0.065307  0  -0.03904  -0.23384  0  3.91775  0
C  C109  1  0.58392159  0.74474997  0.08652047  1  -0.091462  0  -0.038103  -0.234958  0  3.917234  0
C  C110  1  0.60751233  0.64833456  0.14145562  1  -0.145752  0  -0.038537  -0.136112  0  4.1447  0
C  C111  1  0.64026657  0.60662333  0.10789734  1  -0.137904  0  -0.038003  -0.138466  0  4.145405  0
C  C112  1  0.07972441  0.12560274  0.17845315  1  0.615056  0  0.089302  0.282125  0  4.084331  0
C  C113  1  0.16508663  0.12611120  0.07236269  1  0.548775  0  0.087339  0.282166  0  4.086194  0
C  C114  1  0.00708782  0.16367417  0.16539306  1  -0.098176  0  -0.038345  -0.233138  0  3.919094  0
C  C115  1  0.23783082  0.08775108  0.08520090  1  -0.094158  0  -0.038732  -0.235  0  3.920564  0
C  C116  1  0.10756309  0.13929909  0.10649698  1  -0.164013  0  -0.039006  -0.139936  0  4.152193  0
C  C117  1  0.13742712  0.11148840  0.14434065  1  -0.204198  0  -0.037622  -0.136362  0  4.143417  0
C  C118  1  0.34608303  0.84840789  0.84812864  1  0.030925  0  0.00466  -0.050075  0  3.91358  0
C  C119  1  0.40348491  0.89935295  0.90301311  1  0.050942  0  0.005637  -0.046396  0  3.90879  0
C  C120  1  0.30358284  0.91862781  0.86319982  1  0.164993  0  0.094115  0.071299  0  3.912774  0
C  C121  1  0.44519126  0.82834885  0.88872279  1  0.214954  0  0.093669  0.069813  0  3.913419  0
C  C122  1  0.33185769  0.94439358  0.88949416  1  0.016189  0  -0.061107  -0.125633  0  3.911405  0
C  C123  1  0.41800532  0.80368552  0.86133727  1  0.049814  0  -0.061609  -0.124375  0  3.912431  0
C  C124  1  0.40928471  0.44760743  0.85350257  1  0.605563  0  0.086728  0.280648  0  4.087311  0
C  C125  1  0.34404776  0.30064387  0.89668998  1  0.594745  0  0.088248  0.283104  0  4.084173  0
C  C126  1  0.34069062  0.49095023  0.83662180  1  -0.135708  0  -0.037867  -0.234361  0  3.920981  0
C  C127  1  0.41246686  0.25746528  0.91378310  1  -0.12545  0  -0.039199  -0.2341  0  3.920275  0
C  C128  1  0.34285875  0.37035372  0.87493819  1  -0.166145  0  -0.038232  -0.140287  0  4.150702  0
C  C129  1  0.41005423  0.37836982  0.87568795  1  -0.112225  0  -0.038743  -0.135953  0  4.147666  0
C  C130  1  0.94614167  0.79518564  0.84886703  1  0.591441  0  0.089528  0.283684  0  4.084025  0
C  C131  1  0.80753799  0.95471122  0.90054762  1  0.590349  0  0.087271  0.280747  0  4.087838  0
C  C132  1  0.99348209  0.83325925  0.83597716  1  -0.085688  0  -0.039247  -0.234108  0  3.916032  0
C  C133  1  0.76025988  0.91668569  0.91369624  1  -0.081732  0  -0.038899  -0.234479  0  3.918482  0
C  C134  1  0.87557846  0.90991913  0.87712901  1  -0.164127  0  -0.038906  -0.138319  0  4.149653  0
C  C135  1  0.87840917  0.83953486  0.87271642  1  -0.146253  0  -0.038222  -0.138551  0  4.145362  0
S  S136  1  0.29902949  0.32485764  0.39687686  1  0.233434  0  0.057707  0.10918  0  2.796032  0
S  S137  1  0.45342553  0.42312112  0.35247051  1  0.240726  0  0.060336  0.113086  0  2.79372  0
S  S138  1  0.66101606  0.63310538  0.56215286  1  0.259059  0  0.067449  0.124208  0  2.79031  0
S  S139  1  0.58777419  0.61875913  0.68859043  1  0.237138  0  0.059223  0.111975  0  2.795684  0
S  S140  1  0.13288104  0.16206477  0.56120487  1  0.240505  0  0.057784  0.109694  0  2.796118  0
S  S141  1  0.11623374  0.08891141  0.68773902  1  0.25038  0  0.066643  0.12285  0  2.790159  0
S  S142  1  0.97257346  0.80233078  0.40437902  1  0.250284  0  0.067164  0.124755  0  2.78868  0
S  S143  1  0.77582900  0.94481214  0.34777299  1  0.242613  0  0.056982  0.108822  0  2.791746  0
S  S144  1  0.61571058  0.59112086  0.18798274  1  0.232653  0  0.056056  0.107343  0  2.789816  0
S  S145  1  0.63141435  0.66364344  0.06132328  1  0.241018  0  0.06646  0.123428  0  2.787372  0
S  S146  1  0.00935569  0.18177591  0.11185886  1  0.291795  0  0.065306  0.12148  0  2.791845  0
S  S147  1  0.23567502  0.06818110  0.13875529  1  0.286764  0  0.064743  0.12067  0  2.784805  0
S  S148  1  0.27774146  0.44723681  0.84773538  1  0.256327  0  0.067085  0.124467  0  2.792918  0
S  S149  1  0.47485520  0.30181959  0.90327231  1  0.245603  0  0.058472  0.110766  0  2.795579  0
S  S150  1  0.95541747  0.92255282  0.85291834  1  0.251051  0  0.06388  0.119223  0  2.792172  0
S  S151  1  0.79887947  0.82678104  0.89741144  1  0.247655  0  0.065326  0.121768  0  2.788441  0
N  N152  1  0.78085591  0.52444498  0.39697055  1  0.439648  0  0.060844  0.521415  0  4.2442  0
N  N153  1  0.97453025  0.23191289  0.34728591  1  0.437685  0  0.060136  0.518927  0  4.246965  0
N  N154  1  0.15562127  0.66797836  0.53904776  1  0.417143  0  0.06053  0.522038  0  4.243484  0
N  N155  1  0.08274420  0.59326072  0.71095984  1  0.416692  0  0.060565  0.520722  0  4.244773  0
N  N156  1  0.71754518  0.20416772  0.08842242  1  0.449289  0  0.060338  0.521245  0  4.24594  0
N  N157  1  0.54465314  0.03370518  0.16168663  1  0.435795  0  0.060124  0.519351  0  4.246847  0
N  N158  1  0.22515295  0.96909069  0.85309078  1  0.421542  0  0.060811  0.522337  0  4.243125  0
N  N159  1  0.51967701  0.77390724  0.90273254  1  0.416275  0  0.060292  0.521403  0  4.245649  0
O  O160  1  0.00071937  0.49903301  0.49988579  1  -1.233149  0  -0.570631  -1.03382  0  2.524691  0
O  O161  1  0.07434167  0.31583780  0.52238772  1  -1.166785  0  -0.327067  -0.557119  0  2.328634  0
O  O162  1  0.02427040  0.53881855  0.58528515  1  -1.158836  0  -0.30373  -0.527338  0  2.325609  0
O  O163  1  0.15403236  0.50680209  0.44690915  1  -1.159426  0  -0.311884  -0.523919  0  2.333804  0
O  O164  1  0.03348815  0.37548824  0.58061251  1  -1.152107  0  -0.314083  -0.527072  0  2.334754  0
O  O165  1  0.15628676  0.38974566  0.44712846  1  -1.177148  0  -0.327432  -0.55766  0  2.329875  0
O  O166  1  0.09574636  0.57396552  0.53066191  1  -1.154429  0  -0.300565  -0.526709  0  2.356874  0
O  O167  1  0.00100762  0.65903991  0.45341955  1  -1.171576  0  -0.323469  -0.551356  0  2.335278  0
O  O168  1  0.88384197  0.48821661  0.44826523  1  -1.164123  0  -0.301931  -0.528762  0  2.361612  0
O  O169  1  0.89299943  0.64805746  0.44520807  1  -1.141973  0  -0.311882  -0.524418  0  2.332579  0
O  O170  1  0.00025527  0.38955416  0.43847479  1  -1.169185  0  -0.304955  -0.530121  0  2.314625  0
O  O171  1  0.87542635  0.52199478  0.58187610  1  -1.157175  0  -0.313609  -0.525823  0  2.331822  0
O  O172  1  0.81488977  0.57928047  0.52404852  1  -1.147984  0  -0.322313  -0.548744  0  2.33397  0
O  O173  1  0.74912394  0.25077202  0.25016551  1  -1.231854  0  -0.570057  -1.032863  0  2.520575  0
O  O174  1  0.59862225  0.35607058  0.30487988  1  -1.170188  0  -0.326794  -0.557409  0  2.327287  0
O  O175  1  0.67291815  0.15600032  0.21897363  1  -1.160001  0  -0.304957  -0.530147  0  2.318749  0
O  O176  1  0.72729357  0.37745213  0.16910364  1  -1.155511  0  -0.311587  -0.523349  0  2.331228  0
O  O177  1  0.59343026  0.24537807  0.29740051  1  -1.16559  0  -0.314472  -0.528573  0  2.330384  0
O  O178  1  0.66911866  0.43658104  0.22684955  1  -1.1699  0  -0.327761  -0.558268  0  2.3269  0
O  O179  1  0.70824863  0.22943290  0.16555608  1  -1.157116  0  -0.300731  -0.527516  0  2.359749  0
O  O180  1  0.87460427  0.21941229  0.16958234  1  -1.164766  0  -0.323492  -0.55086  0  2.334986  0
O  O181  1  0.85352782  0.25012852  0.31408868  1  -1.162495  0  -0.300867  -0.526377  0  2.36407  0
O  O182  1  0.93174970  0.18022576  0.22903567  1  -1.148357  0  -0.311499  -0.523341  0  2.339522  0
O  O183  1  0.75593174  0.36744811  0.30480268  1  -1.169734  0  -0.304674  -0.530307  0  2.313825  0
O  O184  1  0.74494275  0.09163859  0.30153155  1  -1.161106  0  -0.326409  -0.556559  0  2.329477  0
O  O185  1  0.86012902  0.09421794  0.30228348  1  -1.157119  0  -0.310993  -0.521811  0  2.333403  0
O  O186  1  0.25018137  0.75007720  0.75001483  1  -1.23078  0  -0.571025  -1.033415  0  2.525591  0
O  O187  1  0.37317558  0.71864487  0.66867876  1  -1.163972  0  -0.313875  -0.526453  0  2.332913  0
O  O188  1  0.36042740  0.75174442  0.81088304  1  -1.17185  0  -0.304378  -0.5294  0  2.322713  0
O  O189  1  0.16831034  0.93501386  0.72626983  1  -1.155005  0  -0.323413  -0.550685  0  2.33058  0
O  O190  1  0.43398341  0.67938962  0.72686565  1  -1.165683  0  -0.326488  -0.556056  0  2.333283  0
O  O191  1  0.22603038  0.87563489  0.66852758  1  -1.156869  0  -0.313336  -0.525365  0  2.334828  0
O  O192  1  0.25864112  0.86629506  0.80273940  1  -1.163525  0  -0.301249  -0.528641  0  2.362113  0
O  O193  1  0.09947712  0.85521298  0.80496907  1  -1.172173  0  -0.3247  -0.553761  0  2.334195  0
O  O194  1  0.17716893  0.65326227  0.71929734  1  -1.164095  0  -0.301146  -0.527803  0  2.356812  0
O  O195  1  0.09371705  0.74487737  0.79738340  1  -1.160609  0  -0.312038  -0.525219  0  2.333998  0
O  O196  1  0.20987675  0.72653828  0.66472769  1  -1.15832  0  -0.303546  -0.527289  0  2.326173  0
O  O197  1  0.36291245  0.59570163  0.80194763  1  -1.151007  0  -0.315206  -0.529271  0  2.326553  0
O  O198  1  0.24725987  0.59310738  0.80241479  1  -1.163221  0  -0.322496  -0.548972  0  2.335431  0
O  O199  1  0.49982384  0.00043606  0.99980619  1  -1.231333  0  -0.569692  -1.033198  0  2.520257  0
O  O200  1  0.50192695  0.15907741  0.95231400  1  -1.175319  0  -0.325636  -0.554983  0  2.332546  0
O  O201  1  0.38425187  0.99103896  0.94509882  1  -1.160429  0  -0.303201  -0.526791  0  2.323996  0
O  O202  1  0.65700552  0.89239541  0.94761288  1  -1.175454  0  -0.324097  -0.552251  0  2.332681  0
O  O203  1  0.39385709  0.14866484  0.94367301  1  -1.162888  0  -0.313497  -0.526207  0  2.330511  0
O  O204  1  0.65621444  0.00831889  0.94878472  1  -1.158851  0  -0.314469  -0.528347  0  2.32645  0
O  O205  1  0.50182760  0.89323390  0.93720088  1  -1.164156  0  -0.301207  -0.528317  0  2.355549  0
O  O206  1  0.57414716  0.81737063  0.02223800  1  -1.150787  0  -0.324557  -0.552365  0  2.330284  0
O  O207  1  0.51969760  0.04231438  0.08456241  1  -1.1602  0  -0.300708  -0.527402  0  2.35933  0
O  O208  1  0.52723591  0.87744965  0.08034199  1  -1.159971  0  -0.312445  -0.525222  0  2.334803  0
O  O209  1  0.59105414  0.08031866  0.03105072  1  -1.159945  0  -0.304382  -0.528789  0  2.321327  0
O  O210  1  0.31355041  0.07983582  0.02150214  1  -1.134946  0  -0.313762  -0.526632  0  2.332014  0
O  O211  1  0.37018470  0.02584743  0.08073469  1  -1.164927  0  -0.32244  -0.549912  0  2.333378  0
O  O212  1  0.80002640  0.57515051  0.37891180  1  -0.421167  0  -0.122881  -0.310053  0  1.866372  0
O  O213  1  0.72207766  0.53273750  0.42060310  1  -0.444942  0  -0.132077  -0.322814  0  1.848297  0
O  O214  1  0.00809108  0.23435170  0.31221415  1  -0.425671  0  -0.122568  -0.309245  0  1.864837  0
O  O215  1  0.98496394  0.17482250  0.37263340  1  -0.426984  0  -0.129237  -0.318251  0  1.850468  0
O  O216  1  0.10193689  0.72027858  0.52257716  1  -0.428461  0  -0.125397  -0.315057  0  1.865392  0
O  O217  1  0.22208615  0.63741663  0.52311918  1  -0.419649  0  -0.129285  -0.318598  0  1.848242  0
O  O218  1  0.03025191  0.64630866  0.72739600  1  -0.417907  0  -0.12314  -0.310088  0  1.865532  0
O  O219  1  0.11387343  0.52692897  0.72691186  1  -0.429543  0  -0.130926  -0.321821  0  1.848914  0
O  O220  1  0.78695026  0.16784051  0.08936911  1  -0.4469  0  -0.126032  -0.315948  0  1.867691  0
O  O221  1  0.68497109  0.26842077  0.07027001  1  -0.428339  0  -0.129054  -0.318001  0  1.849291  0
O  O222  1  0.58109046  0.96450452  0.16168620  1  -0.426651  0  -0.123342  -0.310253  0  1.865772  0
O  O223  1  0.47974034  0.06669760  0.17899722  1  -0.431241  0  -0.130611  -0.320495  0  1.850053  0
O  O224  1  0.17373420  0.95123587  0.87165028  1  -0.427604  0  -0.126074  -0.315391  0  1.863706  0
O  O225  1  0.21741312  0.02692859  0.82877296  1  -0.418156  0  -0.13068  -0.32104  0  1.849977  0
O  O226  1  0.51796396  0.73977838  0.93776702  1  -0.424945  0  -0.125322  -0.31444  0  1.86601  0
O  O227  1  0.57660638  0.76411779  0.87733670  1  -0.430284  0  -0.13078  -0.321358  0  1.850554  0
O  O228  1  0.28627493  0.52445854  0.40905565  1  -1.08331  0  -0.324891  -0.390644  0  2.273615  0
O  O229  1  0.46489718  0.22431107  0.33950244  1  -1.09806  0  -0.329318  -0.395081  0  2.269731  0
O  O230  1  0.77909594  0.54136977  0.65697750  1  -1.126478  0  -0.329429  -0.395663  0  2.268139  0
O  O231  1  0.46948629  0.70803476  0.59377981  1  -1.127078  0  -0.328774  -0.395889  0  2.26756  0
O  O232  1  0.04303730  0.27960887  0.65539497  1  -1.107731  0  -0.328231  -0.39415  0  2.269769  0
O  O233  1  0.20820267  0.97150816  0.59351758  1  -1.122197  0  -0.328995  -0.395943  0  2.269056  0
O  O234  1  0.78640682  0.77535021  0.40205802  1  -1.099608  0  -0.326195  -0.391809  0  2.276438  0
O  O235  1  0.96303916  0.97044335  0.34912587  1  -1.089845  0  -0.324901  -0.390053  0  2.27223  0
O  O236  1  0.70869666  0.47311852  0.09414824  1  -1.090244  0  -0.32536  -0.391473  0  2.272715  0
O  O237  1  0.53981202  0.78202878  0.15507545  1  -1.124343  0  -0.324831  -0.389773  0  2.277692  0
O  O238  1  0.09152715  0.10530192  0.21859877  1  -1.089335  0  -0.323833  -0.388592  0  2.275611  0
O  O239  1  0.15248400  0.14732276  0.03227409  1  -1.103933  0  -0.330241  -0.396662  0  2.266412  0
O  O240  1  0.46667974  0.47009443  0.84892584  1  -1.101693  0  -0.330489  -0.39805  0  2.267879  0
O  O241  1  0.28707113  0.27773019  0.90091839  1  -1.0827  0  -0.328076  -0.394738  0  2.267678  0
O  O242  1  0.96437541  0.72506821  0.83946448  1  -1.0884  0  -0.324978  -0.391128  0  2.27548  0
O  O243  1  0.78957718  0.02521527  0.90945408  1  -1.129886  0  -0.330556  -0.39725  0  2.267666  0
