# generated using pymatgen
data_HgH6C7SNClO2
_symmetry_space_group_name_H-M   'P 1'
_cell_length_a   7.49697661
_cell_length_b   8.48152291
_cell_length_c   8.49113541
_cell_angle_alpha   68.25162316
_cell_angle_beta   75.19662767
_cell_angle_gamma   71.51718085
_symmetry_Int_Tables_number   1
_chemical_formula_structural   HgH6C7SNClO2
_chemical_formula_sum   'Hg2 H12 C14 S2 N2 Cl2 O4'
_cell_volume   469.74162497
_cell_formula_units_Z   2
loop_
 _symmetry_equiv_pos_site_id
 _symmetry_equiv_pos_as_xyz
  1  'x, y, z'
loop_
 _atom_site_type_symbol
 _atom_site_label
 _atom_site_symmetry_multiplicity
 _atom_site_fract_x
 _atom_site_fract_y
 _atom_site_fract_z
 _atom_site_occupancy
 _atom_site_pbe_bader_spin_density
 _atom_site_pbe_cm5_charge
 _atom_site_pbe_ddec_charge
 _atom_site_pbe_ddec_spin_density
 _atom_site_pbe_ddec_sum_bond_order
 _atom_site_pbe_magmom
Hg  Hg0  1  0.06848053  0.22341373  0.02617840  1  0  0.584079  0.606388  0  2.503766  0
Hg  Hg1  1  0.93152098  0.77658334  0.97382304  1  0  0.584074  0.606377  0  2.503838  0
H  H2  1  0.68933900  0.87676239  0.30052001  1  0  0.102945  0.131562  0  1.044549  0
H  H3  1  0.31065938  0.12323598  0.69948518  1  0  0.102943  0.131554  0  1.044549  0
H  H4  1  0.41585857  0.91703815  0.16830592  1  0  0.110065  0.098731  0  1.016893  0
H  H5  1  0.58414017  0.08295892  0.83169849  1  0  0.110069  0.098726  0  1.016887  0
H  H6  1  0.21103528  0.43814629  0.15559604  1  0  0.107537  0.095097  0  1.051429  0
H  H7  1  0.78896694  0.56185342  0.84439957  1  0  0.107518  0.095068  0  1.051456  0
H  H8  1  0.47197567  0.42058165  0.29241900  1  0  0.11323  0.134765  0  1.01101  0
H  H9  1  0.52802377  0.57941806  0.70758076  1  0  0.113224  0.134765  0  1.011009  0
H  H10  1  0.62352642  0.32848247  0.52866330  1  0  0.105639  0.151243  0  1.021003  0
H  H11  1  0.37647231  0.67151984  0.47133803  1  0  0.105637  0.151227  0  1.021001  0
H  H12  1  0.87256607  0.28291699  0.52423255  1  0  0.102348  0.153407  0  0.985669  0
H  H13  1  0.12743268  0.71708533  0.47576641  1  0  0.102359  0.153409  0  0.985654  0
C  C14  1  0.58967606  0.00517132  0.26874616  1  0  -0.09648  -0.181383  0  3.965153  0
C  C15  1  0.41032475  0.99482836  0.73125566  1  0  -0.096475  -0.181393  0  3.96514  0
C  C16  1  0.43597347  0.02576631  0.19507997  1  0  0.036988  0.071968  0  3.964232  0
C  C17  1  0.56402770  0.97423208  0.80491989  1  0  0.03696  0.071966  0  3.964379  0
C  C18  1  0.32087993  0.31708578  0.18969775  1  0  0.044262  0.1001  0  3.89949  0
C  C19  1  0.67912092  0.68291394  0.81029816  1  0  0.04429  0.100142  0  3.89952  0
C  C20  1  0.46935761  0.30554691  0.26572927  1  0  -0.083299  -0.15689  0  3.905524  0
C  C21  1  0.53064252  0.69445542  0.73426820  1  0  -0.083344  -0.156958  0  3.905659  0
C  C22  1  0.60978990  0.14732610  0.30427709  1  0  0.011972  0.10436  0  4.01891  0
C  C23  1  0.39020919  0.85267492  0.69572228  1  0  0.011992  0.104406  0  4.018974  0
C  C24  1  0.76287396  0.31062561  0.44605649  1  0  -0.160689  -0.353933  0  3.870499  0
C  C25  1  0.23712443  0.68937802  0.55394325  1  0  -0.160668  -0.353856  0  3.87048  0
C  C26  1  0.77419180  0.48086356  0.29714410  1  0  0.189873  0.622196  0  4.209758  0
C  C27  1  0.22580867  0.51913745  0.70285495  1  0  0.189842  0.622131  0  4.209846  0
S  S28  1  0.81048028  0.11396502  0.39088618  1  0  0.038416  0.062157  0  2.919794  0
S  S29  1  0.18951881  0.88603599  0.60911437  1  0  0.038424  0.062152  0  2.919836  0
N  N30  1  0.30459631  0.18035566  0.15398271  1  0  -0.313855  -0.16707  0  3.613353  0
N  N31  1  0.69540451  0.81964404  0.84601675  1  0  -0.313842  -0.167079  0  3.613432  0
Cl  Cl32  1  0.85621796  0.21527916  0.86636988  1  0  -0.238085  -0.373245  0  1.339097  0
Cl  Cl33  1  0.14378459  0.78471922  0.13362968  1  0  -0.238075  -0.373244  0  1.339142  0
O  O34  1  0.88563965  0.47127458  0.15713731  1  0  -0.328159  -0.550274  0  2.352955  0
O  O35  1  0.11436565  0.52872378  0.84286401  1  0  -0.328148  -0.550267  0  2.353026  0
O  O36  1  0.67535075  0.62035125  0.32573517  1  0  -0.326788  -0.549172  0  2.14387  0
O  O37  1  0.32464836  0.37964978  0.67426182  1  0  -0.32678  -0.549132  0  2.143859  0
