# generated using pymatgen
data_CuH18C17IN6
_symmetry_space_group_name_H-M   'P 1'
_cell_length_a   9.30427108
_cell_length_b   10.26815656
_cell_length_c   10.36814484
_cell_angle_alpha   82.87615412
_cell_angle_beta   81.95860767
_cell_angle_gamma   63.91017408
_symmetry_Int_Tables_number   1
_chemical_formula_structural   CuH18C17IN6
_chemical_formula_sum   'Cu2 H36 C34 I2 N12'
_cell_volume   878.69231398
_cell_formula_units_Z   2
loop_
 _symmetry_equiv_pos_site_id
 _symmetry_equiv_pos_as_xyz
  1  'x, y, z'
loop_
 _atom_site_type_symbol
 _atom_site_label
 _atom_site_symmetry_multiplicity
 _atom_site_fract_x
 _atom_site_fract_y
 _atom_site_fract_z
 _atom_site_occupancy
 _atom_site_hle17_bader_spin_density
 _atom_site_hle17_ddec_charge
 _atom_site_hle17_ddec_spin_density
 _atom_site_hle17_ddec_sum_bond_order
 _atom_site_hle17_magmom
 _atom_site_hse06_10hf_bader_spin_density
 _atom_site_hse06_10hf_ddec_charge
 _atom_site_hse06_10hf_ddec_spin_density
 _atom_site_hse06_10hf_ddec_sum_bond_order
 _atom_site_hse06_10hf_magmom
 _atom_site_hse06_bader_spin_density
 _atom_site_hse06_ddec_charge
 _atom_site_hse06_ddec_spin_density
 _atom_site_hse06_ddec_sum_bond_order
 _atom_site_hse06_magmom
 _atom_site_pbe_bader_spin_density
 _atom_site_pbe_cm5_charge
 _atom_site_pbe_ddec_charge
 _atom_site_pbe_ddec_spin_density
 _atom_site_pbe_ddec_sum_bond_order
 _atom_site_pbe_magmom
Cu  Cu0  1  0.90971696  0.11137009  0.08825598  1  0  0.304205  0  2.087163  0  0  0.201102  0  2.586947  0  0  0.206147  0  2.535956  0  0  0.351501  0.203388  0  2.617873  0
Cu  Cu1  1  0.09028353  0.88862809  0.91174306  1  0  0.304135  0  2.087218  0  0  0.201068  0  2.587018  0  0  0.206146  0  2.536036  0  0  0.351491  0.20332  0  2.617956  0
H  H2  1  0.65131608  0.31202016  0.85978387  1  0  0.099867  0  0.99111  0  0  0.107707  0  1.058461  0  0  0.110695  0  1.057282  0  0  0.089581  0.106167  0  1.058173  0
H  H3  1  0.34867904  0.68798018  0.14021751  1  0  0.099867  0  0.991142  0  0  0.107708  0  1.058497  0  0  0.110695  0  1.05732  0  0  0.089585  0.106165  0  1.058219  0
H  H4  1  0.48648331  0.54082808  0.72823127  1  0  0.081836  0  0.971439  0  0  0.087411  0  1.044791  0  0  0.090531  0  1.042938  0  0  0.094304  0.084877  0  1.046434  0
H  H5  1  0.51351450  0.45917118  0.27176894  1  0  0.081812  0  0.971508  0  0  0.087372  0  1.044874  0  0  0.090489  0  1.043021  0  0  0.094301  0.084841  0  1.046505  0
H  H6  1  0.48014576  0.77516041  0.76280870  1  0  0.088667  0  0.972369  0  0  0.095336  0  1.038546  0  0  0.098335  0  1.036541  0  0  0.097812  0.093145  0  1.039579  0
H  H7  1  0.51985152  0.22483993  0.23719048  1  0  0.08869  0  0.972366  0  0  0.095351  0  1.038556  0  0  0.098351  0  1.036552  0  0  0.097815  0.093158  0  1.03959  0
H  H8  1  0.63788015  0.79745542  0.92776519  1  0  0.109  0  0.980963  0  0  0.117029  0  1.045472  0  0  0.120338  0  1.044432  0  0  0.090373  0.11255  0  1.051185  0
H  H9  1  0.36211878  0.20254603  0.07223364  1  0  0.108986  0  0.980943  0  0  0.11703  0  1.045439  0  0  0.120339  0  1.044398  0  0  0.090377  0.112547  0  1.051155  0
H  H10  1  0.88029468  0.71363565  0.06818287  1  0  0.08004  0  0.974091  0  0  0.089418  0  1.04854  0  0  0.090261  0  1.048714  0  0  0.100037  0.088826  0  1.049146  0
H  H11  1  0.11970473  0.28636253  0.93181630  1  0  0.080003  0  0.974114  0  0  0.089391  0  1.048555  0  0  0.090233  0  1.04873  0  0  0.100038  0.088802  0  1.049156  0
H  H12  1  0.95764765  0.58216244  0.20029050  1  0  0.080533  0  0.923706  0  0  0.096925  0  0.987095  0  0  0.09737  0  0.987643  0  0  0.114099  0.096109  0  0.988141  0
H  H13  1  0.04235501  0.41783576  0.79970729  1  0  0.080523  0  0.92365  0  0  0.096921  0  0.987033  0  0  0.097366  0  0.987582  0  0  0.114102  0.096104  0  0.988075  0
H  H14  1  0.72438726  0.82890877  0.25612017  1  0  0.07516  0  0.947518  0  0  0.093493  0  1.007815  0  0  0.093807  0  1.009592  0  0  0.089147  0.093515  0  1.005854  0
H  H15  1  0.27561432  0.17108941  0.74387969  1  0  0.075131  0  0.94751  0  0  0.093487  0  1.007801  0  0  0.093797  0  1.009584  0  0  0.089138  0.093511  0  1.005833  0
H  H16  1  0.59824482  0.78070558  0.18129570  1  0  0.07128  0  0.944567  0  0  0.08783  0  1.009273  0  0  0.088815  0  1.009735  0  0  0.085833  0.086337  0  1.010818  0
H  H17  1  0.40175675  0.21929261  0.81870417  1  0  0.071275  0  0.944536  0  0  0.087846  0  1.00924  0  0  0.088828  0  1.009707  0  0  0.08583  0.086349  0  1.010801  0
H  H18  1  0.79691443  0.60506865  0.40868043  1  0  0.059548  0  0.95426  0  0  0.080394  0  1.015522  0  0  0.080087  0  1.017524  0  0  0.087392  0.080598  0  1.014146  0
H  H19  1  0.20308554  0.39493062  0.59131950  1  0  0.059543  0  0.954226  0  0  0.080395  0  1.015477  0  0  0.080089  0  1.017478  0  0  0.08739  0.080602  0  1.014097  0
H  H20  1  0.66139574  0.55921324  0.34399043  1  0  0.063058  0  0.935098  0  0  0.082744  0  0.994565  0  0  0.083072  0  0.995052  0  0  0.088206  0.082352  0  0.99448  0
H  H21  1  0.33860423  0.44078603  0.65601046  1  0  0.063065  0  0.935112  0  0  0.082746  0  0.994578  0  0  0.083078  0  0.995062  0  0  0.088219  0.082359  0  0.994494  0
H  H22  1  0.56239942  0.68895136  0.55727405  1  0  0.067494  0  0.969431  0  0  0.083792  0  1.03646  0  0  0.084067  0  1.037421  0  0  0.091719  0.083744  0  1.03536  0
H  H23  1  0.43760003  0.31104900  0.44272485  1  0  0.067495  0  0.969437  0  0  0.083782  0  1.036489  0  0  0.084058  0  1.03745  0  0  0.091717  0.083734  0  1.035388  0
H  H24  1  0.56639041  0.84579929  0.46930867  1  0  0.069293  0  0.926983  0  0  0.087907  0  0.985807  0  0  0.089026  0  0.986094  0  0  0.089853  0.086312  0  0.986847  0
H  H25  1  0.43361012  0.15420107  0.53068913  1  0  0.06932  0  0.926959  0  0  0.087926  0  0.98579  0  0  0.089044  0  0.986077  0  0  0.089853  0.086331  0  0.986829  0
H  H26  1  0.35665411  0.85351286  0.33005460  1  0  0.078776  0  0.941517  0  0  0.093331  0  1.008835  0  0  0.094921  0  1.007743  0  0  0.105995  0.093271  0  1.007805  0
H  H27  1  0.64334429  0.14648967  0.66994416  1  0  0.078792  0  0.941492  0  0  0.093354  0  1.008821  0  0  0.094943  0  1.007727  0  0  0.106021  0.093294  0  1.007785  0
H  H28  1  0.35911124  0.69440909  0.42025144  1  0  0.077013  0  0.919044  0  0  0.094877  0  0.979181  0  0  0.095059  0  0.979994  0  0  0.111406  0.094177  0  0.979574  0
H  H29  1  0.64088768  0.30559235  0.57974642  1  0  0.076983  0  0.919069  0  0  0.094859  0  0.979209  0  0  0.095037  0  0.980026  0  0  0.111401  0.094159  0  0.979602  0
H  H30  1  0.18698912  0.11465215  0.31326410  1  0  0.109245  0  0.973864  0  0  0.115317  0  1.043211  0  0  0.119069  0  1.041242  0  0  0.096613  0.114193  0  1.041961  0
H  H31  1  0.81301197  0.88534931  0.68673735  1  0  0.109229  0  0.973941  0  0  0.115298  0  1.043285  0  0  0.11905  0  1.041317  0  0  0.096601  0.114174  0  1.042038  0
H  H32  1  0.99433576  0.36284081  0.36916838  1  0  0.086113  0  0.972874  0  0  0.090018  0  1.048395  0  0  0.093233  0  1.046023  0  0  0.097762  0.087525  0  1.050608  0
H  H33  1  0.00566806  0.63716175  0.63083548  1  0  0.086134  0  0.972863  0  0  0.090056  0  1.048373  0  0  0.093271  0  1.046  0  0  0.09778  0.087564  0  1.050589  0
H  H34  1  0.86774828  0.41668843  0.59602814  1  0  0.086182  0  0.958788  0  0  0.098501  0  1.018558  0  0  0.100886  0  1.018639  0  0  0.096981  0.096766  0  1.018717  0
H  H35  1  0.13225225  0.58331193  0.40397448  1  0  0.086218  0  0.958749  0  0  0.098536  0  1.018518  0  0  0.100921  0  1.018599  0  0  0.097001  0.096802  0  1.018674  0
H  H36  1  0.92844146  0.21703901  0.77527034  1  0  0.102822  0  0.981308  0  0  0.107773  0  1.055017  0  0  0.111477  0  1.051766  0  0  0.099176  0.10477  0  1.057635  0
H  H37  1  0.07156012  0.78295918  0.22473241  1  0  0.102803  0  0.981337  0  0  0.107789  0  1.054995  0  0  0.111492  0  1.051743  0  0  0.099174  0.104788  0  1.057612  0
C  C38  1  0.73799050  0.42861773  0.96579922  1  0  0.102924  0  3.814915  0  0  0.105053  0  4.057806  0  0  0.104162  0  4.08139  0  0  0.088673  0.10478  0  4.045357  0
C  C39  1  0.26200839  0.57138153  0.03419796  1  0  0.102957  0  3.814829  0  0  0.105025  0  4.057858  0  0  0.104138  0  4.081445  0  0  0.088656  0.104765  0  4.045377  0
C  C40  1  0.65049694  0.41633382  0.87165427  1  0  -0.123384  0  3.735831  0  0  -0.136958  0  3.975264  0  0  -0.138735  0  3.996959  0  0  -0.09078  -0.135844  0  3.960173  0
C  C41  1  0.34950146  0.58366871  0.12834545  1  0  -0.123369  0  3.735785  0  0  -0.136925  0  3.975245  0  0  -0.1387  0  3.996939  0  0  -0.09076  -0.135817  0  3.960163  0
C  C42  1  0.56066683  0.54307674  0.79978155  1  0  -0.081947  0  3.777257  0  0  -0.101124  0  4.038512  0  0  -0.104448  0  4.061053  0  0  -0.098949  -0.098341  0  4.023118  0
C  C43  1  0.43933261  0.45692362  0.20021639  1  0  -0.081905  0  3.777316  0  0  -0.101061  0  4.038557  0  0  -0.104381  0  4.061092  0  0  -0.098955  -0.098275  0  4.023158  0
C  C44  1  0.55651172  0.67877352  0.81934188  1  0  -0.055029  0  3.76913  0  0  -0.073346  0  4.026718  0  0  -0.073606  0  4.046939  0  0  -0.092302  -0.07274  0  4.011919  0
C  C45  1  0.44348664  0.32122683  0.18065620  1  0  -0.055122  0  3.769305  0  0  -0.073438  0  4.026876  0  0  -0.0737  0  4.047093  0  0  -0.092326  -0.072831  0  4.01207  0
C  C46  1  0.64189025  0.69302649  0.91154719  1  0  -0.135662  0  3.746716  0  0  -0.150555  0  3.99393  0  0  -0.154038  0  4.013177  0  0  -0.094681  -0.148018  0  3.982828  0
C  C47  1  0.35811080  0.30697279  0.08845261  1  0  -0.135567  0  3.746801  0  0  -0.150443  0  3.994019  0  0  -0.153923  0  4.013266  0  0  -0.094642  -0.147905  0  3.982906  0
C  C48  1  0.73160077  0.56503319  0.98439303  1  0  0.092482  0  3.802973  0  0  0.078323  0  4.045992  0  0  0.082013  0  4.068813  0  0  0.101934  0.066413  0  4.028847  0
C  C49  1  0.26840024  0.43496390  0.01560703  1  0  0.092412  0  3.80279  0  0  0.078172  0  4.045945  0  0  0.081859  0  4.068766  0  0  0.101885  0.066306  0  4.028794  0
C  C50  1  0.85184424  0.64327667  0.14598915  1  0  -0.020567  0  3.637964  0  0  -0.084051  0  3.89599  0  0  -0.080805  0  3.907925  0  0  -0.055893  -0.094618  0  3.885207  0
C  C51  1  0.14815733  0.35672152  0.85401071  1  0  -0.02052  0  3.637964  0  0  -0.084025  0  3.895996  0  0  -0.080778  0  3.90793  0  0  -0.055866  -0.094556  0  3.885226  0
C  C52  1  0.70588994  0.73523427  0.23518669  1  0  -0.132782  0  3.687618  0  0  -0.170467  0  3.940955  0  0  -0.172466  0  3.955221  0  0  -0.168175  -0.16922  0  3.932699  0
C  C53  1  0.29411164  0.26476391  0.76481318  1  0  -0.132736  0  3.687494  0  0  -0.170501  0  3.940925  0  0  -0.172498  0  3.955194  0  0  -0.168177  -0.16925  0  3.932665  0
C  C54  1  0.68323363  0.65211926  0.36284973  1  0  -0.099566  0  3.689458  0  0  -0.137315  0  3.944573  0  0  -0.137993  0  3.959858  0  0  -0.167795  -0.136336  0  3.933216  0
C  C55  1  0.31676634  0.34788001  0.63715116  1  0  -0.099592  0  3.68942  0  0  -0.137304  0  3.944527  0  0  -0.137984  0  3.959806  0  0  -0.1678  -0.136327  0  3.933171  0
C  C56  1  0.55074321  0.74704368  0.46020231  1  0  -0.126993  0  3.68673  0  0  -0.167455  0  3.946576  0  0  -0.168845  0  3.960144  0  0  -0.164638  -0.166191  0  3.937013  0
C  C57  1  0.44925623  0.25295668  0.53979659  1  0  -0.127043  0  3.686773  0  0  -0.167496  0  3.946612  0  0  -0.168885  0  3.960177  0  0  -0.164644  -0.166236  0  3.937053  0
C  C58  1  0.38054437  0.79074310  0.42485717  1  0  -0.005138  0  3.62205  0  0  -0.069683  0  3.88327  0  0  -0.065791  0  3.893847  0  0  -0.048498  -0.072457  0  3.876026  0
C  C59  1  0.61945456  0.20925835  0.57514166  1  0  -0.005072  0  3.621999  0  0  -0.069652  0  3.883266  0  0  -0.065757  0  3.893839  0  0  -0.048505  -0.072432  0  3.876021  0
C  C60  1  0.16713822  0.02739936  0.51539710  1  0  0.087662  0  3.803947  0  0  0.072741  0  4.050524  0  0  0.077307  0  4.073071  0  0  0.102343  0.06993  0  4.035827  0
C  C61  1  0.83286340  0.97260101  0.48460345  1  0  0.087635  0  3.803845  0  0  0.072686  0  4.050482  0  0  0.077255  0  4.073029  0  0  0.102314  0.069883  0  4.035773  0
C  C62  1  0.13511144  0.13701616  0.41359566  1  0  -0.130743  0  3.729437  0  0  -0.148362  0  3.981463  0  0  -0.152357  0  4.00146  0  0  -0.09151  -0.146371  0  3.9679  0
C  C63  1  0.86489017  0.86298421  0.58640682  1  0  -0.130699  0  3.72938  0  0  -0.148305  0  3.981433  0  0  -0.152302  0  4.001426  0  0  -0.09146  -0.146313  0  3.967871  0
C  C64  1  0.02642643  0.27581526  0.44654901  1  0  -0.049707  0  3.751434  0  0  -0.069487  0  4.012341  0  0  -0.069883  0  4.033159  0  0  -0.088117  -0.069715  0  3.999538  0
C  C65  1  0.97357627  0.72418511  0.55345236  1  0  -0.049766  0  3.751468  0  0  -0.069561  0  4.012365  0  0  -0.069959  0  4.033189  0  0  -0.088158  -0.069796  0  3.999575  0
C  C66  1  0.95292852  0.30571662  0.57544967  1  0  -0.088392  0  3.771259  0  0  -0.105143  0  4.027359  0  0  -0.108348  0  4.049319  0  0  -0.097757  -0.10302  0  4.012832  0
C  C67  1  0.04707309  0.69428375  0.42455281  1  0  -0.088411  0  3.771296  0  0  -0.105168  0  4.027424  0  0  -0.108377  0  4.049386  0  0  -0.09778  -0.103044  0  4.012894  0
C  C68  1  0.98441220  0.19689622  0.67585080  1  0  -0.11435  0  3.729581  0  0  -0.132029  0  3.979664  0  0  -0.132265  0  3.99876  0  0  -0.085415  -0.131749  0  3.967125  0
C  C69  1  0.01558885  0.80310305  0.32415188  1  0  -0.114332  0  3.729549  0  0  -0.132013  0  3.979632  0  0  -0.132248  0  3.998728  0  0  -0.085387  -0.131732  0  3.967099  0
C  C70  1  0.09285951  0.05597930  0.64382886  1  0  0.101465  0  3.829367  0  0  0.098679  0  4.080196  0  0  0.097791  0  4.102542  0  0  0.086487  0.099369  0  4.064836  0
C  C71  1  0.90714315  0.94401889  0.35617183  1  0  0.101622  0  3.829218  0  0  0.098796  0  4.080099  0  0  0.097901  0  4.102443  0  0  0.086524  0.099479  0  4.064753  0
I  I72  1  0.76885501  0.01042663  0.95053891  1  0  -0.475467  0  1.415922  0  0  -0.428159  0  1.833075  0  0  -0.441344  0  1.795498  0  0  -0.219429  -0.417539  0  1.865324  0
I  I73  1  0.23114496  0.98957264  0.04946005  1  0  -0.47545  0  1.415918  0  0  -0.42815  0  1.833083  0  0  -0.441339  0  1.795509  0  0  -0.219412  -0.417528  0  1.865331  0
N  N74  1  0.83626965  0.32798837  0.05434603  1  0  -0.206538  0  3.262794  0  0  -0.161805  0  3.593635  0  0  -0.165584  0  3.59432  0  0  -0.241927  -0.161853  0  3.597181  0
N  N75  1  0.16372924  0.67201089  0.94565211  1  0  -0.206509  0  3.262883  0  0  -0.161765  0  3.59377  0  0  -0.165557  0  3.594484  0  0  -0.24187  -0.161809  0  3.597295  0
N  N76  1  0.88681774  0.39506668  0.12516613  1  0  -0.071276  0  2.825353  0  0  -0.079596  0  3.113986  0  0  -0.071525  0  3.120634  0  0  -0.081919  -0.094755  0  3.106458  0
N  N77  1  0.11317794  0.60493474  0.87483214  1  0  -0.07136  0  2.825315  0  0  -0.0797  0  3.113942  0  0  -0.071626  0  3.120592  0  0  -0.081964  -0.094816  0  3.106437  0
N  N78  1  0.82517490  0.53743735  0.08382623  1  0  0.005446  0  3.528487  0  0  0.087407  0  3.758654  0  0  0.075778  0  3.783439  0  0  -0.131976  0.122364  0  3.708823  0
N  N79  1  0.17482507  0.46256192  0.91617177  1  0  0.005529  0  3.528356  0  0  0.087594  0  3.758435  0  0  0.075965  0  3.783222  0  0  -0.131966  0.122424  0  3.708746  0
N  N80  1  0.26148572  0.88060760  0.52254855  1  0  -0.00521  0  3.520505  0  0  0.078881  0  3.748275  0  0  0.066475  0  3.773723  0  0  -0.129388  0.087045  0  3.731049  0
N  N81  1  0.73851429  0.11939385  0.47745111  1  0  -0.005254  0  3.520461  0  0  0.078859  0  3.748246  0  0  0.066456  0  3.773689  0  0  -0.129407  0.087031  0  3.731003  0
N  N82  1  0.24839255  0.82194771  0.64546973  1  0  -0.060062  0  2.839934  0  0  -0.063631  0  3.124423  0  0  -0.056671  0  3.132537  0  0  -0.07344  -0.067632  0  3.118754  0
N  N83  1  0.75160851  0.17805157  0.35452910  1  0  -0.059985  0  2.839963  0  0  -0.063547  0  3.124419  0  0  -0.05659  0  3.132527  0  0  -0.073404  -0.067548  0  3.118744  0
N  N84  1  0.14739140  0.92600205  0.71923631  1  0  -0.197262  0  3.264598  0  0  -0.152804  0  3.592564  0  0  -0.156008  0  3.593953  0  0  -0.234644  -0.152093  0  3.590584  0
N  N85  1  0.85261074  0.07399723  0.28076334  1  0  -0.197499  0  3.264736  0  0  -0.153015  0  3.592713  0  0  -0.156204  0  3.594067  0  0  -0.234724  -0.152312  0  3.590746  0
