# generated using pymatgen
data_KVH15C12(SO4)2
_symmetry_space_group_name_H-M   'P 1'
_cell_length_a   9.31229938
_cell_length_b   10.68155777
_cell_length_c   10.76876503
_cell_angle_alpha   117.26261073
_cell_angle_beta   94.93603139
_cell_angle_gamma   110.37911626
_symmetry_Int_Tables_number   1
_chemical_formula_structural   KVH15C12(SO4)2
_chemical_formula_sum   'K2 V2 H30 C24 S4 O16'
_cell_volume   852.94415212
_cell_formula_units_Z   2
loop_
 _symmetry_equiv_pos_site_id
 _symmetry_equiv_pos_as_xyz
  1  'x, y, z'
loop_
 _atom_site_type_symbol
 _atom_site_label
 _atom_site_symmetry_multiplicity
 _atom_site_fract_x
 _atom_site_fract_y
 _atom_site_fract_z
 _atom_site_occupancy
 _atom_site_hle17_ddec_charge
 _atom_site_hle17_ddec_spin_density
 _atom_site_hle17_ddec_sum_bond_order
 _atom_site_hle17_magmom
 _atom_site_hse06_10hf_ddec_charge
 _atom_site_hse06_10hf_ddec_spin_density
 _atom_site_hse06_10hf_ddec_sum_bond_order
 _atom_site_hse06_10hf_magmom
 _atom_site_hse06_ddec_charge
 _atom_site_hse06_ddec_spin_density
 _atom_site_hse06_ddec_sum_bond_order
 _atom_site_hse06_magmom
 _atom_site_pbe_cm5_charge
 _atom_site_pbe_ddec_charge
 _atom_site_pbe_ddec_spin_density
 _atom_site_pbe_ddec_sum_bond_order
 _atom_site_pbe_magmom
K  K0  1  0.24197816  0.49761238  0.45285082  1  0.93909  0.000158  0.458787  0.0  0.895219  0.000937  0.641028  0.0  0.91067  0.000612  0.617062  0.0  0.780082  0.883382  0.001279  0.658434  0.0
K  K1  1  0.75809059  0.50238672  0.54715466  1  0.939063  -0.000193  0.458765  0.0  0.895215  -0.000948  0.640954  0.0  0.910675  -0.000618  0.616944  0.0  0.780022  0.883377  -0.001278  0.658362  0.0
V  V2  1  0.98880809  0.05722503  0.16058913  1  1.774596  1.254163  2.574872  1.199  1.787144  1.049232  2.991773  1.008  1.88655  1.089564  2.936067  1.048  1.329369  1.710801  1.015668  3.045942  0.974
V  V3  1  0.01120656  0.94280942  0.83941159  1  1.774651  -1.2542  2.574507  -1.199  1.787078  -1.049265  2.991653  -1.008  1.886625  -1.089602  2.935673  -1.048  1.329297  1.71065  -1.015712  3.045919  -0.974
H  H4  1  0.56945396  0.11561329  0.34894168  1  0.104039  -1.7e-05  0.967816  0.0  0.10967  -3.2e-05  1.036267  0.0  0.114008  -2.7e-05  1.032784  0.0  0.10765  0.106538  -3.8e-05  1.03877  0.0
H  H5  1  0.43053949  0.88437417  0.65105728  1  0.104058  1.7e-05  0.967878  0.0  0.109666  3.2e-05  1.03634  0.0  0.11401  2.7e-05  1.032849  0.0  0.107639  0.106531  3.8e-05  1.038844  0.0
H  H6  1  0.61948935  0.89996260  0.15927270  1  0.095838  -0.000411  0.994062  0.0  0.103345  -0.000374  1.06372  0.0  0.107427  -0.000366  1.061632  0.0  0.095958  0.100368  -0.000354  1.065657  0.0
H  H7  1  0.38049838  0.10000020  0.84072291  1  0.095704  0.000409  0.994116  0.0  0.103314  0.000374  1.063683  0.0  0.107398  0.000366  1.061589  0.0  0.095973  0.100339  0.000353  1.065619  0.0
H  H8  1  0.42877531  0.72598977  0.90752662  1  0.091811  2e-06  0.959021  0.0  0.097287  3.7e-05  1.029479  0.0  0.101031  2.8e-05  1.025957  0.0  0.103568  0.094686  4.5e-05  1.031656  0.0
H  H9  1  0.57119083  0.27398012  0.09246683  1  0.091843  -2e-06  0.958943  0.0  0.097332  -3.7e-05  1.029355  0.0  0.101082  -2.8e-05  1.025833  0.0  0.10358  0.09473  -4.5e-05  1.031532  0.0
H  H10  1  0.24616785  0.01645934  0.60549268  1  0.153703  0.000431  0.946449  0.0  0.175467  0.000418  0.998823  0.0  0.178013  0.000391  0.997967  0.0  0.105788  0.173643  0.000424  0.999585  0.0
H  H11  1  0.75383406  0.98355164  0.39450376  1  0.153714  -0.000429  0.946433  0.0  0.175493  -0.000418  0.998796  0.0  0.178042  -0.000392  0.99793  0.0  0.105764  0.17367  -0.000424  0.999557  0.0
H  H12  1  0.20246056  0.06947423  0.47477341  1  0.151538  -0.000232  0.957904  0.0  0.172326  -0.000221  1.011405  0.0  0.174225  -0.000216  1.011785  0.0  0.106954  0.170956  -0.00022  1.011135  0.0
H  H13  1  0.79754808  0.93051803  0.52520664  1  0.15158  0.000232  0.95801  0.0  0.17235  0.000222  1.01152  0.0  0.174243  0.000216  1.011899  0.0  0.106978  0.17098  0.00022  1.01125  0.0
H  H14  1  0.38882118  0.06023280  0.51000447  1  0.149007  -4e-06  0.937668  0.0  0.167893  -8e-06  0.994438  0.0  0.169549  -7e-06  0.994786  0.0  0.105758  0.16661  -9e-06  0.99434  0.0
H  H15  1  0.61118308  0.93975468  0.48998977  1  0.148999  5e-06  0.93774  0.0  0.167965  8e-06  0.994405  0.0  0.169623  7e-06  0.994747  0.0  0.105789  0.166682  9e-06  0.994309  0.0
H  H16  1  0.98514606  0.79828991  0.49807313  1  0.152644  -0.000142  0.952783  0.0  0.167054  -0.000265  1.016546  0.0  0.170178  -0.000169  1.014555  0.0  0.110333  0.164691  -0.000368  1.01817  0.0
H  H17  1  0.01486184  0.20170100  0.50193596  1  0.152757  0.000141  0.952642  0.0  0.167139  0.000265  1.016435  0.0  0.170268  0.000168  1.014437  0.0  0.110352  0.164775  0.000368  1.018059  0.0
H  H18  1  0.91013762  0.62864745  0.31623649  1  0.157574  -3e-06  0.969033  0.0  0.174204  -3.3e-05  1.028245  0.0  0.177063  -1.8e-05  1.026752  0.0  0.10792  0.172028  -4.8e-05  1.029479  0.0
H  H19  1  0.08985896  0.37134701  0.68377055  1  0.15766  4e-06  0.968905  0.0  0.174216  3.2e-05  1.028183  0.0  0.177082  1.8e-05  1.026687  0.0  0.107933  0.17204  4.8e-05  1.029416  0.0
H  H20  1  0.91852826  0.81087741  0.34221967  1  0.149425  -0.00053  0.951795  0.0  0.172115  -0.000509  1.005526  0.0  0.174154  -0.000492  1.005294  0.0  0.10215  0.17061  -0.000516  1.005834  0.0
H  H21  1  0.08148108  0.18912872  0.65779834  1  0.149367  0.00053  0.951832  0.0  0.172088  0.000509  1.005483  0.0  0.174127  0.000492  1.005255  0.0  0.102149  0.170583  0.000516  1.005792  0.0
H  H22  1  0.54670254  0.66460065  0.16491711  1  0.122336  -8.6e-05  0.994179  0.0  0.135248  -0.000103  1.068594  0.0  0.136649  -9.5e-05  1.069567  0.0  0.090867  0.13403  -0.000109  1.068315  0.0
H  H23  1  0.45329352  0.33540212  0.83507790  1  0.122345  8.6e-05  0.994159  0.0  0.135241  0.000104  1.068599  0.0  0.136647  9.5e-05  1.069569  0.0  0.090875  0.134029  0.000109  1.068314  0.0
H  H24  1  0.43303969  0.67139592  0.29496014  1  0.15568  2.8e-05  0.972128  0.0  0.169855  2.3e-05  1.033567  0.0  0.173086  2.2e-05  1.032421  0.0  0.103326  0.167446  2.3e-05  1.034602  0.0
H  H25  1  0.56695585  0.32860805  0.70503074  1  0.155696  -2.7e-05  0.972054  0.0  0.169933  -2.3e-05  1.033421  0.0  0.173164  -2.2e-05  1.032276  0.0  0.103386  0.167516  -2.3e-05  1.034463  0.0
H  H26  1  0.57962622  0.59563807  0.28424442  1  0.151105  -3.1e-05  0.926161  0.0  0.173431  -5.3e-05  0.975244  0.0  0.176219  -3.5e-05  0.973593  0.0  0.111245  0.171349  -7.3e-05  0.976568  0.0
H  H27  1  0.42036284  0.40436353  0.71575044  1  0.151112  3e-05  0.926158  0.0  0.173417  5.3e-05  0.975264  0.0  0.176202  3.4e-05  0.973614  0.0  0.111225  0.171336  7.3e-05  0.976585  0.0
H  H28  1  0.17173871  0.54066051  0.11418849  1  0.14184  -1e-05  0.961115  0.0  0.156768  -4e-06  1.024661  0.0  0.15943  -6e-06  1.023395  0.0  0.1017  0.15487  -1e-06  1.025589  0.0
H  H29  1  0.82826024  0.45936088  0.88583476  1  0.141835  8e-06  0.961352  0.0  0.156876  4e-06  1.024763  0.0  0.159538  6e-06  1.023495  0.0  0.101707  0.154973  1e-06  1.0257  0.0
H  H30  1  0.25643195  0.52613931  0.96626982  1  0.139815  -6e-06  0.950376  0.0  0.160851  -2e-06  1.007266  0.0  0.162093  -3e-06  1.008096  0.0  0.10058  0.160022  0.0  1.006537  0.0
H  H31  1  0.74354776  0.47387277  0.03374118  1  0.139947  7e-06  0.950312  0.0  0.160997  1e-06  1.007159  0.0  0.162232  4e-06  1.008012  0.0  0.100624  0.160168  -0.0  1.006432  0.0
H  H32  1  0.09653903  0.35497671  0.94332867  1  0.143664  0.00022  0.948386  0.0  0.159382  0.000221  1.01094  0.0  0.161683  0.000204  1.010323  0.0  0.100395  0.15767  0.00022  1.011573  0.0
H  H33  1  0.90343468  0.64504123  0.05668640  1  0.143683  -0.000223  0.948386  0.0  0.159373  -0.000221  1.010988  0.0  0.161675  -0.000204  1.010369  0.0  0.1004  0.157664  -0.00022  1.011615  0.0
C  C34  1  0.24307849  0.95574315  0.06327072  1  0.351795  0.000417  3.788986  0.001  0.334706  0.00047  4.050074  0.001  0.353205  0.000384  4.06379  0.001  0.095074  0.32207  0.000606  4.03995  0.001
C  C35  1  0.75691708  0.04424902  0.93672777  1  0.351613  -0.000434  3.789065  -0.001  0.334512  -0.000468  4.050168  -0.001  0.353014  -0.000383  4.06389  -0.001  0.094947  0.321879  -0.000606  4.040041  -0.001
C  C36  1  0.35039920  0.05661412  0.20619814  1  -0.20381  0.001993  3.736223  0.001  -0.188615  0.001757  3.976697  0.001  -0.202183  0.001461  3.997754  0.001  -0.029129  -0.179905  0.002099  3.962703  0.001
C  C37  1  0.64959325  0.94336631  0.79379753  1  -0.203871  -0.001957  3.736428  -0.001  -0.188614  -0.001759  3.976845  -0.001  -0.202185  -0.001454  3.997911  -0.001  -0.029007  -0.179904  -0.002096  3.962848  -0.001
C  C38  1  0.48556468  0.03488761  0.23892422  1  -0.030119  0.000842  3.719583  0.001  -0.056588  0.000522  3.972056  0.001  -0.052427  0.000501  3.99024  0.0  -0.074557  -0.058938  0.000514  3.959842  0.001
C  C39  1  0.51443153  0.96509637  0.76106779  1  -0.029909  -0.000881  3.719635  -0.001  -0.056422  -0.000522  3.972228  -0.001  -0.052253  -0.000507  3.990389  -0.001  -0.074479  -0.058779  -0.000515  3.960033  -0.001
C  C40  1  0.51291997  0.91468959  0.13377423  1  -0.108957  -0.000692  3.777  -0.001  -0.125097  -0.000442  4.037576  0.0  -0.132467  -0.000414  4.060339  0.0  -0.104061  -0.120744  -0.000485  4.022775  0.0
C  C41  1  0.48707409  0.08529439  0.86621761  1  -0.108948  0.000731  3.77707  0.001  -0.12519  0.000446  4.037644  0.0  -0.132561  0.000421  4.060412  0.0  -0.104177  -0.12084  0.000487  4.022844  0.0
C  C42  1  0.40698543  0.81727047  0.99304844  1  -0.02592  -0.000167  3.752347  0.0  -0.051679  -0.000198  4.006179  0.0  -0.047304  -0.000171  4.025684  0.0  -0.075313  -0.054032  -0.000173  3.992543  0.0
C  C43  1  0.59300644  0.18272057  0.00694275  1  -0.025936  0.000135  3.752295  0.0  -0.051644  0.000196  4.006108  0.0  -0.047275  0.00017  4.025622  0.0  -0.07526  -0.053998  0.000173  3.992474  0.0
C  C44  1  0.27188403  0.83633982  0.95444793  1  -0.204888  -0.00277  3.733035  -0.002  -0.186511  -0.002317  3.964252  -0.002  -0.200868  -0.001992  3.986404  -0.001  -0.030213  -0.17732  -0.002693  3.949693  -0.002
C  C45  1  0.72811528  0.16366059  0.04554719  1  -0.204829  0.002796  3.732833  0.002  -0.186483  0.002317  3.964094  0.002  -0.200848  0.001995  3.98625  0.001  -0.030235  -0.177294  0.002697  3.949534  0.002
C  C46  1  0.32928049  0.18861512  0.32452168  1  0.693687  0.003642  3.866629  0.004  0.651773  0.003345  4.161197  0.004  0.688857  0.002634  4.149208  0.003  0.213178  0.626195  0.004097  4.1686  0.004
C  C47  1  0.67072848  0.81138998  0.67547447  1  0.693475  -0.003647  3.866726  -0.004  0.651537  -0.003345  4.16131  -0.004  0.688622  -0.002631  4.149339  -0.003  0.213076  0.625956  -0.004097  4.168709  -0.004
C  C48  1  0.16879420  0.73089842  0.79863613  1  0.701456  -0.003074  3.843263  -0.004  0.662827  -0.002721  4.131971  -0.003  0.700215  -0.002177  4.119618  -0.003  0.222773  0.637302  -0.003223  4.139481  -0.004
C  C49  1  0.83120068  0.26910662  0.20137098  1  0.701345  0.003071  3.843327  0.004  0.662681  0.002724  4.132114  0.003  0.700069  0.002181  4.119753  0.003  0.222658  0.637162  0.003224  4.139621  0.004
C  C50  1  0.26172548  0.00964233  0.50310460  1  -0.430654  0.00018  3.552261  0.0  -0.497982  0.000142  3.787054  0.0  -0.502136  0.000135  3.792835  0.0  -0.234748  -0.49483  0.000149  3.783034  0.0
C  C51  1  0.73827762  0.99035690  0.49688935  1  -0.430779  -0.000192  3.552545  0.0  -0.498187  -0.000141  3.787331  0.0  -0.502332  -0.000132  3.793107  0.0  -0.234803  -0.495034  -0.000149  3.783311  0.0
C  C52  1  0.97564841  0.75681689  0.38245691  1  -0.443964  -0.000236  3.558271  0.0  -0.511895  -0.000272  3.795493  0.0  -0.51565  -0.000235  3.799135  0.0  -0.234169  -0.509145  -0.000305  3.793384  0.0
C  C53  1  0.02435515  0.24317637  0.61755384  1  -0.444124  0.000234  3.558107  0.0  -0.511945  0.000272  3.79525  0.0  -0.515714  0.000237  3.798899  0.0  -0.234187  -0.509194  0.000305  3.79314  0.0
C  C54  1  0.49061844  0.60737794  0.22222815  1  -0.445271  0.000114  3.581897  0.0  -0.512997  3.2e-05  3.823777  0.0  -0.517499  5.4e-05  3.828517  0.0  -0.240424  -0.509664  5e-06  3.821042  0.0
C  C55  1  0.50937493  0.39262602  0.77776441  1  -0.445308  -0.000111  3.581975  0.0  -0.513048  -3.1e-05  3.823822  0.0  -0.517551  -5.1e-05  3.828557  0.0  -0.240474  -0.509715  -5e-06  3.821091  0.0
C  C56  1  0.20208246  0.46502529  0.02108015  1  -0.422628  0.000125  3.559654  0.0  -0.488111  0.000155  3.792215  0.0  -0.491412  0.000143  3.796862  0.0  -0.234279  -0.485696  0.000155  3.789049  0.0
C  C57  1  0.79789991  0.53498794  0.97893437  1  -0.422829  -0.000117  3.559893  0.0  -0.488404  -0.000154  3.79247  0.0  -0.491715  -0.000142  3.797122  0.0  -0.23434  -0.48598  -0.000155  3.789287  0.0
S  S58  1  0.17233330  0.80730824  0.35804967  1  0.672694  8e-05  3.658857  0.0  0.652028  6.4e-05  4.105718  0.0  0.666671  5.5e-05  4.104712  0.0  0.27656  0.641629  8.6e-05  4.106226  0.0
S  S59  1  0.82766920  0.19268504  0.64195822  1  0.672758  -7.2e-05  3.65901  0.0  0.65206  -6.4e-05  4.1059  0.0  0.666702  -5.7e-05  4.104901  0.0  0.276562  0.641662  -8.6e-05  4.106407  0.0
S  S60  1  0.34134675  0.41148016  0.08800908  1  0.681494  0.00108  3.679967  0.0  0.674805  0.000942  4.121807  0.0  0.691145  0.000909  4.118678  0.0  0.279173  0.663292  0.000959  4.123547  0.0
S  S61  1  0.65864446  0.58852379  0.91198424  1  0.68155  -0.001082  3.680027  0.0  0.674859  -0.000941  4.121886  0.0  0.691203  -0.00091  4.118758  0.0  0.27917  0.663346  -0.000958  4.123625  0.0
O  O62  1  0.11260086  0.97546673  0.02924783  1  -0.743253  0.000109  2.343477  -0.001  -0.721918  0.000716  2.65383  0.0  -0.763369  0.000667  2.654827  0.0  -0.442928  -0.689811  0.000785  2.653594  0.0
O  O63  1  0.88740487  0.02453837  0.97074808  1  -0.743162  -0.000109  2.343483  0.001  -0.721858  -0.000716  2.653916  0.0  -0.763294  -0.000668  2.654876  0.0  -0.442963  -0.689755  -0.000786  2.653685  0.0
O  O64  1  0.18384278  0.17902817  0.32230813  1  -0.742693  0.010354  2.117162  -0.006  -0.712977  0.025126  2.398674  0.008  -0.748627  0.02217  2.388662  0.006  -0.442022  -0.686181  0.027356  2.4058  0.009
O  O65  1  0.81616294  0.82097929  0.67768699  1  -0.742518  -0.010339  2.117083  0.006  -0.712831  -0.025113  2.398704  -0.008  -0.748462  -0.022161  2.388584  -0.006  -0.44193  -0.686017  -0.027343  2.405831  -0.009
O  O66  1  0.44650976  0.30285092  0.42804864  1  -0.618168  -0.004418  1.928413  -0.004  -0.581583  -0.001645  2.159328  -0.002  -0.60349  -0.001487  2.149175  -0.001  -0.380768  -0.566091  -0.001642  2.166086  -0.002
O  O67  1  0.55349503  0.69714247  0.57194091  1  -0.618164  0.004423  1.928284  0.004  -0.581529  0.001646  2.159161  0.002  -0.603473  0.001486  2.149058  0.001  -0.380868  -0.566036  0.001642  2.165922  0.002
O  O68  1  0.06693160  0.76769177  0.74712185  1  -0.723211  -0.007277  2.055871  0.008  -0.696133  -0.021739  2.329101  -0.006  -0.730164  -0.019017  2.316457  -0.004  -0.417505  -0.670665  -0.023872  2.33813  -0.007
O  O69  1  0.93306920  0.23232154  0.25287835  1  -0.72312  0.007297  2.056014  -0.008  -0.696061  0.021756  2.329249  0.006  -0.730064  0.01903  2.316626  0.004  -0.417375  -0.670614  0.02389  2.338275  0.007
O  O70  1  0.18232882  0.60945203  0.71776479  1  -0.632663  0.004705  1.919282  0.004  -0.592013  0.002025  2.140812  0.002  -0.613762  0.001726  2.128692  0.002  -0.36686  -0.576503  0.002163  2.148675  0.002
O  O71  1  0.81767045  0.39055071  0.28223325  1  -0.632614  -0.0047  1.919427  -0.004  -0.591964  -0.002022  2.140986  -0.002  -0.613711  -0.001726  2.128865  -0.002  -0.366875  -0.576455  -0.002162  2.148847  -0.002
O  O72  1  0.87857880  0.92221798  0.18710648  1  -0.747596  -0.204166  1.318538  -0.203  -0.767931  -0.091498  1.594998  -0.094  -0.806537  -0.112387  1.58359  -0.116  -0.601692  -0.740253  -0.077935  1.605859  -0.08
O  O73  1  0.12144447  0.07781646  0.81289397  1  -0.74755  0.204184  1.318406  0.203  -0.767916  0.091501  1.595023  0.094  -0.806563  0.112392  1.583569  0.116  -0.601619  -0.740205  0.077938  1.605898  0.08
O  O74  1  0.24953451  0.72800218  0.40775665  1  -0.682516  2.1e-05  1.911993  0.0  -0.629844  6e-06  2.172439  0.0  -0.650676  1.3e-05  2.164374  0.0  -0.429697  -0.615029  -1e-06  2.177687  0.0
O  O75  1  0.75047224  0.27199577  0.59225464  1  -0.682519  -1.9e-05  1.912115  0.0  -0.629863  -6e-06  2.172606  0.0  -0.650694  -1.4e-05  2.164537  0.0  -0.429726  -0.615048  1e-06  2.177852  0.0
O  O76  1  0.26281686  0.34145362  0.17245209  1  -0.668564  -0.000369  1.921167  0.0  -0.631479  -0.000644  2.192134  0.0  -0.653564  -0.000534  2.186833  0.0  -0.41193  -0.615304  -0.000752  2.194657  0.0
O  O77  1  0.73718732  0.65854326  0.82754365  1  -0.668535  0.000368  1.921043  0.0  -0.631426  0.000643  2.191968  0.0  -0.653532  0.00053  2.186702  0.0  -0.411894  -0.615253  0.000752  2.194487  0.0
