# generated using pymatgen
data_Al6H29C84Cl21(O7F3)4
_symmetry_space_group_name_H-M   'P 1'
_cell_length_a   13.98891268
_cell_length_b   14.09125138
_cell_length_c   27.20604999
_cell_angle_alpha   90.33694721
_cell_angle_beta   90.56330337
_cell_angle_gamma   60.91753793
_symmetry_Int_Tables_number   1
_chemical_formula_structural   Al6H29C84Cl21(O7F3)4
_chemical_formula_sum   'Al6 H29 C84 Cl21 O28 F12'
_cell_volume   4686.51355545
_cell_formula_units_Z   1
loop_
 _symmetry_equiv_pos_site_id
 _symmetry_equiv_pos_as_xyz
  1  'x, y, z'
loop_
 _atom_site_type_symbol
 _atom_site_label
 _atom_site_symmetry_multiplicity
 _atom_site_fract_x
 _atom_site_fract_y
 _atom_site_fract_z
 _atom_site_occupancy
 _atom_site_pbe_bader_charge
 _atom_site_pbe_bader_spin_density
 _atom_site_pbe_cm5_charge
 _atom_site_pbe_ddec_charge
 _atom_site_pbe_ddec_spin_density
 _atom_site_pbe_ddec_sum_bond_order
 _atom_site_pbe_magmom
Al  Al0  1  0.60310291  0.56562943  0.50681297  1  2.502586  0  0.399386  1.683322  0  2.558828  0
Al  Al1  1  0.80900358  0.60821476  0.50370804  1  2.480256  0  0.508365  1.661375  0  2.506722  0
Al  Al2  1  0.58372464  0.80213428  0.50376613  1  2.485621  0  0.508066  1.661977  0  2.508256  0
Al  Al3  1  0.09323431  0.06541049  0.01495000  1  2.496667  0  0.40006  1.687869  0  2.539165  0
Al  Al4  1  0.85496055  0.08602010  0.01778916  1  2.481232  0  0.5064  1.663793  0  2.491729  0
Al  Al5  1  0.04921272  0.86223773  0.01858561  1  2.477814  0  0.505085  1.665696  0  2.492763  0
H  H6  1  0.71901320  0.73642472  0.73230722  1  0.093046  0  0.107188  0.067319  0  0.973733  0
H  H7  1  0.54029121  0.74828000  0.75288244  1  0.069454  0  0.100806  0.05444  0  1.002203  0
H  H8  1  0.72859336  0.55630388  0.73624710  1  0.114828  0  0.102024  0.063587  0  1.002338  0
H  H9  1  0.79028723  0.72178410  0.80943586  1  0.12272  0  0.099559  0.092216  0  1.027478  0
H  H10  1  0.49815822  0.73312015  0.83098684  1  0.113011  0  0.101976  0.092003  0  1.000811  0
H  H11  1  0.69882144  0.49013343  0.80758876  1  0.122324  0  0.097636  0.087001  0  1.037428  0
H  H12  1  0.96908788  0.82868226  0.78659570  1  0.102297  0  0.083272  0.105697  0  1.072799  0
H  H13  1  0.24211736  0.96884369  0.80526615  1  0.121999  0  0.092085  0.122521  0  1.032891  0
H  H14  1  0.83580251  0.21012168  0.77954268  1  0.073003  0  0.08152  0.104756  0  1.077026  0
H  H15  1  0.93612828  0.69236623  0.38368284  1  0.091013  0  0.115733  0.118831  0  0.979752  0
H  H16  1  0.52289436  0.59089422  0.36625736  1  0.115315  0  0.110769  0.114021  0  1.006155  0
H  H17  1  0.90428150  0.51669886  0.36625700  1  0.092763  0  0.107848  0.109726  0  1.010441  0
H  H18  1  0.95944316  0.71820360  0.29465730  1  0.130196  0  0.105574  0.112483  0  0.988106  0
H  H19  1  0.47346044  0.61419210  0.27686181  1  0.05301  0  0.106347  0.114459  0  0.983247  0
H  H20  1  0.92253230  0.47021507  0.27680450  1  0.076272  0  0.105625  0.113472  0  0.983574  0
H  H21  1  0.60980557  0.91487814  0.27856454  1  0.080373  0  0.108068  0.116348  0  0.981441  0
H  H22  1  0.31613945  0.96166556  0.29487349  1  0.113555  0  0.103775  0.110924  0  0.989576  0
H  H23  1  0.71736075  0.32349701  0.29509422  1  0.056919  0  0.104082  0.110527  0  0.988739  0
H  H24  1  0.58774565  0.89214507  0.36781635  1  0.087874  0  0.11052  0.113449  0  1.008319  0
H  H25  1  0.37085041  0.93717472  0.38377265  1  0.086679  0  0.113034  0.11615  0  0.98354  0
H  H26  1  0.69631047  0.37431559  0.38430363  1  0.095492  0  0.115107  0.118426  0  0.983547  0
H  H27  1  0.90459604  0.67720040  0.73536548  1  0.101482  0  0.105498  0.093175  0  0.98976  0
H  H28  1  0.41773321  0.91565205  0.73706188  1  0.109571  0  0.107161  0.095826  0  0.977807  0
H  H29  1  0.67948806  0.42170376  0.73006313  1  0.102137  0  0.108152  0.095733  0  0.975837  0
H  H30  1  0.96432539  0.71476792  0.81041520  1  0.101419  0  0.109173  0.1406  0  0.943738  0
H  H31  1  0.38240328  0.91352366  0.81915191  1  0.063519  0  0.102503  0.127493  0  0.966854  0
H  H32  1  0.70998212  0.31483123  0.80160498  1  0.063019  0  0.106879  0.13802  0  0.950178  0
H  H33  1  0.54621218  0.44153958  0.48098198  1  0.578849  0  0.291193  0.379076  0  0.928921  0
H  H34  1  0.21287812  0.12109471  0.98292689  1  0.577602  0  0.295625  0.386823  0  0.91708  0
C  C35  1  0.47852092  0.75274390  0.57596501  1  1.699641  0  0.28689  0.709832  0  4.153778  0
C  C36  1  0.79759642  0.47676911  0.57526611  1  1.680395  0  0.285065  0.712  0  4.149285  0
C  C37  1  0.74962035  0.78285860  0.57121411  1  1.66336  0  0.290181  0.725692  0  4.136971  0
C  C38  1  0.92011596  0.78732304  0.78748392  1  -0.069606  0  -0.164585  -0.259592  0  3.833265  0
C  C39  1  0.32314484  0.90161594  0.79690134  1  -0.049274  0  -0.160857  -0.25126  0  3.814598  0
C  C40  1  0.78557738  0.29815052  0.78283114  1  0.003888  0  -0.168017  -0.266949  0  3.860912  0
C  C41  1  0.90362981  0.75547793  0.73523007  1  0.107001  0  -0.044939  0.061552  0  3.783228  0
C  C42  1  0.34850560  0.90062320  0.74180824  1  0.105183  0  -0.044813  0.064092  0  3.777158  0
C  C43  1  0.76059131  0.34937350  0.73156659  1  0.10587  0  -0.042629  0.064416  0  3.781665  0
C  C44  1  0.82169841  0.87605671  0.86362863  1  -0.139365  0  -0.020412  -0.002606  0  4.022064  0
C  C45  1  0.29441307  0.80361082  0.86409348  1  0.109247  0  -0.031102  -0.029067  0  4.047802  0
C  C46  1  0.85091700  0.31238582  0.86547259  1  0.018654  0  -0.031625  -0.025292  0  4.042579  0
C  C47  1  0.77482295  0.82854015  0.66329369  1  -0.117953  0  -0.019925  0.001395  0  4.032279  0
C  C48  1  0.41558502  0.77818031  0.66887653  1  -0.212265  0  -0.030973  -0.020291  0  4.059817  0
C  C49  1  0.84250960  0.41497900  0.66815643  1  -0.434871  0  -0.031491  -0.02054  0  4.053097  0
C  C50  1  0.76536872  0.81305592  0.62006355  1  -0.058688  0  -0.01938  -0.160834  0  3.894679  0
C  C51  1  0.43880472  0.77136649  0.62574819  1  0.043147  0  -0.016857  -0.148498  0  3.902994  0
C  C52  1  0.83033956  0.43764116  0.62481519  1  0.236245  0  -0.019512  -0.154207  0  3.906271  0
C  C53  1  0.89524967  0.20630351  0.94962354  1  1.676016  0  0.281705  0.716779  0  4.140653  0
C  C54  1  0.87342508  0.91594211  0.95195434  1  1.696999  0  0.289616  0.730732  0  4.125633  0
C  C55  1  0.19247599  0.86738806  0.94913226  1  1.651926  0  0.281717  0.720299  0  4.142656  0
C  C56  1  0.76077440  0.79313044  0.38129810  1  -0.006426  0  -0.012625  -0.0535  0  3.97572  0
C  C57  1  0.44781917  0.76254655  0.38025264  1  -0.025944  0  -0.012914  -0.049533  0  3.980558  0
C  C58  1  0.80093206  0.44631922  0.38053005  1  -0.037517  0  -0.013662  -0.049543  0  3.977661  0
C  C59  1  0.86529130  0.74150874  0.36040368  1  0.052009  0  -0.071874  -0.072352  0  3.961961  0
C  C60  1  0.47818567  0.67149863  0.35003349  1  -0.032595  0  -0.073617  -0.069944  0  3.954165  0
C  C61  1  0.86360963  0.47459924  0.35023015  1  -0.025946  0  -0.076139  -0.073714  0  3.962233  0
C  C62  1  0.87793238  0.75502434  0.31063201  1  -0.151613  0  -0.084198  -0.130296  0  3.958144  0
C  C63  1  0.45083393  0.68478362  0.30037667  1  -0.041274  0  -0.086262  -0.129086  0  3.971171  0
C  C64  1  0.87321908  0.44904686  0.30043190  1  0.007131  0  -0.086827  -0.129707  0  3.97403  0
C  C65  1  0.78609253  0.81911009  0.28116219  1  0.023622  0  -0.002804  0.100517  0  4.001972  0
C  C66  1  0.39075180  0.78940634  0.28069122  1  0.034725  0  -0.006812  0.095308  0  4.021692  0
C  C67  1  0.82185624  0.39317141  0.28064841  1  -0.039139  0  -0.006089  0.097538  0  4.016136  0
C  C68  1  0.48052105  0.74460608  0.43296898  1  1.553291  0  0.271459  0.638182  0  4.095005  0
C  C69  1  0.78639630  0.47823033  0.43325135  1  1.551606  0  0.271949  0.642177  0  4.092554  0
C  C70  1  0.74455214  0.77723544  0.43383072  1  1.563289  0  0.279148  0.648404  0  4.079934  0
C  C71  1  0.68128443  0.86659240  0.30166543  1  -0.029172  0  -0.083725  -0.126642  0  3.964623  0
C  C72  1  0.36317828  0.88049913  0.31048932  1  -0.054479  0  -0.088012  -0.134849  0  3.971546  0
C  C73  1  0.75683322  0.36734295  0.31067336  1  -0.026535  0  -0.087185  -0.133508  0  3.970226  0
C  C74  1  0.66873699  0.85459441  0.35146318  1  -0.045319  0  -0.072188  -0.068414  0  3.948717  0
C  C75  1  0.39244647  0.86709904  0.36007695  1  -0.029168  0  -0.076399  -0.078645  0  3.974662  0
C  C76  1  0.74592824  0.39434012  0.36034371  1  0.0262  0  -0.073887  -0.074638  0  3.968893  0
C  C77  1  0.82136408  0.77657971  0.19032400  1  0.513914  0  0.098447  0.188584  0  4.043144  0
C  C78  1  0.39642024  0.81961826  0.18951177  1  0.47018  0  0.096694  0.187705  0  4.049318  0
C  C79  1  0.77262800  0.39808610  0.19070630  1  0.525768  0  0.095188  0.185598  0  4.050685  0
C  C80  1  0.83778512  0.80204691  0.14252610  1  0.148235  0  0.009008  0.027321  0  4.05553  0
C  C81  1  0.35165971  0.83689913  0.14202333  1  0.168521  0  0.010131  0.027516  0  4.063068  0
C  C82  1  0.79327077  0.35445375  0.14313741  1  0.089045  0  0.007071  0.025025  0  4.060109  0
C  C83  1  0.80642279  0.97719719  0.17272894  1  0.122772  0  0.009313  0.060073  0  4.047653  0
C  C84  1  0.20084073  0.81789988  0.17456358  1  0.140083  0  0.007155  0.058527  0  4.053259  0
C  C85  1  0.96860581  0.21066354  0.17227685  1  0.052911  0  0.010441  0.059912  0  4.047822  0
C  C86  1  0.79185293  0.94853743  0.22039875  1  0.159103  0  0.010276  0.049464  0  4.037357  0
C  C87  1  0.24708604  0.80216447  0.22185857  1  0.103967  0  0.00835  0.04828  0  4.042928  0
C  C88  1  0.94499809  0.25595666  0.21967937  1  0.174324  0  0.009164  0.04925  0  4.040451  0
C  C89  1  0.79973028  0.84708077  0.23000807  1  0.086994  0  -0.008273  -0.06637  0  4.002484  0
C  C90  1  0.34566659  0.80363890  0.22999099  1  0.088581  0  -0.011401  -0.070306  0  4.017786  0
C  C91  1  0.84596283  0.35041089  0.22964186  1  0.089148  0  -0.011538  -0.070897  0  4.016761  0
C  C92  1  0.83195446  0.90315170  0.13328571  1  0.036303  0  -0.020052  -0.132795  0  3.922703  0
C  C93  1  0.25156011  0.83765396  0.13433779  1  0.075898  0  -0.019128  -0.127824  0  3.933562  0
C  C94  1  0.89181428  0.25862271  0.13362258  1  0.083045  0  -0.018583  -0.126472  0  3.928204  0
C  C95  1  0.91350556  0.20147151  0.08470878  1  1.626092  0  0.269525  0.65509  0  4.086753  0
C  C96  1  0.86610200  0.92698869  0.08458977  1  1.599052  0  0.27545  0.667827  0  4.064577  0
C  C97  1  0.19306388  0.87149810  0.08551318  1  1.619811  0  0.267417  0.650272  0  4.093332  0
C  C98  1  0.70870544  0.81500309  0.74508882  1  0.522381  0  0.030113  0.149387  0  3.811952  0
C  C99  1  0.48650961  0.71167169  0.75263983  1  0.545596  0  0.032948  0.160099  0  3.773501  0
C  C100  1  0.80542921  0.49247755  0.75202911  1  0.502405  0  0.026514  0.144438  0  3.806372  0
C  C101  1  0.76499692  0.95856387  0.72745939  1  1.177892  0  0.202792  0.412474  0  3.858333  0
C  C102  1  0.29742659  0.74859054  0.72566053  1  1.174978  0  0.200296  0.411737  0  3.870832  0
C  C103  1  0.96245187  0.30172277  0.73618579  1  1.166573  0  0.201315  0.412572  0  3.853691  0
C  C104  1  0.76043848  0.97779275  0.78546388  1  0.237988  0  0.057369  0.070203  0  3.736701  0
C  C105  1  0.25034042  0.77038037  0.77965981  1  0.249254  0  0.056772  0.072177  0  3.735359  0
C  C106  1  0.96951596  0.28751999  0.79439261  1  0.226302  0  0.056565  0.071403  0  3.734355  0
C  C107  1  0.83929472  0.89035450  0.90604696  1  -0.110892  0  -0.030609  -0.18182  0  3.908723  0
C  C108  1  0.25501329  0.82464847  0.90484225  1  -0.269216  0  -0.031366  -0.170348  0  3.912761  0
C  C109  1  0.86301003  0.27275049  0.90605520  1  -0.217523  0  -0.031411  -0.172338  0  3.915809  0
C  C110  1  0.78792443  0.84088338  0.71541983  1  0.145332  0  -0.006799  -0.050345  0  3.899033  0
C  C111  1  0.38528177  0.78560102  0.72001000  1  0.073243  0  -0.009509  -0.053774  0  3.920929  0
C  C112  1  0.84524591  0.38887215  0.71965900  1  0.111925  0  -0.0068  -0.044673  0  3.897681  0
C  C113  1  0.73740797  0.80788615  0.80057822  1  0.082642  0  -0.051294  -0.032911  0  3.776697  0
C  C114  1  0.45221264  0.70711782  0.80670379  1  0.097605  0  -0.048243  -0.031841  0  3.757653  0
C  C115  1  0.78579042  0.46679278  0.80502365  1  0.095903  0  -0.052559  -0.032342  0  3.780459  0
C  C116  1  0.80725776  0.86437406  0.81147695  1  0.156734  0  -0.003379  0.093315  0  3.8738  0
C  C117  1  0.32941292  0.79262142  0.81341383  1  0.093849  0  -0.002693  0.095227  0  3.877508  0
C  C118  1  0.84914820  0.34219969  0.81447841  1  0.123091  0  -0.004118  0.099596  0  3.872745  0
Cl  Cl119  1  0.62104518  0.84685304  0.83838397  1  -0.211379  0  -0.022433  -0.091565  0  1.516786  0
Cl  Cl120  1  0.49110850  0.57302327  0.82664398  1  -0.201758  0  -0.01708  -0.072112  0  1.489885  0
Cl  Cl121  1  0.80244793  0.54964682  0.85005701  1  -0.208358  0  -0.022871  -0.084229  0  1.512546  0
Cl  Cl122  1  0.86154466  0.70895054  0.09686049  1  -0.138246  0  0.018414  -0.017947  0  1.498216  0
Cl  Cl123  1  0.42180825  0.85463214  0.09494712  1  -0.138448  0  0.022471  -0.013903  0  1.507067  0
Cl  Cl124  1  0.69774380  0.42241873  0.09804684  1  -0.148421  0  0.011267  -0.025927  0  1.496377  0
Cl  Cl125  1  0.76882854  0.03668006  0.26846930  1  -0.178384  0  0.010103  -0.046385  0  1.568205  0
Cl  Cl126  1  0.18123337  0.78433069  0.27112854  1  -0.181007  0  0.00373  -0.053257  0  1.563771  0
Cl  Cl127  1  0.03604077  0.19272679  0.26713359  1  -0.175598  0  0.004305  -0.05439  0  1.567415  0
Cl  Cl128  1  0.80109331  0.10005007  0.16517170  1  -0.148256  0  0.026968  -0.022553  0  1.779918  0
Cl  Cl129  1  0.07780094  0.82015110  0.16807175  1  -0.172932  0  0.01514  -0.040337  0  1.77745  0
Cl  Cl130  1  0.08852513  0.09246096  0.16395060  1  -0.146353  0  0.029618  -0.016518  0  1.758001  0
Cl  Cl131  1  0.62554141  0.06844017  0.80434012  1  -0.134327  0  -0.005133  -0.056216  0  1.508  0
Cl  Cl132  1  0.23466126  0.66000126  0.80081965  1  -0.146318  0  -0.008101  -0.06589  0  1.538582  0
Cl  Cl133  1  0.04489713  0.34540565  0.82133644  1  -0.137699  0  -0.010238  -0.061036  0  1.508754  0
Cl  Cl134  1  0.84457428  0.03585380  0.80247112  1  -0.165249  0  0.013416  -0.0479  0  1.661288  0
Cl  Cl135  1  0.11815321  0.88789502  0.78028735  1  -0.156119  0  0.008294  -0.060956  0  1.719955  0
Cl  Cl136  1  0.03760607  0.14650612  0.80959296  1  -0.161246  0  -0.000547  -0.062636  0  1.643966  0
Cl  Cl137  1  0.01327086  0.73430876  0.69619931  1  -0.185718  0  -0.024542  -0.078259  0  1.426516  0
Cl  Cl138  1  0.23944158  0.00634503  0.70810263  1  -0.198003  0  -0.034427  -0.093587  0  1.435303  0
Cl  Cl139  1  0.75352022  0.25957466  0.68745341  1  -0.188414  0  -0.021125  -0.071859  0  1.38603  0
O  O140  1  0.70535623  0.49067797  0.56178731  1  -1.198496  0  -0.194048  -0.529397  0  2.285618  0
O  O141  1  0.82525942  0.69238085  0.55501240  1  -1.239236  0  -0.220095  -0.578252  0  2.244575  0
O  O142  1  0.48814540  0.83021431  0.55577973  1  -1.249285  0  -0.237331  -0.59922  0  2.230296  0
O  O143  1  0.17469594  0.96066343  0.96219116  1  -1.218288  0  -0.208605  -0.564495  0  2.295973  0
O  O144  1  0.82069549  0.19214418  0.97069691  1  -1.25123  0  -0.240271  -0.599852  0  2.222035  0
O  O145  1  0.96175298  0.84117780  0.97119813  1  -1.23809  0  -0.224574  -0.583113  0  2.241452  0
O  O146  1  0.50393796  0.66156035  0.55746442  1  -1.211599  0  -0.191629  -0.517977  0  2.276437  0
O  O147  1  0.86279777  0.49795359  0.55017062  1  -1.251849  0  -0.240254  -0.601888  0  2.218102  0
O  O148  1  0.65956443  0.84539206  0.54936985  1  -1.242336  0  -0.221504  -0.578616  0  2.241002  0
O  O149  1  0.71021199  0.47518224  0.45653010  1  -1.248547  0  -0.221588  -0.585484  0  2.355284  0
O  O150  1  0.82384084  0.70057792  0.45754953  1  -1.271693  0  -0.236154  -0.600194  0  2.290087  0
O  O151  1  0.47636335  0.82568299  0.45747749  1  -1.27601  0  -0.252457  -0.620151  0  2.265824  0
O  O152  1  0.51412427  0.65072300  0.45020918  1  -1.244314  0  -0.214779  -0.570181  0  2.37221  0
O  O153  1  0.85062267  0.51156919  0.45134890  1  -1.27586  0  -0.248317  -0.613067  0  2.28463  0
O  O154  1  0.64962801  0.83791953  0.45184486  1  -1.267863  0  -0.233454  -0.598353  0  2.309926  0
O  O155  1  0.66636458  0.65977237  0.50524775  1  -1.613627  0  -0.391798  -1.27194  0  2.29555  0
O  O156  1  0.99830581  0.00382193  0.01735017  1  -1.614945  0  -0.390657  -1.26381  0  2.283484  0
O  O157  1  0.99453620  0.16421645  0.96214506  1  -1.212685  0  -0.204605  -0.552326  0  2.278972  0
O  O158  1  0.81651467  0.01236288  0.96841319  1  -1.237561  0  -0.220442  -0.577428  0  2.236748  0
O  O159  1  0.15700363  0.80917330  0.97024686  1  -1.250081  0  -0.236103  -0.593883  0  2.226746  0
O  O160  1  0.18003625  0.95896936  0.06758548  1  -1.22088  0  -0.205729  -0.547906  0  2.389844  0
O  O161  1  0.83634774  0.18619596  0.06717348  1  -1.256556  0  -0.243872  -0.616823  0  2.365395  0
O  O162  1  0.95626078  0.85344887  0.06731173  1  -1.254356  0  -0.226422  -0.597565  0  2.379774  0
O  O163  1  0.00580386  0.16877228  0.06577312  1  -1.225582  0  -0.203164  -0.529632  0  2.359913  0
O  O164  1  0.80712888  0.02000146  0.06506631  1  -1.253257  0  -0.227213  -0.575736  0  2.298511  0
O  O165  1  0.15708616  0.81048027  0.06686145  1  -1.27566  0  -0.243526  -0.59629  0  2.289563  0
O  O166  1  0.54193953  0.48329820  0.50995529  1  -1.369103  0  -0.573683  -0.988285  0  1.798575  0
O  O167  1  0.18171378  0.12003177  0.01432067  1  -1.355956  0  -0.573318  -0.987362  0  1.800727  0
F  F168  1  0.82716724  0.67928957  0.19857330  1  -0.619436  0  -0.09196  -0.118092  0  1.373677  0
F  F169  1  0.49252911  0.81933316  0.19674937  1  -0.622108  0  -0.096419  -0.124234  0  1.370865  0
F  F170  1  0.67737842  0.49008420  0.19952270  1  -0.627207  0  -0.095924  -0.123652  0  1.372905  0
F  F171  1  0.60010818  0.89240551  0.73539736  1  -0.62457  0  -0.120032  -0.161831  0  1.358131  0
F  F172  1  0.54740110  0.60842654  0.73216546  1  -0.631669  0  -0.111873  -0.157171  0  1.381588  0
F  F173  1  0.88072694  0.53122698  0.75054035  1  -0.632738  0  -0.124392  -0.16974  0  1.362173  0
F  F174  1  0.84700457  0.97206152  0.70739493  1  -0.610232  0  -0.101502  -0.167577  0  1.392599  0
F  F175  1  0.21579702  0.79836222  0.69169390  1  -0.618195  0  -0.100205  -0.162498  0  1.39019  0
F  F176  1  0.98555571  0.20557011  0.71372919  1  -0.613782  0  -0.102038  -0.166222  0  1.398304  0
F  F177  1  0.67026556  0.03308230  0.70543163  1  -0.612724  0  -0.101072  -0.162881  0  1.373156  0
F  F178  1  0.34664575  0.63947121  0.71571148  1  -0.603711  0  -0.103246  -0.164736  0  1.36137  0
F  F179  1  0.03853170  0.32802908  0.71993929  1  -0.612476  0  -0.105025  -0.167242  0  1.362207  0
