# generated using pymatgen
data_MgH4C7O5
_symmetry_space_group_name_H-M   'P 1'
_cell_length_a   8.99862523
_cell_length_b   8.99862326
_cell_length_c   10.49677931
_cell_angle_alpha   90.00698581
_cell_angle_beta   89.99255950
_cell_angle_gamma   119.97516830
_symmetry_Int_Tables_number   1
_chemical_formula_structural   MgH4C7O5
_chemical_formula_sum   'Mg3 H12 C21 O15'
_cell_volume   736.28769675
_cell_formula_units_Z   3
loop_
 _symmetry_equiv_pos_site_id
 _symmetry_equiv_pos_as_xyz
  1  'x, y, z'
loop_
 _atom_site_type_symbol
 _atom_site_label
 _atom_site_symmetry_multiplicity
 _atom_site_fract_x
 _atom_site_fract_y
 _atom_site_fract_z
 _atom_site_occupancy
 _atom_site_pbe_bader_charge
 _atom_site_pbe_bader_spin_density
 _atom_site_pbe_cm5_charge
 _atom_site_pbe_ddec_charge
 _atom_site_pbe_ddec_spin_density
 _atom_site_pbe_ddec_sum_bond_order
 _atom_site_pbe_magmom
Mg  Mg0  1  0.00036399  0.98527998  0.16662019  1  1.685992  0  0.836907  1.367221  0  1.445872  0
Mg  Mg1  1  0.98528160  0.00036260  0.83337929  1  1.685981  0  0.836929  1.367245  0  1.445707  0
Mg  Mg2  1  0.01492808  0.01492522  0.50000284  1  1.685495  0  0.836507  1.368019  0  1.444871  0
H  H3  1  0.75273243  0.64486746  0.28946904  1  0.657783  0  0.360512  0.39978  0  0.832722  0
H  H4  1  0.24709454  0.89141868  0.04376559  1  0.639046  0  0.360319  0.399419  0  0.83297  0
H  H5  1  0.89141085  0.24708499  0.95623431  1  0.639493  0  0.360276  0.399428  0  0.833021  0
H  H6  1  0.35565920  0.10786095  0.62266525  1  0.641824  0  0.360146  0.399543  0  0.832177  0
H  H7  1  0.64488975  0.75275306  0.71053471  1  0.658129  0  0.360502  0.399803  0  0.832702  0
H  H8  1  0.10786254  0.35565771  0.37733701  1  0.641863  0  0.360162  0.399559  0  0.832193  0
H  H9  1  0.48314601  0.40302846  0.19677635  1  0.085061  0  0.105388  0.129789  0  1.004922  0
H  H10  1  0.51709403  0.91938982  0.13622119  1  0.0843  0  0.105295  0.129482  0  1.00512  0
H  H11  1  0.91937635  0.51707633  0.86378243  1  0.084199  0  0.10532  0.129511  0  1.004973  0
H  H12  1  0.59752916  0.07985754  0.52983408  1  0.077895  0  0.105383  0.129643  0  1.004737  0
H  H13  1  0.40304487  0.48316195  0.80321491  1  0.085024  0  0.105387  0.129768  0  1.005037  0
H  H14  1  0.07985197  0.59752438  0.47017600  1  0.077735  0  0.105339  0.129582  0  1.004799  0
C  C15  1  0.73985168  0.73985248  0.99999748  1  0.667765  0  0.065231  0.152993  0  4.164719  0
C  C16  1  0.26039778  0.99945921  0.33323647  1  0.678394  0  0.065633  0.154278  0  4.161674  0
C  C17  1  0.99943869  0.26037942  0.66676586  1  0.677404  0  0.065588  0.154253  0  4.161855  0
C  C18  1  0.52816013  0.48317395  0.11165384  1  -0.028525  0  -0.11765  -0.255149  0  4.038569  0
C  C19  1  0.47206270  0.95445595  0.22140980  1  -0.028075  0  -0.116874  -0.254632  0  4.038756  0
C  C20  1  0.95444395  0.47206059  0.77858814  1  -0.027787  0  -0.116937  -0.254626  0  4.038615  0
C  C21  1  0.51724131  0.04464963  0.44476398  1  -0.028416  0  -0.117616  -0.255476  0  4.037696  0
C  C22  1  0.48317812  0.52816899  0.88834079  1  -0.028537  0  -0.117622  -0.255025  0  4.039039  0
C  C23  1  0.04464368  0.51722203  0.55523794  1  -0.028003  0  -0.117451  -0.255124  0  4.037689  0
C  C24  1  0.26341732  0.26342318  0.99998581  1  1.559473  0  0.216818  0.626219  0  4.207321  0
C  C25  1  0.73713610  0.00003236  0.33292829  1  1.579302  0  0.216431  0.626166  0  4.204217  0
C  C26  1  0.00004515  0.73713173  0.66709206  1  1.579697  0  0.216411  0.62637  0  4.20417  0
C  C27  1  0.68394502  0.63546278  0.10938194  1  0.379645  0  0.058794  0.191897  0  4.097212  0
C  C28  1  0.31611043  0.95077040  0.22381626  1  0.410841  0  0.05864  0.191388  0  4.096766  0
C  C29  1  0.95075635  0.31610368  0.77618510  1  0.41115  0  0.058659  0.191406  0  4.096492  0
C  C30  1  0.36485032  0.04805158  0.44259873  1  0.383635  0  0.058631  0.191471  0  4.095054  0
C  C31  1  0.63546084  0.68395551  0.89061161  1  0.379276  0  0.058852  0.191786  0  4.097163  0
C  C32  1  0.04803093  0.36482786  0.55740752  1  0.384148  0  0.058681  0.191329  0  4.095268  0
C  C33  1  0.42868774  0.42868593  0.99999381  1  0.060429  0  -0.038342  -0.027544  0  4.056299  0
C  C34  1  0.57166877  0.99969443  0.33300463  1  0.02409  0  -0.039128  -0.026977  0  4.05473  0
C  C35  1  0.99968208  0.57165349  0.66699090  1  0.023687  0  -0.039112  -0.027147  0  4.055004  0
O  O36  1  0.80156674  0.70129270  0.20865306  1  -1.189318  0  -0.344813  -0.485902  0  2.371856  0
O  O37  1  0.19824508  0.89878555  0.12466020  1  -1.182402  0  -0.344916  -0.485744  0  2.370649  0
O  O38  1  0.89877125  0.19823676  0.87533984  1  -1.182896  0  -0.34489  -0.485808  0  2.370552  0
O  O39  1  0.29906136  0.10001386  0.54187562  1  -1.177856  0  -0.343977  -0.485279  0  2.369122  0
O  O40  1  0.70131549  0.80159429  0.79134843  1  -1.189752  0  -0.344849  -0.485931  0  2.37179  0
O  O41  1  0.10000993  0.29905946  0.45812686  1  -1.17776  0  -0.344  -0.485268  0  2.369151  0
O  O42  1  0.17724416  0.21769153  0.10347897  1  -1.255086  0  -0.378367  -0.678436  0  2.226801  0
O  O43  1  0.82386351  0.04162178  0.22966536  1  -1.253877  0  -0.377872  -0.677968  0  2.225353  0
O  O44  1  0.04162138  0.82385494  0.77033454  1  -1.25398  0  -0.377807  -0.677938  0  2.225852  0
O  O45  1  0.78249836  0.95880606  0.43623466  1  -1.25434  0  -0.378126  -0.679048  0  2.226176  0
O  O46  1  0.21768758  0.17724096  0.89650924  1  -1.254652  0  -0.378362  -0.678405  0  2.22715  0
O  O47  1  0.95881164  0.78250489  0.56376885  1  -1.254495  0  -0.37822  -0.679314  0  2.225471  0
O  O48  1  0.88757571  0.88757840  0.00000642  1  -1.274778  0  -0.448482  -0.722751  0  2.412215  0
O  O49  1  0.11266311  0.99960451  0.33336102  1  -1.279062  0  -0.448658  -0.723966  0  2.410125  0
O  O50  1  0.99959192  0.11265009  0.66662850  1  -1.279158  0  -0.448671  -0.723889  0  2.410153  0
