# generated using pymatgen
data_ZnH20C27NO8
_symmetry_space_group_name_H-M   'P 1'
_cell_length_a   13.96149754
_cell_length_b   15.00401117
_cell_length_c   15.14559168
_cell_angle_alpha   89.37399142
_cell_angle_beta   89.23027637
_cell_angle_gamma   91.38684994
_symmetry_Int_Tables_number   1
_chemical_formula_structural   ZnH20C27NO8
_chemical_formula_sum   'Zn2 H40 C54 N2 O16'
_cell_volume   3171.25883590
_cell_formula_units_Z   2
loop_
 _symmetry_equiv_pos_site_id
 _symmetry_equiv_pos_as_xyz
  1  'x, y, z'
loop_
 _atom_site_type_symbol
 _atom_site_label
 _atom_site_symmetry_multiplicity
 _atom_site_fract_x
 _atom_site_fract_y
 _atom_site_fract_z
 _atom_site_occupancy
 _atom_site_pbe_bader_charge
 _atom_site_pbe_bader_spin_density
 _atom_site_pbe_cm5_charge
 _atom_site_pbe_ddec_charge
 _atom_site_pbe_ddec_spin_density
 _atom_site_pbe_ddec_sum_bond_order
 _atom_site_pbe_magmom
Zn  Zn0  1  0.60091457  0.49608384  0.49964799  1  1.310258  0  0.674511  0.833257  0  2.405423  0
Zn  Zn1  1  0.39620118  0.49682744  0.50472142  1  1.289133  0  0.674099  0.83236  0  2.39969  0
H  H2  1  0.39070575  0.23338445  0.41937253  1  0.076419  0  0.116558  0.128978  0  0.976993  0
H  H3  1  0.62928040  0.76420866  0.52724997  1  0.106006  0  0.116527  0.128536  0  0.976169  0
H  H4  1  0.71279757  0.90290391  0.58057641  1  0.116904  0  0.116297  0.121308  0  0.982215  0
H  H5  1  0.33783792  0.10187093  0.33038272  1  0.112518  0  0.11837  0.125655  0  0.977623  0
H  H6  1  0.66061537  0.54269957  0.94338286  1  0.059615  0  0.096169  0.093111  0  1.012396  0
H  H7  1  0.37027074  0.54308485  0.06608678  1  0.052554  0  0.10025  0.098704  0  1.005805  0
H  H8  1  0.65139518  0.43073138  0.05831832  1  0.039255  0  0.097857  0.096618  0  1.008495  0
H  H9  1  0.36403666  0.45694721  0.94073344  1  0.034373  0  0.10038  0.098135  0  1.006188  0
H  H10  1  0.65935053  0.55957484  0.77944118  1  0.056418  0  0.096246  0.091718  0  1.02573  0
H  H11  1  0.36629076  0.52613398  0.23007825  1  0.131497  0  0.105806  0.115486  0  0.998337  0
H  H12  1  0.64716092  0.41645613  0.22252074  1  0.084313  0  0.101599  0.104361  0  1.004119  0
H  H13  1  0.36334986  0.47676322  0.77705265  1  0.104281  0  0.105427  0.110551  0  0.99718  0
H  H14  1  0.24991820  0.63373843  0.49568471  1  0.132089  0  0.119913  0.109219  0  1.042454  0
H  H15  1  0.75130387  0.48168566  0.36214195  1  0.134723  0  0.126381  0.120815  0  1.001132  0
H  H16  1  0.24317486  0.35798341  0.50690729  1  0.153982  0  0.124987  0.120798  0  1.002786  0
H  H17  1  0.74880425  0.50735937  0.63367144  1  0.150672  0  0.120049  0.10765  0  1.047062  0
H  H18  1  0.63480503  0.15064763  0.69430501  1  0.034669  0  0.099461  0.032891  0  0.999612  0
H  H19  1  0.29145613  0.80909023  0.35209528  1  0.03891  0  0.095717  0.022608  0  0.995637  0
H  H20  1  0.74890221  0.14586945  0.59833461  1  0.078866  0  0.101069  0.034945  0  0.985572  0
H  H21  1  0.36457823  0.88228439  0.23610907  1  0.06155  0  0.106398  0.047425  0  0.966079  0
H  H22  1  0.15490566  0.73463416  0.42632465  1  0.039935  0  0.1016  0.059467  0  0.985878  0
H  H23  1  0.14598378  0.74549356  0.54358994  1  0.063622  0  0.106185  0.067113  0  0.956024  0
H  H24  1  0.98067830  0.80843232  0.52718844  1  0.063939  0  0.097772  0.13357  0  0.986269  0
H  H25  1  0.06808424  0.87353207  0.46694869  1  0.012599  0  0.099758  0.134077  0  0.988074  0
H  H26  1  0.99090733  0.79807691  0.41027489  1  0.047708  0  0.096109  0.129696  0  0.991603  0
H  H27  1  0.98313425  0.60950885  0.32168232  1  0.065116  0  0.095938  0.054262  0  0.989263  0
H  H28  1  0.87840143  0.57364678  0.26403628  1  0.030175  0  0.099022  0.055495  0  0.969557  0
H  H29  1  0.97943399  0.47676064  0.16727588  1  0.03306  0  0.094411  0.127752  0  0.991855  0
H  H30  1  0.02190594  0.58977269  0.16113744  1  0.031656  0  0.095558  0.126478  0  0.994895  0
H  H31  1  0.08364278  0.51047945  0.22614477  1  0.051483  0  0.097706  0.135158  0  0.984912  0
H  H32  1  0.00878751  0.33064838  0.62755052  1  0.034467  0  0.095216  0.053469  0  0.991814  0
H  H33  1  0.11021065  0.26530176  0.60041694  1  0.04444  0  0.09941  0.057542  0  0.965967  0
H  H34  1  0.00484020  0.16369063  0.51000955  1  0.031462  0  0.094828  0.129988  0  0.987455  0
H  H35  1  0.95982651  0.16784079  0.62042993  1  0.051079  0  0.095368  0.13325  0  0.99831  0
H  H36  1  0.90446487  0.23025533  0.53506876  1  0.041226  0  0.091654  0.124702  0  0.998362  0
H  H37  1  0.84396962  0.45203829  0.74110880  1  0.070788  0  0.10623  0.066847  0  0.962487  0
H  H38  1  0.85612058  0.57092143  0.73769263  1  0.026942  0  0.105025  0.065848  0  0.960746  0
H  H39  1  0.02232500  0.56014089  0.80083461  1  0.033123  0  0.09774  0.132534  0  0.985617  0
H  H40  1  0.93440218  0.50868222  0.87233146  1  0.041283  0  0.098388  0.130678  0  0.989736  0
H  H41  1  0.00876641  0.44173603  0.80501715  1  0.026177  0  0.096691  0.129706  0  0.989906  0
C  C42  1  0.50893746  0.52533912  0.66980294  1  1.583526  0  0.216124  0.596725  0  4.167916  0
C  C43  1  0.50526507  0.46578886  0.33446204  1  1.583014  0  0.212413  0.589566  0  4.178288  0
C  C44  1  0.65275739  0.94130533  0.55659557  1  -0.01074  0  -0.05611  -0.103017  0  3.889667  0
C  C45  1  0.38422446  0.05982911  0.36966507  1  -0.013264  0  -0.057534  -0.109068  0  3.890684  0
C  C46  1  0.59555223  0.52695178  0.90695688  1  -0.100667  0  -0.095615  -0.141344  0  3.99817  0
C  C47  1  0.43028080  0.51338926  0.10003152  1  -0.043029  0  -0.093211  -0.138437  0  3.989629  0
C  C48  1  0.58916681  0.45271385  0.09579876  1  -0.012277  0  -0.095965  -0.14261  0  4.005374  0
C  C49  1  0.42845152  0.48119427  0.90570448  1  -0.024094  0  -0.091304  -0.13616  0  3.99259  0
C  C50  1  0.59492005  0.53711185  0.81547592  1  0.027571  0  -0.088536  -0.09194  0  4.005031  0
C  C51  1  0.42752079  0.50421606  0.19141371  1  -0.051919  0  -0.081303  -0.078412  0  3.971834  0
C  C52  1  0.58676744  0.44384493  0.18732071  1  -0.064085  0  -0.089121  -0.094418  0  4.004701  0
C  C53  1  0.42770929  0.49156991  0.81454281  1  -0.087868  0  -0.081693  -0.07837  0  3.979977  0
C  C54  1  0.51097259  0.51942059  0.76835157  1  -0.036972  0  -0.018484  -0.030876  0  3.961233  0
C  C55  1  0.50603429  0.46968917  0.23585916  1  -0.02711  0  -0.020912  -0.036193  0  3.971795  0
C  C56  1  0.51226042  0.49869923  0.95368226  1  0.019801  0  -0.003673  0.077013  0  3.999931  0
C  C57  1  0.51102375  0.48805013  0.05062251  1  -0.050825  0  -0.005406  0.073644  0  4.005918  0
C  C58  1  0.10422178  0.57595245  0.49430469  1  0.521717  0  0.094389  0.183875  0  4.069559  0
C  C59  1  0.89463209  0.48712893  0.41848152  1  0.606507  0  0.093005  0.18411  0  4.082235  0
C  C60  1  0.10121418  0.41525466  0.49986306  1  0.523361  0  0.093198  0.186264  0  4.083967  0
C  C61  1  0.89392669  0.50005177  0.57705128  1  0.4533  0  0.094  0.183139  0  4.072241  0
C  C62  1  0.20416396  0.57401245  0.49761351  1  0.475863  0  0.02479  -0.06759  0  3.940456  0
C  C63  1  0.79455903  0.48825978  0.42124312  1  0.475977  0  0.037882  -0.039898  0  3.920849  0
C  C64  1  0.20118914  0.41821426  0.50364599  1  0.560479  0  0.037244  -0.042634  0  3.922941  0
C  C65  1  0.79395062  0.50150392  0.57497361  1  0.512753  0  0.022348  -0.072864  0  3.949846  0
C  C66  1  0.05141032  0.49481023  0.49672097  1  0.019402  0  -0.000231  -0.067276  0  3.98436  0
C  C67  1  0.94559390  0.49400525  0.49691039  1  0.063099  0  -0.00019  -0.063937  0  3.980109  0
C  C68  1  0.49596592  0.66523976  0.45838290  1  1.620498  0  0.217186  0.596722  0  4.193409  0
C  C69  1  0.48894939  0.32592644  0.53436217  1  1.612561  0  0.21721  0.596891  0  4.196531  0
C  C70  1  0.43866738  0.19025623  0.45557322  1  0.021345  0  -0.067536  -0.131792  0  3.902529  0
C  C71  1  0.57804585  0.80601526  0.49358657  1  0.047404  0  -0.066411  -0.126506  0  3.90498  0
C  C72  1  0.49305631  0.22635956  0.52298967  1  -0.004031  0  0.008541  -0.007339  0  3.903478  0
C  C73  1  0.50546848  0.76500068  0.44544122  1  -0.005549  0  0.00685  -0.011493  0  3.907156  0
C  C74  1  0.55587924  0.17192545  0.57122918  1  -0.024339  0  -0.007347  -0.043502  0  3.925791  0
C  C75  1  0.43991125  0.81690943  0.39810684  1  -0.050862  0  -0.00761  -0.044177  0  3.926727  0
C  C76  1  0.57383247  0.08419482  0.54210589  1  -0.017674  0  0.009415  0.022075  0  3.956787  0
C  C77  1  0.44624981  0.91165106  0.40144216  1  0.010871  0  0.00507  0.011291  0  3.960994  0
C  C78  1  0.51114987  0.04510584  0.47839541  1  -0.04173  0  0.006942  0.003985  0  3.927424  0
C  C79  1  0.51324709  0.95227089  0.46048466  1  0.018554  0  0.007004  0.009134  0  3.927781  0
C  C80  1  0.44278086  0.09909912  0.43528937  1  0.01951  0  0.00109  0.08386  0  4.048761  0
C  C81  1  0.58147168  0.89865950  0.50448721  1  -0.035533  0  -0.000531  0.078151  0  4.054337  0
C  C82  1  0.65160976  0.03112341  0.57401405  1  -0.04026  0  -0.020057  -0.040813  0  4.000798  0
C  C83  1  0.38667525  0.97025392  0.35054601  1  -0.060504  0  -0.019237  -0.036314  0  3.996524  0
C  C84  1  0.58701372  0.19862280  0.66049530  1  0.954965  0  0.091653  0.249805  0  4.004856  0
C  C85  1  0.36049968  0.77246817  0.34979857  1  0.955215  0  0.090596  0.252328  0  4.03966  0
C  C86  1  0.73975165  0.07277699  0.61139511  1  0.910524  0  0.089711  0.253098  0  4.015895  0
C  C87  1  0.33489402  0.94142447  0.27010120  1  0.931166  0  0.089962  0.251256  0  4.013119  0
C  C88  1  0.10436672  0.73600266  0.48287799  1  0.3994  0  -0.060603  0.083661  0  3.909742  0
C  C89  1  0.03140849  0.80799477  0.47118576  1  -0.048687  0  -0.238432  -0.395866  0  3.97366  0
C  C90  1  0.95088734  0.55432909  0.28375897  1  0.392099  0  -0.063597  0.09043  0  3.914187  0
C  C91  1  0.01260375  0.53123217  0.20487583  1  -0.051829  0  -0.241045  -0.395506  0  3.981715  0
C  C92  1  0.03938925  0.28619754  0.57754683  1  0.411693  0  -0.063349  0.090597  0  3.913371  0
C  C93  1  0.97334010  0.20725986  0.55981328  1  -0.057518  0  -0.242934  -0.395887  0  3.975469  0
C  C94  1  0.89599672  0.50836968  0.73549252  1  0.386314  0  -0.059586  0.082889  0  3.90884  0
C  C95  1  0.97002289  0.50453623  0.80742532  1  -0.009251  0  -0.238463  -0.393608  0  3.971338  0
N  N96  1  0.24992446  0.49623361  0.50274577  1  -1.248494  0  -0.321409  -0.150211  0  3.598378  0
N  N97  1  0.74710696  0.49580002  0.49808226  1  -1.260236  0  -0.32435  -0.153455  0  3.605978  0
O  O98  1  0.58844707  0.53826053  0.62811476  1  -1.177819  0  -0.323928  -0.558332  0  2.317498  0
O  O99  1  0.42539114  0.47756962  0.37388715  1  -1.161921  0  -0.316999  -0.547389  0  2.336524  0
O  O100  1  0.58500155  0.45305728  0.37220589  1  -1.171468  0  -0.321399  -0.552863  0  2.333769  0
O  O101  1  0.42747143  0.51531351  0.63412154  1  -1.159045  0  -0.316365  -0.544669  0  2.34656  0
O  O102  1  0.57310532  0.62295128  0.45042742  1  -1.169805  0  -0.313256  -0.54542  0  2.308973  0
O  O103  1  0.40692541  0.35989933  0.52779334  1  -1.16387  0  -0.311546  -0.546822  0  2.327722  0
O  O104  1  0.56911679  0.36671386  0.53992698  1  -1.158199  0  -0.313122  -0.540527  0  2.33482  0
O  O105  1  0.41449821  0.63469609  0.48314750  1  -1.159709  0  -0.307931  -0.534489  0  2.326051  0
O  O106  1  0.55777356  0.26302536  0.70067225  1  -1.047081  0  -0.247092  -0.313515  0  2.116191  0
O  O107  1  0.36522727  0.70156762  0.31113447  1  -1.057451  0  -0.247371  -0.325347  0  2.14236  0
O  O108  1  0.80272132  0.03147279  0.64853194  1  -1.080396  0  -0.274949  -0.363151  0  2.098033  0
O  O109  1  0.26780781  0.98115233  0.23799320  1  -1.068985  0  -0.274431  -0.356052  0  2.087402  0
O  O110  1  0.05264218  0.65144791  0.48859823  1  -1.072058  0  -0.177014  -0.199213  0  2.551551  0
O  O111  1  0.94370209  0.47579609  0.34059351  1  -1.056661  0  -0.200749  -0.231922  0  2.490843  0
O  O112  1  0.05101980  0.33590386  0.49507437  1  -1.074375  0  -0.201174  -0.232535  0  2.495338  0
O  O113  1  0.94655727  0.50383885  0.65179069  1  -1.059592  0  -0.176194  -0.199507  0  2.555021  0
