# generated using pymatgen
data_CdH6(C3O)4
_symmetry_space_group_name_H-M   'P 1'
_cell_length_a   5.72549830
_cell_length_b   10.93122271
_cell_length_c   15.07532528
_cell_angle_alpha   85.07653388
_cell_angle_beta   89.99968154
_cell_angle_gamma   89.99961560
_symmetry_Int_Tables_number   1
_chemical_formula_structural   CdH6(C3O)4
_chemical_formula_sum   'Cd4 H24 C48 O16'
_cell_volume   940.03346290
_cell_formula_units_Z   4
loop_
 _symmetry_equiv_pos_site_id
 _symmetry_equiv_pos_as_xyz
  1  'x, y, z'
loop_
 _atom_site_type_symbol
 _atom_site_label
 _atom_site_symmetry_multiplicity
 _atom_site_fract_x
 _atom_site_fract_y
 _atom_site_fract_z
 _atom_site_occupancy
 _atom_site_pbe_bader_charge
 _atom_site_pbe_bader_spin_density
 _atom_site_pbe_cm5_charge
 _atom_site_pbe_ddec_charge
 _atom_site_pbe_ddec_spin_density
 _atom_site_pbe_ddec_sum_bond_order
 _atom_site_pbe_magmom
Cd  Cd0  1  0.07260138  0.63588228  0.96532735  1  1.320452  0  0.794051  1.03994  0  2.128288  0
Cd  Cd1  1  0.57259368  0.86411046  0.03466988  1  1.320382  0  0.794057  1.039931  0  2.1283  0
Cd  Cd2  1  0.92740851  0.36411628  0.03468161  1  1.320626  0  0.794072  1.040015  0  2.128088  0
Cd  Cd3  1  0.42741621  0.13587619  0.96532256  1  1.320502  0  0.794074  1.039961  0  2.128088  0
H  H4  1  0.02886314  0.40644550  0.27891998  1  0.098262  0  0.101877  0.107176  0  1.034609  0
H  H5  1  0.52889036  0.09357078  0.72107410  1  0.098227  0  0.101932  0.107215  0  1.034653  0
H  H6  1  0.97112755  0.59357051  0.72108326  1  0.09811  0  0.1019  0.107185  0  1.034604  0
H  H7  1  0.47110557  0.90641494  0.27892171  1  0.098151  0  0.101896  0.107259  0  1.034535  0
H  H8  1  0.03388734  0.44559245  0.43885246  1  0.057219  0  0.097422  0.093758  0  1.037359  0
H  H9  1  0.53391943  0.05441831  0.56114260  1  0.057376  0  0.097415  0.093754  0  1.037229  0
H  H10  1  0.96609287  0.55441805  0.56115179  1  0.057427  0  0.097394  0.093709  0  1.037275  0
H  H11  1  0.46607475  0.94558027  0.43885110  1  0.057544  0  0.097403  0.09376  0  1.037148  0
H  H12  1  0.32883921  0.58895071  0.49370767  1  0.032036  0  0.097937  0.095255  0  1.037574  0
H  H13  1  0.82886147  0.91104791  0.50629081  1  0.032233  0  0.097969  0.095261  0  1.03766  0
H  H14  1  0.67113925  0.41105795  0.50629868  1  0.032209  0  0.097964  0.095253  0  1.037507  0
H  H15  1  0.17113795  0.08895619  0.49369857  1  0.032275  0  0.09794  0.095204  0  1.037569  0
H  H16  1  0.66912107  0.71727873  0.46889546  1  0.063221  0  0.098085  0.094607  0  1.027849  0
H  H17  1  0.16914715  0.78272205  0.53110661  1  0.063248  0  0.098026  0.094568  0  1.02777  0
H  H18  1  0.33086438  0.28273267  0.53111603  1  0.06294  0  0.098044  0.094586  0  1.027585  0
H  H19  1  0.83086275  0.21728296  0.46888073  1  0.062983  0  0.097977  0.094481  0  1.027638  0
H  H20  1  0.96831261  0.81862235  0.36650573  1  0.077595  0  0.095582  0.09249  0  1.038334  0
H  H21  1  0.46833322  0.68137964  0.63349626  1  0.077637  0  0.095552  0.092419  0  1.038383  0
H  H22  1  0.03168681  0.18138171  0.63350554  1  0.077104  0  0.095541  0.092397  0  1.038349  0
H  H23  1  0.53166445  0.31861435  0.36649308  1  0.077269  0  0.095542  0.092469  0  1.038359  0
H  H24  1  0.97875612  0.77354942  0.20808352  1  0.134078  0  0.106485  0.12281  0  1.015359  0
H  H25  1  0.47875951  0.72645071  0.79191851  1  0.134024  0  0.106454  0.122766  0  1.015409  0
H  H26  1  0.02125902  0.22644178  0.79192987  1  0.134708  0  0.106476  0.122885  0  1.015346  0
H  H27  1  0.52122419  0.27353594  0.20807261  1  0.134517  0  0.106478  0.122784  0  1.015491  0
C  C28  1  0.32153868  0.52140344  0.24364135  1  -0.051663  0  -0.008541  -0.062411  0  3.89938  0
C  C29  1  0.82155716  0.97860438  0.75635528  1  -0.051276  0  -0.008457  -0.062525  0  3.899603  0
C  C30  1  0.67845375  0.47860889  0.75636477  1  -0.056205  0  -0.008616  -0.062392  0  3.899441  0
C  C31  1  0.17843877  0.02138319  0.24363843  1  -0.051619  0  -0.008487  -0.062265  0  3.899415  0
C  C32  1  0.16222072  0.46581231  0.30362918  1  -0.03907  0  -0.082046  -0.087352  0  3.955748  0
C  C33  1  0.66224318  0.03419909  0.69636764  1  -0.039057  0  -0.082178  -0.087423  0  3.955845  0
C  C34  1  0.83776822  0.53419910  0.69637700  1  -0.034791  0  -0.08196  -0.087266  0  3.955772  0
C  C35  1  0.33775274  0.96579306  0.30362779  1  -0.039226  0  -0.082128  -0.087521  0  3.955522  0
C  C36  1  0.16397661  0.48927935  0.39393609  1  -0.003177  0  -0.096907  -0.091047  0  4.046143  0
C  C37  1  0.66399965  0.01072654  0.60606105  1  -0.003384  0  -0.096857  -0.090964  0  4.045804  0
C  C38  1  0.83600709  0.51072839  0.60606965  1  -0.003083  0  -0.096882  -0.091018  0  4.046014  0
C  C39  1  0.33598929  0.98927020  0.39393475  1  -0.003258  0  -0.09685  -0.091047  0  4.045604  0
C  C40  1  0.32650186  0.56876647  0.42412931  1  -0.067278  0  -0.0898  -0.13817  0  4.003066  0
C  C41  1  0.82652499  0.93123583  0.57586829  1  -0.067347  0  -0.089803  -0.138084  0  4.002919  0
C  C42  1  0.67348533  0.43123852  0.57587726  1  -0.067396  0  -0.089884  -0.138176  0  4.003082  0
C  C43  1  0.17347268  0.06876826  0.42412374  1  -0.067311  0  -0.089789  -0.137991  0  4.00287  0
C  C44  1  0.67019297  0.70299522  0.39809290  1  -0.073838  0  -0.0884  -0.130578  0  3.980395  0
C  C45  1  0.17022003  0.79700465  0.60190723  1  -0.074232  0  -0.088437  -0.130652  0  3.980382  0
C  C46  1  0.32980470  0.29701344  0.60191411  1  -0.073383  0  -0.088413  -0.130556  0  3.980095  0
C  C47  1  0.82978812  0.20299027  0.39808338  1  -0.073361  0  -0.088414  -0.13048  0  3.980249  0
C  C48  1  0.83557856  0.75852828  0.34186775  1  -0.039711  0  -0.091716  -0.077245  0  4.01224  0
C  C49  1  0.33559868  0.74147215  0.65813522  1  -0.039666  0  -0.091638  -0.077045  0  4.012338  0
C  C50  1  0.16442785  0.24147304  0.65813706  1  -0.039673  0  -0.091717  -0.077168  0  4.012276  0
C  C51  1  0.66440598  0.25852459  0.34185992  1  -0.039417  0  -0.091614  -0.077225  0  4.012429  0
C  C52  1  0.84057667  0.73419378  0.25145425  1  -0.05233  0  -0.077781  -0.077626  0  3.924131  0
C  C53  1  0.34058921  0.76580940  0.74854653  1  -0.052184  0  -0.077725  -0.077602  0  3.924414  0
C  C54  1  0.15942624  0.26579927  0.74855306  1  -0.052481  0  -0.077701  -0.077669  0  3.924256  0
C  C55  1  0.65939274  0.23418367  0.25144817  1  -0.052955  0  -0.077684  -0.077554  0  3.924363  0
C  C56  1  0.68021366  0.65442282  0.21834650  1  0.025655  0  -0.015987  -0.09006  0  3.942491  0
C  C57  1  0.18021857  0.84557795  0.78165416  1  0.025765  0  -0.015973  -0.090068  0  3.942584  0
C  C58  1  0.31979100  0.34557207  0.78166135  1  0.026094  0  -0.016035  -0.090075  0  3.942607  0
C  C59  1  0.81977212  0.15441512  0.21834120  1  0.026233  0  -0.016051  -0.090045  0  3.942495  0
C  C60  1  0.49903031  0.59990198  0.27367836  1  -0.004055  0  0.007431  0.050987  0  3.900291  0
C  C61  1  0.99904423  0.90010088  0.72631939  1  -0.004008  0  0.007436  0.051092  0  3.900419  0
C  C62  1  0.50097085  0.40009750  0.72632988  1  -0.004716  0  0.007468  0.050956  0  3.900349  0
C  C63  1  0.00095518  0.09989404  0.27367188  1  -0.004894  0  0.007452  0.050987  0  3.900307  0
C  C64  1  0.49780655  0.62452576  0.36584319  1  -0.016893  0  -0.007579  0.073173  0  3.994767  0
C  C65  1  0.99782628  0.87547342  0.63415546  1  -0.016839  0  -0.007578  0.073053  0  3.994887  0
C  C66  1  0.50218413  0.37548290  0.63416316  1  -0.017059  0  -0.007564  0.073118  0  3.995018  0
C  C67  1  0.00217488  0.12451966  0.36583593  1  -0.016909  0  -0.007644  0.072958  0  3.995213  0
C  C68  1  0.27067779  0.50428924  0.14767344  1  1.588884  0  0.212229  0.599405  0  4.1978  0
C  C69  1  0.77068192  0.99571685  0.85232364  1  1.589304  0  0.212159  0.599323  0  4.197965  0
C  C70  1  0.72934433  0.49572309  0.85233401  1  1.589402  0  0.212122  0.599248  0  4.197737  0
C  C71  1  0.22932798  0.00426704  0.14766964  1  1.588771  0  0.212045  0.59908  0  4.197784  0
C  C72  1  0.73411770  0.61269255  0.12869711  1  1.551369  0  0.221051  0.613135  0  4.170834  0
C  C73  1  0.23411650  0.88730994  0.87130243  1  1.551028  0  0.221026  0.61312  0  4.170786  0
C  C74  1  0.26589045  0.38729958  0.87131423  1  1.550824  0  0.221232  0.613175  0  4.170226  0
C  C75  1  0.76587768  0.11268864  0.12868729  1  1.551131  0  0.221255  0.613143  0  4.170408  0
O  O76  1  0.27075171  0.60097521  0.09372707  1  -1.143641  0  -0.320019  -0.558631  0  2.304741  0
O  O77  1  0.77074773  0.89902904  0.90627012  1  -1.144253  0  -0.320031  -0.558616  0  2.304674  0
O  O78  1  0.72926168  0.39903988  0.90627955  1  -1.143915  0  -0.320025  -0.558686  0  2.304917  0
O  O79  1  0.22926042  0.10094842  0.09372355  1  -1.144084  0  -0.320007  -0.558545  0  2.304649  0
O  O80  1  0.21279703  0.39687078  0.12980727  1  -1.147321  0  -0.320128  -0.552011  0  2.31517  0
O  O81  1  0.71280916  0.10313500  0.87019287  1  -1.147409  0  -0.320129  -0.551994  0  2.315306  0
O  O82  1  0.78720588  0.60315074  0.87019763  1  -1.147284  0  -0.32003  -0.551838  0  2.314836  0
O  O83  1  0.28721122  0.89684245  0.12980611  1  -1.146534  0  -0.320037  -0.551868  0  2.314937  0
O  O84  1  0.74754267  0.49891723  0.12273145  1  -1.146212  0  -0.300612  -0.53999  0  2.330161  0
O  O85  1  0.24754394  0.00108389  0.87727074  1  -1.146256  0  -0.300642  -0.53996  0  2.330159  0
O  O86  1  0.25245500  0.50107948  0.87728691  1  -1.145758  0  -0.300765  -0.540017  0  2.329966  0
O  O87  1  0.75244500  0.99890828  0.12271473  1  -1.145991  0  -0.300743  -0.539991  0  2.329994  0
O  O88  1  0.78589543  0.69479709  0.06445924  1  -1.163767  0  -0.332595  -0.577576  0  2.401587  0
O  O89  1  0.28588085  0.80520346  0.93554073  1  -1.163381  0  -0.332592  -0.577632  0  2.401672  0
O  O90  1  0.21412145  0.30519688  0.93555000  1  -1.163553  0  -0.332632  -0.577618  0  2.40134  0
O  O91  1  0.71412032  0.19479604  0.06445224  1  -1.163712  0  -0.332631  -0.577579  0  2.401554  0
