# generated using pymatgen
data_Cu2H6C7S(IN)2
_symmetry_space_group_name_H-M   'P 1'
_cell_length_a   6.10862624
_cell_length_b   10.93187743
_cell_length_c   11.39864802
_cell_angle_alpha   106.41605807
_cell_angle_beta   105.62855728
_cell_angle_gamma   89.93244607
_symmetry_Int_Tables_number   1
_chemical_formula_structural   Cu2H6C7S(IN)2
_chemical_formula_sum   'Cu4 H12 C14 S2 I4 N4'
_cell_volume   700.84385061
_cell_formula_units_Z   2
loop_
 _symmetry_equiv_pos_site_id
 _symmetry_equiv_pos_as_xyz
  1  'x, y, z'
loop_
 _atom_site_type_symbol
 _atom_site_label
 _atom_site_symmetry_multiplicity
 _atom_site_fract_x
 _atom_site_fract_y
 _atom_site_fract_z
 _atom_site_occupancy
 _atom_site_hle17_bader_spin_density
 _atom_site_hle17_ddec_charge
 _atom_site_hle17_ddec_spin_density
 _atom_site_hle17_ddec_sum_bond_order
 _atom_site_hle17_magmom
 _atom_site_hse06_10hf_bader_spin_density
 _atom_site_hse06_10hf_ddec_charge
 _atom_site_hse06_10hf_ddec_spin_density
 _atom_site_hse06_10hf_ddec_sum_bond_order
 _atom_site_hse06_10hf_magmom
 _atom_site_hse06_bader_spin_density
 _atom_site_hse06_ddec_charge
 _atom_site_hse06_ddec_spin_density
 _atom_site_hse06_ddec_sum_bond_order
 _atom_site_hse06_magmom
 _atom_site_pbe_bader_spin_density
 _atom_site_pbe_cm5_charge
 _atom_site_pbe_ddec_charge
 _atom_site_pbe_ddec_spin_density
 _atom_site_pbe_ddec_sum_bond_order
 _atom_site_pbe_magmom
Cu  Cu0  1  0.97243174  0.89871541  0.39469892  1  0  0.196595  0  2.281077  0  0  0.140865  0  2.744882  0  0  0.152274  0  2.691771  0  0  0.17632  0.134793  0  2.779452  0
Cu  Cu1  1  0.57824124  0.10121399  0.60518643  1  0  0.196575  0  2.282023  0  0  0.141096  0  2.745583  0  0  0.152479  0  2.692488  0  0  0.176266  0.134676  0  2.7805  0
Cu  Cu2  1  0.02756669  0.10128124  0.60529759  1  0  0.19655  0  2.281123  0  0  0.140844  0  2.744909  0  0  0.152325  0  2.691785  0  0  0.176292  0.134767  0  2.779479  0
Cu  Cu3  1  0.42176070  0.89878363  0.39481261  1  0  0.196575  0  2.281976  0  0  0.141119  0  2.745524  0  0  0.152558  0  2.692414  0  0  0.176266  0.134695  0  2.78044  0
H  H4  1  0.82191761  0.86363245  0.64263118  1  0  0.294844  0  0.920115  0  0  0.273393  0  0.993117  0  0  0.282492  0  0.98451  0  0  0.285344  0.266753  0  0.999537  0
H  H5  1  0.17808817  0.13636804  0.35736745  1  0  0.294813  0  0.920141  0  0  0.273366  0  0.99316  0  0  0.282471  0  0.984544  0  0  0.285321  0.266725  0  0.999589  0
H  H6  1  0.70252429  0.49631066  0.40492837  1  0  0.331942  0  0.828529  0  0  0.324196  0  0.869148  0  0  0.330767  0  0.865191  0  0  0.343859  0.318611  0  0.873637  0
H  H7  1  0.29747588  0.50368697  0.59507392  1  0  0.331968  0  0.828479  0  0  0.324208  0  0.869114  0  0  0.330779  0  0.865155  0  0  0.343857  0.318623  0  0.873602  0
H  H8  1  0.79943535  0.35736444  0.59824600  1  0  0.102135  0  0.992407  0  0  0.104578  0  1.072923  0  0  0.108431  0  1.06957  0  0  0.081479  0.101885  0  1.075073  0
H  H9  1  0.20056725  0.64263797  0.40175530  1  0  0.10218  0  0.992301  0  0  0.104619  0  1.07282  0  0  0.108482  0  1.069458  0  0  0.081511  0.101924  0  1.074963  0
H  H10  1  0.91681444  0.40358528  0.83259619  1  0  0.089448  0  0.97492  0  0  0.098613  0  1.039699  0  0  0.101453  0  1.038347  0  0  0.090285  0.09588  0  1.041945  0
H  H11  1  0.08318461  0.59641618  0.16740520  1  0  0.089472  0  0.974911  0  0  0.098635  0  1.039685  0  0  0.101474  0  1.038334  0  0  0.090309  0.095897  0  1.041926  0
H  H12  1  0.98865108  0.62842186  0.97544517  1  0  0.091481  0  0.972501  0  0  0.102669  0  1.033063  0  0  0.105471  0  1.031736  0  0  0.092506  0.100312  0  1.034544  0
H  H13  1  0.01134613  0.37157864  0.02455569  1  0  0.091466  0  0.97246  0  0  0.102637  0  1.033045  0  0  0.105438  0  1.031722  0  0  0.092512  0.100293  0  1.03452  0
H  H14  1  0.94420964  0.81271882  0.88601969  1  0  0.116356  0  0.95924  0  0  0.122456  0  1.025271  0  0  0.126523  0  1.022617  0  0  0.09489  0.118853  0  1.028736  0
H  H15  1  0.05579464  0.18728359  0.11398274  1  0  0.116432  0  0.959262  0  0  0.122494  0  1.025323  0  0  0.126562  0  1.022671  0  0  0.094901  0.118897  0  1.028793  0
C  C16  1  0.74416517  0.69467794  0.48793731  1  0  0.398081  0  3.75051  0  0  0.356977  0  4.048738  0  0  0.380891  0  4.057173  0  0  0.219078  0.340779  0  4.041895  0
C  C17  1  0.25583702  0.30532160  0.51206316  1  0  0.398121  0  3.750463  0  0  0.356994  0  4.048698  0  0  0.380914  0  4.057132  0  0  0.219064  0.340793  0  4.041861  0
C  C18  1  0.80589417  0.55991884  0.61084993  1  0  0.142522  0  3.804264  0  0  0.130834  0  4.062797  0  0  0.134729  0  4.08387  0  0  0.081966  0.128567  0  4.048146  0
C  C19  1  0.19410989  0.44008165  0.38914932  1  0  0.142601  0  3.80403  0  0  0.130917  0  4.062536  0  0  0.134813  0  4.083608  0  0  0.082014  0.128649  0  4.047886  0
C  C20  1  0.83025817  0.45583088  0.65970416  1  0  -0.160869  0  3.776138  0  0  -0.18295  0  4.040386  0  0  -0.186623  0  4.061351  0  0  -0.109379  -0.180052  0  4.025175  0
C  C21  1  0.16974066  0.54416865  0.34029405  1  0  -0.160913  0  3.776069  0  0  -0.182994  0  4.04031  0  0  -0.186672  0  4.061267  0  0  -0.109385  -0.180089  0  4.025086  0
C  C22  1  0.89662683  0.48347478  0.79216802  1  0  -0.062577  0  3.774329  0  0  -0.077327  0  4.02428  0  0  -0.07874  0  4.045891  0  0  -0.098389  -0.07616  0  4.009458  0
C  C23  1  0.10337052  0.51652668  0.20783312  1  0  -0.062606  0  3.774373  0  0  -0.077362  0  4.024333  0  0  -0.078776  0  4.045946  0  0  -0.098423  -0.076195  0  4.009504  0
C  C24  1  0.93700028  0.61000357  0.87240161  1  0  -0.065781  0  3.768433  0  0  -0.080049  0  4.013363  0  0  -0.081547  0  4.033983  0  0  -0.096236  -0.078431  0  3.998963  0
C  C25  1  0.06300231  0.38999884  0.12760057  1  0  -0.065705  0  3.768329  0  0  -0.079955  0  4.013253  0  0  -0.081455  0  4.033875  0  0  -0.096234  -0.07835  0  3.998853  0
C  C26  1  0.91294028  0.71461448  0.82384202  1  0  -0.143205  0  3.737124  0  0  -0.163277  0  3.987575  0  0  -0.164729  0  4.004753  0  0  -0.097416  -0.163025  0  3.977774  0
C  C27  1  0.08705889  0.28538793  0.17616052  1  0  -0.143382  0  3.737137  0  0  -0.163421  0  3.987582  0  0  -0.164875  0  4.004759  0  0  -0.097459  -0.163171  0  3.977796  0
C  C28  1  0.84649633  0.68718575  0.69163398  1  0  0.159126  0  3.787271  0  0  0.149436  0  4.034741  0  0  0.153247  0  4.056409  0  0  0.088821  0.14629  0  4.021485  0
C  C29  1  0.15350600  0.31281475  0.30836677  1  0  0.159174  0  3.7872  0  0  0.149485  0  4.034632  0  0  0.153301  0  4.056302  0  0  0.088837  0.146342  0  4.021387  0
S  S30  1  0.67782822  0.74599952  0.35587718  1  0  -0.310203  0  2.593756  0  0  -0.290121  0  3.026433  0  0  -0.300471  0  3.001676  0  0  -0.218829  -0.282478  0  3.041645  0
S  S31  1  0.32217186  0.25399715  0.64412221  1  0  -0.310234  0  2.593741  0  0  -0.290146  0  3.026416  0  0  -0.300505  0  3.001663  0  0  -0.218846  -0.282499  0  3.04163  0
I  I32  1  0.09567962  0.89481989  0.19259395  1  0  -0.364271  0  1.445601  0  0  -0.307866  0  1.790983  0  0  -0.327398  0  1.759235  0  0  -0.207791  -0.293757  0  1.814752  0
I  I33  1  0.90431763  0.10518060  0.80740515  1  0  -0.364256  0  1.445605  0  0  -0.307855  0  1.790975  0  0  -0.327391  0  1.75923  0  0  -0.207784  -0.293746  0  1.814745  0
I  I34  1  0.29885191  0.89541935  0.59701691  1  0  -0.265886  0  2.010097  0  0  -0.221213  0  2.466098  0  0  -0.232643  0  2.420923  0  0  -0.14117  -0.213528  0  2.497785  0
I  I35  1  0.70114677  0.10457923  0.40298190  1  0  -0.265897  0  2.010069  0  0  -0.22124  0  2.466101  0  0  -0.23267  0  2.420925  0  0  -0.14119  -0.213552  0  2.497796  0
N  N36  1  0.74366930  0.56933793  0.48703421  1  0  -0.374155  0  3.352658  0  0  -0.318555  0  3.5916  0  0  -0.334775  0  3.600821  0  0  -0.376131  -0.307838  0  3.585991  0
N  N37  1  0.25633103  0.43066066  0.51296749  1  0  -0.374264  0  3.352505  0  0  -0.318643  0  3.591447  0  0  -0.334858  0  3.600651  0  0  -0.376159  -0.307922  0  3.585835  0
N  N38  1  0.80669060  0.76542899  0.61230247  1  0  -0.372149  0  3.438737  0  0  -0.303758  0  3.655785  0  0  -0.321893  0  3.667328  0  0  -0.385467  -0.292134  0  3.648699  0
N  N39  1  0.19331159  0.23457055  0.38769800  1  0  -0.372102  0  3.438662  0  0  -0.303703  0  3.655661  0  0  -0.321852  0  3.667215  0  0  -0.385409  -0.29208  0  3.648583  0
