# generated using pymatgen
data_CuH16C16(SN5)2
_symmetry_space_group_name_H-M   'P 1'
_cell_length_a   8.89360516
_cell_length_b   8.85367059
_cell_length_c   13.91329830
_cell_angle_alpha   90.00000395
_cell_angle_beta   90.00010599
_cell_angle_gamma   120.14916512
_symmetry_Int_Tables_number   1
_chemical_formula_structural   CuH16C16(SN5)2
_chemical_formula_sum   'Cu2 H32 C32 S4 N20'
_cell_volume   947.34285969
_cell_formula_units_Z   2
loop_
 _symmetry_equiv_pos_site_id
 _symmetry_equiv_pos_as_xyz
  1  'x, y, z'
loop_
 _atom_site_type_symbol
 _atom_site_label
 _atom_site_symmetry_multiplicity
 _atom_site_fract_x
 _atom_site_fract_y
 _atom_site_fract_z
 _atom_site_occupancy
 _atom_site_hle17_ddec_charge
 _atom_site_hle17_ddec_spin_density
 _atom_site_hle17_ddec_sum_bond_order
 _atom_site_hle17_magmom
 _atom_site_hse06_10hf_ddec_charge
 _atom_site_hse06_10hf_ddec_spin_density
 _atom_site_hse06_10hf_ddec_sum_bond_order
 _atom_site_hse06_10hf_magmom
 _atom_site_hse06_ddec_charge
 _atom_site_hse06_ddec_spin_density
 _atom_site_hse06_ddec_sum_bond_order
 _atom_site_hse06_magmom
 _atom_site_pbe_cm5_charge
 _atom_site_pbe_ddec_charge
 _atom_site_pbe_ddec_spin_density
 _atom_site_pbe_ddec_sum_bond_order
 _atom_site_pbe_magmom
Cu  Cu0  1  0.00000065  0.00000131  0.00000216  1  0.79947  0.718029  1.944101  0.549  0.759653  0.791916  2.327277  0.649  0.834417  0.848718  2.275448  0.723  0.782009  0.714341  0.752165  2.362444  0.6
Cu  Cu1  1  0.50000132  0.00000179  0.49999892  1  0.799447  0.718045  1.944267  0.549  0.759562  0.791942  2.327547  0.649  0.834369  0.848727  2.275598  0.723  0.781977  0.714246  0.752171  2.362663  0.6
H  H2  1  0.40190571  0.52320253  0.14221311  1  0.120729  0.000523  0.985825  0.001  0.126777  0.00044  1.053408  0.001  0.128576  0.000325  1.053049  0.0  0.118905  0.125411  0.000535  1.05379  0.001
H  H3  1  0.09809578  0.47679533  0.64221299  1  0.120759  0.000524  0.985741  0.001  0.126775  0.00044  1.053352  0.001  0.128574  0.000326  1.052993  0.0  0.118901  0.125411  0.000535  1.053734  0.001
H  H4  1  0.62130581  0.52320592  0.35778973  1  0.120751  0.000523  0.985767  0.001  0.126805  0.00044  1.053325  0.001  0.128604  0.000325  1.052965  0.0  0.11891  0.125441  0.000535  1.053708  0.001
H  H5  1  0.87869880  0.47679360  0.85779139  1  0.120782  0.000524  0.985779  0.001  0.126805  0.00044  1.053374  0.001  0.128604  0.000325  1.053015  0.0  0.118912  0.12544  0.000535  1.053756  0.001
H  H6  1  0.59809588  0.47679551  0.85778978  1  0.120787  0.000525  0.985745  0.001  0.126808  0.00044  1.053352  0.001  0.128606  0.000325  1.052993  0.0  0.118914  0.125441  0.000535  1.053732  0.001
H  H7  1  0.90190375  0.52320532  0.35779206  1  0.120794  0.000522  0.9858  0.001  0.126847  0.00044  1.053369  0.001  0.128646  0.000326  1.05301  0.0  0.118921  0.125482  0.000535  1.053751  0.001
H  H8  1  0.37869710  0.47679473  0.64221100  1  0.120822  0.000522  0.985687  0.001  0.126799  0.00044  1.053352  0.001  0.128597  0.000325  1.052993  0.0  0.118915  0.125434  0.000535  1.053732  0.001
H  H9  1  0.12130280  0.52320444  0.14221223  1  0.120747  0.000523  0.9858  0.001  0.126792  0.00044  1.053374  0.001  0.128591  0.000326  1.053013  0.0  0.118898  0.125426  0.000535  1.053756  0.001
H  H10  1  0.68576212  0.60180983  0.02666124  1  0.104427  0.000132  0.975011  0.0  0.113164  0.000289  1.036143  0.001  0.114707  0.000198  1.035643  0.001  0.11535  0.111935  0.000367  1.036751  0.001
H  H11  1  0.81423735  0.39819030  0.52666426  1  0.104439  0.00013  0.975018  0.0  0.11317  0.000288  1.036142  0.001  0.114714  0.000199  1.035642  0.001  0.115347  0.111944  0.000367  1.036751  0.001
H  H12  1  0.41605349  0.60181485  0.47333806  1  0.104456  0.000132  0.975041  0.0  0.113151  0.000289  1.036214  0.001  0.114695  0.000198  1.035714  0.001  0.115347  0.111924  0.000367  1.036821  0.001
H  H13  1  0.08395154  0.39818371  0.97333863  1  0.104497  0.00013  0.974982  0.0  0.113226  0.000288  1.036113  0.001  0.114769  0.000198  1.035614  0.001  0.115363  0.111997  0.000367  1.036722  0.001
H  H14  1  0.31423723  0.39818821  0.97333877  1  0.104454  0.00013  0.975011  0.0  0.113184  0.000288  1.03615  0.001  0.114727  0.000198  1.03565  0.001  0.115361  0.111954  0.000366  1.036758  0.001
H  H15  1  0.18576562  0.60181950  0.47334223  1  0.104462  0.000132  0.974999  0.0  0.113235  0.000288  1.036079  0.001  0.114779  0.000198  1.035578  0.001  0.115363  0.112005  0.000366  1.03669  0.001
H  H16  1  0.58395090  0.39819103  0.52666268  1  0.104487  0.000132  0.975016  0.0  0.113185  0.000288  1.036175  0.001  0.114729  0.000199  1.035676  0.001  0.115352  0.111957  0.000367  1.036786  0.001
H  H17  1  0.91605248  0.60181694  0.02666282  1  0.104448  0.00013  0.975027  0.0  0.113186  0.000288  1.036155  0.001  0.11473  0.000198  1.035654  0.001  0.115359  0.111958  0.000366  1.036762  0.001
H  H18  1  0.74252515  0.07335530  0.13608536  1  0.100428  8e-06  0.972928  0.0  0.101748  5.7e-05  1.049953  0.0  0.103939  1.9e-05  1.04737  0.0  0.124295  0.100007  8.8e-05  1.051882  0.0
H  H19  1  0.75747521  0.92664376  0.63607969  1  0.100404  7e-06  0.972916  0.0  0.101732  5.7e-05  1.049936  0.0  0.10392  1.9e-05  1.047362  0.0  0.12428  0.099992  8.8e-05  1.051864  0.0
H  H20  1  0.83083204  0.07335838  0.36391637  1  0.100424  1.1e-05  0.972909  0.0  0.101739  5.7e-05  1.049947  0.0  0.103931  1.9e-05  1.04736  0.0  0.124273  0.099997  8.8e-05  1.051876  0.0
H  H21  1  0.66916585  0.92664117  0.86391778  1  0.100408  8e-06  0.972983  0.0  0.101732  5.7e-05  1.050001  0.0  0.103919  1.9e-05  1.047422  0.0  0.124291  0.099989  8.8e-05  1.051928  0.0
H  H22  1  0.25747195  0.92664274  0.86391609  1  0.100442  1e-05  0.972943  0.0  0.101771  5.7e-05  1.04996  0.0  0.103963  1.9e-05  1.047377  0.0  0.124298  0.100029  8.8e-05  1.051894  0.0
H  H23  1  0.24252675  0.07335951  0.36391601  1  0.100447  9e-06  0.972921  0.0  0.101769  5.7e-05  1.049942  0.0  0.103958  1.9e-05  1.04736  0.0  0.124296  0.100027  8.8e-05  1.051872  0.0
H  H24  1  0.16917040  0.92664358  0.63608006  1  0.100404  9e-06  0.972918  0.0  0.101728  5.7e-05  1.049945  0.0  0.103919  1.9e-05  1.047366  0.0  0.124278  0.099989  8.8e-05  1.051874  0.0
H  H25  1  0.33083303  0.07335818  0.13608655  1  0.100457  8e-06  0.972984  0.0  0.10178  5.7e-05  1.050002  0.0  0.103971  1.9e-05  1.047416  0.0  0.124285  0.100039  8.8e-05  1.051932  0.0
H  H26  1  0.36228171  0.72456197  0.26974360  1  0.092949  0.000289  0.931567  0.001  0.097285  0.000184  1.005018  0.0  0.098299  0.000101  1.004638  0.0  0.125817  0.09645  0.000262  1.00541  0.0
H  H27  1  0.13771719  0.27543224  0.76974064  1  0.092878  0.000292  0.931459  0.001  0.097302  0.000184  1.004848  0.0  0.098317  0.000101  1.004468  0.0  0.125823  0.096454  0.000262  1.005284  0.0
H  H28  1  0.86228132  0.72456188  0.23025865  1  0.092821  0.000289  0.931562  0.001  0.097235  0.000184  1.004973  0.0  0.098249  0.000101  1.004593  0.0  0.125811  0.096395  0.000262  1.005376  0.0
H  H29  1  0.63772006  0.27543869  0.73025929  1  0.092843  0.00029  0.931546  0.001  0.097252  0.000184  1.00497  0.0  0.098266  0.000101  1.004589  0.0  0.125823  0.096412  0.000262  1.005373  0.0
H  H30  1  0.47761086  0.95521776  0.24698271  1  0.095428  -0.000217  0.945076  0.0  0.103043  -8e-05  1.013451  0.0  0.102718  -8.9e-05  1.014534  0.0  0.130161  0.103032  -6.9e-05  1.012961  0.0
H  H31  1  0.02239020  0.04477641  0.74697890  1  0.095429  -0.000213  0.944974  0.0  0.103087  -8e-05  1.013386  0.0  0.102763  -8.9e-05  1.014469  0.0  0.1302  0.103079  -6.9e-05  1.01289  0.0
H  H32  1  0.97760962  0.95522033  0.25301897  1  0.095407  -0.000219  0.945028  0.0  0.103037  -8e-05  1.013445  0.0  0.102712  -8.9e-05  1.014529  0.0  0.130167  0.103029  -6.9e-05  1.012946  0.0
H  H33  1  0.52239074  0.04478029  0.75301874  1  0.095402  -0.000214  0.945042  0.0  0.103027  -8e-05  1.013473  0.0  0.102701  -8.9e-05  1.014558  0.0  0.130166  0.103018  -6.9e-05  1.012977  0.0
C  C34  1  0.51390447  0.64737660  0.12264198  1  -0.062246  0.004963  3.659528  0.005  -0.104301  0.002457  3.92133  0.003  -0.102728  0.002098  3.940081  0.002  -0.001448  -0.105292  0.002807  3.908734  0.003
C  C35  1  0.98609472  0.35262243  0.62264016  1  -0.062245  0.004944  3.659403  0.005  -0.104259  0.002457  3.921205  0.003  -0.102685  0.002097  3.939952  0.002  -0.001398  -0.105245  0.002807  3.908606  0.003
C  C36  1  0.63347613  0.64738109  0.37736310  1  -0.062177  0.004958  3.659392  0.005  -0.104222  0.002456  3.921183  0.003  -0.102647  0.002097  3.939931  0.002  -0.001404  -0.105211  0.002807  3.908591  0.003
C  C37  1  0.86652536  0.35262109  0.87736186  1  -0.062287  0.004943  3.659285  0.005  -0.104298  0.002457  3.921087  0.003  -0.102725  0.002097  3.939838  0.002  -0.001428  -0.105286  0.002807  3.90849  0.003
C  C38  1  0.48609281  0.35262405  0.87736092  1  -0.062251  0.004937  3.659439  0.005  -0.104296  0.002457  3.92124  0.003  -0.102722  0.002097  3.93999  0.002  -0.001409  -0.105282  0.002807  3.908637  0.003
C  C39  1  0.01390677  0.64738214  0.37736489  1  -0.062325  0.004963  3.659404  0.005  -0.104395  0.002456  3.921233  0.003  -0.10282  0.002097  3.939981  0.002  -0.001419  -0.105379  0.002807  3.908641  0.003
C  C40  1  0.36652423  0.35262348  0.62263835  1  -0.062278  0.00497  3.659441  0.005  -0.104276  0.002457  3.921238  0.003  -0.1027  0.002097  3.939987  0.002  -0.001434  -0.105261  0.002807  3.908638  0.003
C  C41  1  0.13347530  0.64737956  0.12264175  1  -0.062268  0.004946  3.659525  0.005  -0.104318  0.002456  3.921328  0.003  -0.102743  0.002097  3.940078  0.002  -0.001418  -0.105304  0.002807  3.908731  0.003
C  C42  1  0.65674514  0.68782381  0.06737911  1  0.006434  -0.00154  3.739047  0.0  -0.022977  0.000149  4.00728  0.001  -0.019814  -0.000951  4.02755  0.0  -0.001629  -0.024977  0.00095  3.993817  0.001
C  C43  1  0.84325271  0.31217510  0.56737928  1  0.006434  -0.001514  3.739053  0.0  -0.02299  0.000149  4.007279  0.001  -0.019819  -0.000953  4.027554  0.0  -0.001652  -0.024995  0.000949  3.993824  0.001
C  C44  1  0.53107983  0.68782780  0.43262169  1  0.006403  -0.001529  3.738977  0.0  -0.022986  0.000148  4.007211  0.001  -0.019822  -0.000951  4.027483  0.0  -0.001658  -0.02499  0.000949  3.993758  0.001
C  C45  1  0.96892039  0.31216928  0.93262272  1  0.006311  -0.001511  3.738843  0.0  -0.023098  0.000149  4.007075  0.001  -0.019933  -0.000951  4.027347  0.0  -0.001677  -0.025097  0.000949  3.993615  0.001
C  C46  1  0.34325018  0.31217293  0.93262163  1  0.00642  -0.001503  3.738944  0.0  -0.022992  0.000148  4.007173  0.001  -0.019827  -0.000951  4.027441  0.0  -0.001685  -0.024992  0.000949  3.993709  0.001
C  C47  1  0.15675103  0.68782947  0.43262362  1  0.006431  -0.001534  3.738789  0.0  -0.023002  0.000149  4.007003  0.001  -0.019839  -0.000952  4.027273  0.0  -0.001673  -0.025004  0.000949  3.99355  0.001
C  C48  1  0.46892166  0.31217677  0.56737833  1  0.006381  -0.001544  3.739162  0.0  -0.023017  0.000148  4.007375  0.001  -0.019846  -0.000951  4.027651  0.0  -0.001651  -0.02502  0.00095  3.99392  0.001
C  C49  1  0.03107831  0.68782746  0.06738089  1  0.006437  -0.001513  3.738984  0.0  -0.022983  0.00015  4.007221  0.001  -0.019819  -0.000952  4.02749  0.0  -0.001641  -0.024983  0.000949  3.993759  0.001
C  C50  1  0.69260771  0.93547277  0.12158626  1  0.164669  -0.010824  3.614081  -0.006  0.10609  -0.003265  3.886905  -0.001  0.121821  -0.004693  3.899225  -0.002  0.13962  0.095976  -0.00228  3.878562  0.0
C  C51  1  0.80739485  0.06452626  0.62158279  1  0.164782  -0.010806  3.614111  -0.006  0.106174  -0.003266  3.886907  -0.001  0.121911  -0.004693  3.899231  -0.002  0.139686  0.096062  -0.00228  3.878567  0.0
C  C52  1  0.74286929  0.93547578  0.37841468  1  0.164673  -0.010845  3.614057  -0.006  0.106081  -0.003264  3.886865  -0.001  0.121813  -0.004691  3.899187  -0.002  0.139628  0.095969  -0.00228  3.878526  0.0
C  C53  1  0.75712847  0.06452118  0.87841690  1  0.164684  -0.010811  3.614037  -0.006  0.106116  -0.003267  3.886833  -0.001  0.121852  -0.00469  3.899154  -0.002  0.139661  0.096005  -0.00228  3.878489  0.0
C  C54  1  0.30739098  0.06452397  0.87841447  1  0.164726  -0.010836  3.614243  -0.006  0.106113  -0.003265  3.887048  -0.001  0.121845  -0.004691  3.899372  -0.002  0.139666  0.096001  -0.002279  3.878711  0.0
C  C55  1  0.19260889  0.93547831  0.37841507  1  0.164677  -0.010827  3.614265  -0.006  0.106092  -0.003266  3.887056  -0.001  0.121825  -0.004691  3.899378  -0.002  0.139666  0.095981  -0.00228  3.878719  0.0
C  C56  1  0.25713249  0.06452487  0.62158246  1  0.164794  -0.01084  3.614099  -0.006  0.106171  -0.003264  3.886909  -0.001  0.121908  -0.004695  3.899238  -0.002  0.139667  0.096058  -0.00228  3.878573  0.0
C  C57  1  0.24286751  0.93547686  0.12158671  1  0.164616  -0.010813  3.614397  -0.006  0.106028  -0.003265  3.887193  -0.001  0.121762  -0.004691  3.899515  -0.002  0.139653  0.095917  -0.002279  3.878854  0.0
C  C58  1  0.41279547  0.82559048  0.21376913  1  0.095168  0.00158  3.598504  0.002  0.025563  0.001234  3.831255  0.002  0.035129  0.000896  3.840412  0.001  0.060683  0.019226  0.001546  3.825244  0.002
C  C59  1  0.08720340  0.17440622  0.71376467  1  0.09536  0.001566  3.598068  0.002  0.025501  0.001235  3.831175  0.002  0.03506  0.000896  3.84034  0.001  0.060634  0.019146  0.001546  3.825163  0.002
C  C60  1  0.91279932  0.82559182  0.28623319  1  0.09539  0.001583  3.598372  0.002  0.025607  0.001234  3.831355  0.002  0.035171  0.000897  3.840514  0.001  0.060654  0.019259  0.001546  3.825341  0.002
C  C61  1  0.58720050  0.17440756  0.78623449  1  0.095378  0.001572  3.598272  0.002  0.025584  0.001233  3.831277  0.002  0.035151  0.000897  3.840434  0.001  0.060668  0.019236  0.001546  3.825265  0.002
C  C62  1  0.13316347  0.26632632  0.20785446  1  0.242362  -0.001929  4.110956  -0.001  0.239461  -0.000985  4.415438  -0.001  0.261187  -0.00095  4.426217  -0.001  0.109105  0.225045  -0.001  4.407551  -0.001
C  C63  1  0.36684452  0.73368866  0.70785252  1  0.242371  -0.001967  4.111183  -0.002  0.239486  -0.000984  4.415614  -0.001  0.261216  -0.000953  4.426392  -0.001  0.109119  0.225067  -0.001001  4.407732  -0.001
C  C64  1  0.63315856  0.26631460  0.29214175  1  0.242281  -0.001962  4.110968  -0.002  0.239375  -0.000984  4.415474  -0.001  0.261105  -0.000954  4.426255  -0.001  0.109024  0.224956  -0.001001  4.407591  -0.001
C  C65  1  0.86683233  0.73366911  0.79212830  1  0.242156  -0.001956  4.110472  -0.002  0.239248  -0.000983  4.414992  -0.001  0.260971  -0.00095  4.425777  -0.001  0.108963  0.224837  -0.001  4.407091  -0.001
S  S66  1  0.16180082  0.32360343  0.32054236  1  -0.400988  0.002427  2.005276  0.003  -0.377659  -0.000308  2.289352  0.0  -0.390845  -0.000375  2.284917  0.0  -0.193646  -0.367952  -8.2e-05  2.292006  0.0
S  S67  1  0.33820227  0.67640787  0.82053821  1  -0.400989  0.002428  2.005351  0.003  -0.377668  -0.000309  2.289391  0.0  -0.390847  -0.000376  2.28494  0.0  -0.193649  -0.367955  -8.3e-05  2.292046  0.0
S  S68  1  0.66180063  0.32359279  0.17945965  1  -0.400827  0.002426  2.005524  0.003  -0.377502  -0.000311  2.289597  0.0  -0.390685  -0.000376  2.285163  0.0  -0.193561  -0.367794  -8.3e-05  2.292249  0.0
S  S69  1  0.83819497  0.67639199  0.67944760  1  -0.400899  0.002426  2.005333  0.003  -0.377574  -0.000308  2.28943  0.0  -0.390761  -0.000375  2.285  0.0  -0.193649  -0.36787  -8.3e-05  2.292079  0.0
N  N70  1  0.76738211  0.86651358  0.06830491  1  -0.3354  0.075163  3.325789  0.1  -0.293006  0.051862  3.631187  0.073  -0.323369  0.041555  3.653981  0.062  -0.363313  -0.273922  0.058646  3.616581  0.079
N  N71  1  0.73261509  0.13348403  0.56830278  1  -0.335519  0.075156  3.325682  0.1  -0.293049  0.05186  3.631041  0.073  -0.323439  0.041555  3.653835  0.062  -0.363314  -0.27396  0.058645  3.616426  0.079
N  N72  1  0.59913577  0.86652007  0.43169600  1  -0.335392  0.075167  3.325737  0.1  -0.292947  0.051859  3.631088  0.073  -0.323319  0.041555  3.653878  0.062  -0.363282  -0.273857  0.058644  3.616471  0.079
N  N73  1  0.90086510  0.13347831  0.93169695  1  -0.335359  0.075159  3.32565  0.1  -0.292948  0.051863  3.631037  0.073  -0.323317  0.041556  3.653836  0.062  -0.363287  -0.273862  0.058646  3.616427  0.079
N  N74  1  0.23261303  0.13348055  0.93169583  1  -0.335445  0.075164  3.32571  0.1  -0.293017  0.051864  3.631093  0.073  -0.323384  0.041556  3.653887  0.062  -0.3633  -0.273931  0.058646  3.616486  0.079
N  N75  1  0.26738545  0.86652315  0.43169723  1  -0.33538  0.075165  3.32565  0.1  -0.292955  0.051861  3.631044  0.073  -0.323325  0.041555  3.653829  0.062  -0.363268  -0.273866  0.058645  3.616429  0.079
N  N76  1  0.40086928  0.13348712  0.56830258  1  -0.335485  0.07517  3.325839  0.1  -0.293009  0.051863  3.631176  0.073  -0.3234  0.041555  3.653974  0.062  -0.363285  -0.273919  0.058647  3.616561  0.079
N  N77  1  0.09913425  0.86651973  0.06830666  1  -0.335416  0.075157  3.325895  0.1  -0.293002  0.051861  3.631281  0.073  -0.32337  0.041556  3.654083  0.062  -0.363309  -0.273915  0.058644  3.616672  0.079
N  N78  1  0.53783850  0.80531373  0.15602804  1  -0.081688  0.001167  3.55818  0.002  0.006941  0.000887  3.780182  0.002  -0.008291  0.000418  3.80472  0.001  -0.243996  0.017034  0.001272  3.763406  0.002
N  N79  1  0.96216017  0.19468406  0.65602619  1  -0.081739  0.001171  3.558192  0.002  0.006941  0.000887  3.780255  0.002  -0.008285  0.000418  3.804783  0.001  -0.244074  0.017038  0.001271  3.763479  0.002
N  N80  1  0.76747719  0.80531451  0.34397139  1  -0.081827  0.00117  3.558122  0.002  0.006835  0.000888  3.780183  0.002  -0.008396  0.000417  3.804716  0.001  -0.244026  0.016931  0.001272  3.763409  0.002
N  N81  1  0.73251997  0.19468369  0.84397430  1  -0.081691  0.00117  3.557965  0.002  0.006941  0.000889  3.780036  0.002  -0.00829  0.000416  3.804571  0.001  -0.244083  0.017036  0.001272  3.76326  0.002
N  N82  1  0.46215926  0.19468562  0.84397342  1  -0.081826  0.001178  3.55839  0.002  0.006878  0.000886  3.780405  0.002  -0.008355  0.000419  3.804946  0.001  -0.244058  0.016977  0.001272  3.763627  0.002
N  N83  1  0.03784161  0.80531659  0.34397383  1  -0.081708  0.001166  3.558386  0.002  0.006951  0.000888  3.780443  0.002  -0.008279  0.000418  3.804978  0.001  -0.244084  0.017049  0.001272  3.763669  0.002
N  N84  1  0.23252459  0.19468615  0.65602647  1  -0.081807  0.001176  3.558215  0.002  0.006895  0.000884  3.780257  0.002  -0.008336  0.000423  3.804796  0.001  -0.24404  0.016996  0.001272  3.763479  0.002
N  N85  1  0.26747264  0.80531436  0.15602859  1  -0.081668  0.001169  3.55823  0.002  0.006959  0.000888  3.780244  0.002  -0.008274  0.000419  3.804784  0.001  -0.244063  0.017052  0.001272  3.763471  0.002
N  N86  1  0.11373730  0.22748064  0.12489785  1  -0.559392  -0.000361  2.760598  0.002  -0.536433  -0.001756  3.031661  0.0  -0.553424  -0.001887  3.035323  0.0  -0.398676  -0.525365  -0.001505  3.029493  0.0
N  N87  1  0.38626355  0.77252502  0.62489448  1  -0.55942  -0.000334  2.760875  0.002  -0.536444  -0.001757  3.031909  0.0  -0.553439  -0.001883  3.035556  0.0  -0.398674  -0.525379  -0.001504  3.02974  0.0
N  N88  1  0.61374001  0.22747694  0.37510841  1  -0.559463  -0.000337  2.760423  0.002  -0.536491  -0.001756  3.031506  0.0  -0.553493  -0.001883  3.035166  0.0  -0.398656  -0.525425  -0.001504  3.029337  0.0
N  N89  1  0.88625120  0.77250695  0.87508995  1  -0.559263  -0.000338  2.759879  0.002  -0.536309  -0.001757  3.030963  0.0  -0.553292  -0.001885  3.034614  0.0  -0.398551  -0.525246  -0.001505  3.028791  0.0
