# generated using pymatgen
data_CoH20C26(N2O5)2
_symmetry_space_group_name_H-M   'P 1'
_cell_length_a   7.49838168
_cell_length_b   8.70620853
_cell_length_c   9.92438682
_cell_angle_alpha   72.82140673
_cell_angle_beta   77.97528308
_cell_angle_gamma   74.94371749
_symmetry_Int_Tables_number   1
_chemical_formula_structural   CoH20C26(N2O5)2
_chemical_formula_sum   'Co1 H20 C26 N4 O10'
_cell_volume   591.62311323
_cell_formula_units_Z   1
loop_
 _symmetry_equiv_pos_site_id
 _symmetry_equiv_pos_as_xyz
  1  'x, y, z'
loop_
 _atom_site_type_symbol
 _atom_site_label
 _atom_site_symmetry_multiplicity
 _atom_site_fract_x
 _atom_site_fract_y
 _atom_site_fract_z
 _atom_site_occupancy
 _atom_site_hse06_10hf_ddec_charge
 _atom_site_hse06_10hf_ddec_spin_density
 _atom_site_hse06_10hf_ddec_sum_bond_order
 _atom_site_hse06_10hf_magmom
 _atom_site_hse06_ddec_charge
 _atom_site_hse06_ddec_spin_density
 _atom_site_hse06_ddec_sum_bond_order
 _atom_site_hse06_magmom
 _atom_site_pbe_cm5_charge
 _atom_site_pbe_ddec_charge
 _atom_site_pbe_ddec_spin_density
 _atom_site_pbe_ddec_sum_bond_order
 _atom_site_pbe_magmom
Co  Co0  1  0.50000089  0.99999679  0.50000326  1  0.781913  -1.044499  2.746364  -0.977  0.850134  -1.03652  2.670558  -0.977  0.652873  0.74579  -1.044425  2.79124  -0.969
H  H1  1  0.08503133  0.48877741  0.73988384  1  0.401554  1.2e-05  0.8208  0.0  0.41055  2e-06  0.812161  0.0  0.355362  0.395005  3.6e-05  0.827213  0.0
H  H2  1  0.91497316  0.51121753  0.26012362  1  0.401565  1.2e-05  0.820818  0.0  0.410558  2e-06  0.812182  0.0  0.35539  0.395017  3.6e-05  0.827228  0.0
H  H3  1  0.16387457  0.00940511  0.05061488  1  0.10917  7.7e-05  0.998412  0.0  0.109313  4.6e-05  0.999101  0.0  0.115209  0.109196  0.000115  0.997635  0.0
H  H4  1  0.83612010  0.99060196  0.94938180  1  0.109209  7.7e-05  0.998349  0.0  0.109352  4.6e-05  0.999035  0.0  0.115227  0.109239  0.000115  0.997578  0.0
H  H5  1  0.33510738  0.87985221  0.95536736  1  0.089057  -0.00015  1.015861  0.0  0.089141  -9.2e-05  1.016602  0.0  0.104105  0.088902  -0.000133  1.01548  0.0
H  H6  1  0.66488851  0.12014992  0.04462945  1  0.089015  -0.00015  1.015849  0.0  0.089098  -9.3e-05  1.016593  0.0  0.104075  0.088864  -0.000133  1.015459  0.0
H  H7  1  0.31327525  0.16475566  0.81318695  1  0.101415  7.5e-05  1.016188  0.0  0.103022  6.8e-05  1.014378  0.0  0.114832  0.100239  0.00012  1.017505  0.0
H  H8  1  0.68672232  0.83524520  0.18680591  1  0.10141  7.4e-05  1.016272  0.0  0.103027  6.8e-05  1.014465  0.0  0.114813  0.100232  0.00012  1.017593  0.0
H  H9  1  0.34269463  0.22833408  0.96088184  1  0.081371  -0.000255  1.000724  0.0  0.080991  -0.000177  1.001663  0.0  0.102067  0.081643  -0.000312  1.000236  0.0
H  H10  1  0.65730097  0.77166924  0.03911167  1  0.081362  -0.000255  1.000702  0.0  0.080989  -0.000177  1.00165  0.0  0.102045  0.081634  -0.000312  1.000215  0.0
H  H11  1  0.13408354  0.66187793  0.36895619  1  0.13162  4.6e-05  1.030616  0.0  0.135879  5e-05  1.028474  0.0  0.107728  0.128567  4.1e-05  1.032189  0.0
H  H12  1  0.86592217  0.33812310  0.63104340  1  0.131613  4.6e-05  1.03063  0.0  0.135864  5e-05  1.028494  0.0  0.107693  0.128559  4.1e-05  1.032206  0.0
H  H13  1  0.78735579  0.71302990  0.45613145  1  0.103659  0.000218  1.055491  0.0  0.107811  0.000194  1.050466  0.0  0.1202  0.100486  0.000247  1.059346  0.0
H  H14  1  0.21264737  0.28696491  0.54386820  1  0.103669  0.000218  1.055437  0.0  0.107813  0.000193  1.05042  0.0  0.120204  0.100503  0.000247  1.05928  0.0
H  H15  1  0.75657199  0.21212322  0.38031322  1  0.097259  0.000226  1.004588  0.0  0.099726  0.000204  1.001752  0.0  0.12409  0.095251  0.000258  1.006934  0.0
H  H16  1  0.24342572  0.78787161  0.61969031  1  0.097263  0.000226  1.004583  0.0  0.09973  0.000204  1.001747  0.0  0.124082  0.095254  0.000258  1.00693  0.0
H  H17  1  0.09214393  0.18571037  0.27234130  1  0.126157  9.7e-05  1.02779  0.0  0.130088  9.1e-05  1.025864  0.0  0.107239  0.123247  7e-05  1.029498  0.0
H  H18  1  0.90785194  0.81429184  0.72766053  1  0.126198  9.8e-05  1.027744  0.0  0.130128  9.1e-05  1.025818  0.0  0.107256  0.123289  7e-05  1.029449  0.0
H  H19  1  0.74160470  0.31013891  0.13911056  1  0.102249  0.00012  1.055756  0.0  0.10597  6.1e-05  1.05282  0.0  0.104894  0.099525  0.000187  1.05809  0.0
H  H20  1  0.25839830  0.68986206  0.86088645  1  0.102234  0.00012  1.055749  0.0  0.105953  6.1e-05  1.052814  0.0  0.104914  0.099508  0.000187  1.058084  0.0
C  C21  1  0.31271967  0.97585120  0.01217022  1  -0.077634  -0.000432  3.885051  0.0  -0.07356  -0.000238  3.896811  0.0  -0.056267  -0.080108  -0.000398  3.876368  0.0
C  C22  1  0.68727561  0.02415341  0.98782703  1  -0.077539  -0.000432  3.884857  0.0  -0.073451  -0.000239  3.896628  0.0  -0.056191  -0.08002  -0.000398  3.876183  0.0
C  C23  1  0.37915879  0.12605961  0.90965094  1  -0.065595  -0.00039  3.891079  0.0  -0.059966  -0.000201  3.899945  0.0  -0.059727  -0.069415  -0.000554  3.884803  0.0
C  C24  1  0.62083574  0.87394250  0.09034508  1  -0.065571  -0.00039  3.891113  0.0  -0.059993  -0.000201  3.900048  0.0  -0.059697  -0.069393  -0.000554  3.884841  0.0
C  C25  1  0.13877762  0.92102105  0.31000399  1  0.03379  0.00806  3.99104  0.005  0.037945  0.005006  4.007038  0.003  0.008544  0.030273  0.010123  3.980838  0.007
C  C26  1  0.86122143  0.07898483  0.68999333  1  0.033664  0.008058  3.991229  0.005  0.037807  0.005005  4.007246  0.003  0.008512  0.030151  0.010121  3.981024  0.007
C  C27  1  0.05203167  0.78665641  0.36352416  1  -0.170081  -0.000798  3.951941  -0.002  -0.177388  -0.000761  3.969034  -0.001  -0.087154  -0.165211  -0.000528  3.940968  -0.002
C  C28  1  0.94796694  0.21334576  0.63647322  1  -0.170035  -0.000797  3.951924  -0.002  -0.177331  -0.000761  3.969022  -0.001  -0.087143  -0.165157  -0.000527  3.940942  -0.002
C  C29  1  0.86200296  0.81337940  0.41348052  1  0.083539  0.006628  3.910405  0.004  0.094604  0.004654  3.923357  0.003  0.040677  0.075398  0.00754  3.903851  0.004
C  C30  1  0.13799991  0.18661662  0.58651683  1  0.083376  0.006627  3.910283  0.004  0.094445  0.004653  3.923236  0.003  0.040575  0.075204  0.007539  3.903787  0.004
C  C31  1  0.84318133  0.09429716  0.36799670  1  0.086296  0.006929  3.946382  0.004  0.096667  0.004727  3.961907  0.003  0.04397  0.079307  0.007866  3.936718  0.005
C  C32  1  0.15681652  0.90570255  0.63200246  1  0.086265  0.006927  3.946453  0.004  0.096632  0.004725  3.961984  0.003  0.043968  0.07928  0.007863  3.936788  0.005
C  C33  1  0.03052045  0.07784861  0.31073935  1  -0.159082  -0.000788  3.962717  -0.002  -0.165544  -0.000746  3.979762  -0.001  -0.084065  -0.155115  -0.000504  3.951934  -0.002
C  C34  1  0.96947619  0.92215599  0.68925668  1  -0.159062  -0.000788  3.962778  -0.002  -0.165522  -0.000745  3.979832  -0.001  -0.084051  -0.155093  -0.000504  3.951986  -0.002
C  C35  1  0.41473946  0.33739538  0.30381631  1  0.583492  0.001761  4.236885  0.001  0.619067  0.000635  4.22985  0.0  0.204606  0.559315  0.002379  4.240293  0.001
C  C36  1  0.58526338  0.66260075  0.69618807  1  0.583405  0.001762  4.236835  0.001  0.618981  0.000636  4.229805  0.0  0.204576  0.559229  0.00238  4.240241  0.001
C  C37  1  0.44826110  0.41897284  0.14562783  1  -0.015092  0.000786  3.916761  0.0  -0.016226  0.000562  3.933044  0.0  0.000883  -0.015199  0.001195  3.906718  0.001
C  C38  1  0.55173778  0.58102822  0.85437786  1  -0.015054  0.000787  3.916808  0.0  -0.01619  0.000562  3.933091  0.0  0.000846  -0.015147  0.001195  3.906738  0.001
C  C39  1  0.63293913  0.39382259  0.07918223  1  -0.126631  0.000404  3.978771  0.0  -0.126202  0.000315  3.995231  0.0  -0.079552  -0.12692  0.000591  3.968448  0.0
C  C40  1  0.36706249  0.60617845  0.92082102  1  -0.126624  0.000403  3.978831  0.0  -0.126195  0.000316  3.995295  0.0  -0.079523  -0.126918  0.000591  3.968507  0.0
C  C41  1  0.68728767  0.47215366  0.93669978  1  -0.060907  0.000357  3.967853  0.0  -0.066833  0.000221  3.987918  0.0  -0.008894  -0.057365  0.00098  3.955143  0.001
C  C42  1  0.31271562  0.52784611  0.06330053  1  -0.060911  0.000358  3.967978  0.0  -0.066837  0.000221  3.988043  0.0  -0.008925  -0.057364  0.000979  3.955273  0.001
C  C43  1  0.89007907  0.42809715  0.88552302  1  0.590086  -0.0  4.120765  0.0  0.622709  -1.4e-05  4.111732  0.0  0.234221  0.567285  0.000394  4.127512  0.0
C  C44  1  0.10992801  0.57189288  0.11448436  1  0.590133  0.0  4.12057  0.0  0.622757  -1.4e-05  4.111538  0.0  0.234306  0.567331  0.000394  4.12732  0.0
C  C45  1  0.34698520  0.89039033  0.27085592  1  0.449927  -0.00532  4.084951  -0.008  0.480864  -0.004257  4.081624  -0.007  0.253021  0.428461  -0.008103  4.086741  -0.012
C  C46  1  0.65301113  0.10961553  0.72914183  1  0.449904  -0.00532  4.084849  -0.008  0.480841  -0.004257  4.081527  -0.007  0.253055  0.428435  -0.008103  4.086637  -0.012
N  N47  1  0.75852588  0.96506329  0.41797726  1  -0.210109  0.010253  3.653291  0.007  -0.23519  0.008817  3.669301  0.006  -0.341799  -0.195762  0.010594  3.643454  0.008
N  N48  1  0.24147258  0.03493399  0.58202448  1  -0.209935  0.010254  3.653219  0.007  -0.235016  0.008818  3.669235  0.006  -0.341695  -0.195584  0.010594  3.643378  0.008
N  N49  1  0.41931071  0.91184407  0.13170242  1  -0.110927  -0.006193  3.639986  -0.01  -0.132618  -0.004709  3.661454  -0.008  -0.270753  -0.095689  -0.007283  3.624784  -0.012
N  N50  1  0.58068623  0.08815932  0.86829489  1  -0.1109  -0.006193  3.639875  -0.01  -0.132602  -0.00471  3.66133  -0.008  -0.270738  -0.095662  -0.007284  3.624675  -0.012
O  O51  1  0.45121687  0.17831192  0.33001925  1  -0.569199  0.007669  2.426903  0.007  -0.610769  0.008746  2.419818  0.008  -0.310387  -0.539938  0.006379  2.429788  0.005
O  O52  1  0.54878219  0.82168297  0.66998708  1  -0.569246  0.007668  2.426884  0.007  -0.610797  0.008746  2.419759  0.008  -0.310442  -0.539963  0.006378  2.429707  0.005
O  O53  1  0.36869336  0.42677860  0.38787219  1  -0.522568  0.001128  2.126361  0.001  -0.546166  0.001104  2.118314  0.001  -0.307793  -0.505191  0.001341  2.130529  0.001
O  O54  1  0.63131282  0.57321506  0.61213133  1  -0.522499  0.001128  2.126246  0.001  -0.546102  0.001104  2.118198  0.001  -0.307761  -0.505127  0.001341  2.130414  0.001
O  O55  1  0.99533610  0.30690791  0.94764435  1  -0.497798  -1e-05  2.1822  0.0  -0.517626  -9e-06  2.176381  0.0  -0.273429  -0.484636  0.000276  2.18647  0.0
O  O56  1  0.00466373  0.69308934  0.05235416  1  -0.497888  -1e-05  2.181725  0.0  -0.517716  -1e-05  2.175908  0.0  -0.273531  -0.484717  0.000276  2.185985  0.0
O  O57  1  0.95185932  0.53408462  0.76459981  1  -0.474318  8.6e-05  2.281843  0.0  -0.494554  3.9e-05  2.26774  0.0  -0.313142  -0.460367  0.000185  2.291733  0.0
O  O58  1  0.04814561  0.46591404  0.23540759  1  -0.474303  8.5e-05  2.282011  0.0  -0.494536  3.8e-05  2.267905  0.0  -0.313172  -0.460351  0.000185  2.291901  0.0
O  O59  1  0.44589719  0.84057970  0.36881456  1  -0.50169  -0.008343  2.297769  -0.011  -0.526782  -0.006073  2.286798  -0.008  -0.275102  -0.484126  -0.010887  2.30404  -0.014
O  O60  1  0.55409944  0.15942493  0.63118348  1  -0.501643  -0.008343  2.297665  -0.011  -0.526746  -0.006072  2.286718  -0.008  -0.27512  -0.484079  -0.010887  2.303933  -0.014
