# generated using pymatgen
data_NiH8C6N2O5
_symmetry_space_group_name_H-M   'P 1'
_cell_length_a   7.02891837
_cell_length_b   7.76855650
_cell_length_c   15.34383550
_cell_angle_alpha   98.95539897
_cell_angle_beta   90.06690937
_cell_angle_gamma   89.17313457
_symmetry_Int_Tables_number   1
_chemical_formula_structural   NiH8C6N2O5
_chemical_formula_sum   'Ni4 H32 C24 N8 O20'
_cell_volume   827.54308530
_cell_formula_units_Z   4
loop_
 _symmetry_equiv_pos_site_id
 _symmetry_equiv_pos_as_xyz
  1  'x, y, z'
loop_
 _atom_site_type_symbol
 _atom_site_label
 _atom_site_symmetry_multiplicity
 _atom_site_fract_x
 _atom_site_fract_y
 _atom_site_fract_z
 _atom_site_occupancy
 _atom_site_pbe_cm5_charge
 _atom_site_pbe_ddec_charge
 _atom_site_pbe_ddec_spin_density
 _atom_site_pbe_ddec_sum_bond_order
 _atom_site_pbe_magmom
Ni  Ni0  1  0.74446663  0.70303887  0.35478464  1  0.642638  0.73885  0.093285  2.55407  -0.012
Ni  Ni1  1  0.24167423  0.29878430  0.14607142  1  0.653318  0.794759  -1.802808  2.505279  -1.549
Ni  Ni2  1  0.25674685  0.29874295  0.64500506  1  0.653597  0.793137  -1.805375  2.500833  -1.55
Ni  Ni3  1  0.75624547  0.70122305  0.85471505  1  0.652818  0.794535  -1.804056  2.501174  -1.549
H  H4  1  0.91827145  0.81125970  0.53556492  1  0.125805  0.106248  -0.00116  1.006752  -0.002
H  H5  1  0.41941028  0.19433240  0.96226715  1  0.124496  0.10375  -0.001358  1.004944  -0.002
H  H6  1  0.07569925  0.19380005  0.46168697  1  0.123948  0.104146  -0.001164  1.00814  -0.002
H  H7  1  0.57820897  0.80669709  0.03915588  1  0.124099  0.104041  -0.001361  1.005535  -0.002
H  H8  1  0.89561991  0.35072073  0.35598983  1  0.130971  0.121538  -0.001571  1.016644  -0.002
H  H9  1  0.39904492  0.65032371  0.14483550  1  0.129801  0.120576  -0.00143  1.01505  -0.002
H  H10  1  0.09700999  0.65342237  0.64173932  1  0.129693  0.120964  -0.001405  1.016016  -0.002
H  H11  1  0.59841307  0.35025627  0.85672238  1  0.129957  0.121335  -0.001528  1.017689  -0.002
H  H12  1  0.72024265  0.07949075  0.39005464  1  0.129923  0.113231  0.000293  1.010653  0.001
H  H13  1  0.21894028  0.91750406  0.10896157  1  0.127525  0.108237  -0.001036  1.01384  -0.002
H  H14  1  0.28510280  0.91552098  0.60768931  1  0.128316  0.110178  -0.000198  1.008517  -0.001
H  H15  1  0.77917803  0.08334881  0.89111106  1  0.12805  0.109144  -0.001056  1.011667  -0.002
H  H16  1  0.48386190  0.68837550  0.51040526  1  0.125511  0.111947  3.7e-05  1.023958  0.001
H  H17  1  0.97887951  0.30840494  0.98581514  1  0.122901  0.105678  -0.001307  1.02414  -0.002
H  H18  1  0.51814331  0.30559935  0.48556930  1  0.123336  0.107977  -0.000454  1.028566  -0.001
H  H19  1  0.01941237  0.69241117  0.01403111  1  0.123147  0.106471  -0.001125  1.022347  -0.002
H  H20  1  0.18453359  0.71317489  0.34367991  1  0.105926  0.019198  3.2e-05  1.018514  0.0
H  H21  1  0.67174745  0.29153864  0.15963734  1  0.108677  0.020759  -0.000181  1.012319  -0.001
H  H22  1  0.82718621  0.29490990  0.65842451  1  0.108756  0.020493  -0.000224  1.020011  -0.001
H  H23  1  0.32805368  0.70692691  0.84194846  1  0.108439  0.019581  -0.0002  1.017882  -0.001
H  H24  1  0.85091385  0.69057654  0.16395799  1  0.109063  0.018015  -0.003177  1.020578  -0.004
H  H25  1  0.35086423  0.30106618  0.33512135  1  0.103533  0.01279  -5.1e-05  1.024087  0.0
H  H26  1  0.14898044  0.31400824  0.83754271  1  0.106676  0.01651  -0.004066  1.016018  -0.006
H  H27  1  0.64422070  0.68375349  0.66126053  1  0.106093  0.015453  -0.004186  1.013079  -0.006
H  H28  1  0.66962199  0.90023830  0.23571964  1  0.286552  0.368424  -0.000566  0.982496  -0.001
H  H29  1  0.16621237  0.09800890  0.26557382  1  0.283673  0.367563  -0.000504  0.986552  -0.001
H  H30  1  0.33798131  0.09770029  0.76583409  1  0.284055  0.368117  -0.000653  0.983017  -0.001
H  H31  1  0.83618180  0.90145377  0.73291749  1  0.28422  0.368906  -0.000693  0.981788  -0.001
H  H32  1  0.47320327  0.85401286  0.28112567  1  0.287339  0.373018  -0.000383  0.97851  0.0
H  H33  1  0.96898700  0.14195321  0.21985329  1  0.285846  0.371997  -0.000637  0.977234  -0.001
H  H34  1  0.53221359  0.14370333  0.71927476  1  0.285973  0.372526  -0.000608  0.976352  0.0
H  H35  1  0.02951157  0.85440976  0.78021645  1  0.286462  0.372739  -0.000626  0.975554  -0.001
C  C36  1  0.95247971  0.67285841  0.51890945  1  0.05682  0.03475  -0.003413  3.897171  -0.005
C  C37  1  0.45466849  0.33159293  0.97972143  1  0.056427  0.039342  0.001756  3.904962  0.0
C  C38  1  0.04092634  0.33223571  0.47869040  1  0.058736  0.042423  0.002686  3.899798  0.001
C  C39  1  0.54327032  0.66934342  0.02179279  1  0.056001  0.038372  0.001651  3.905716  -0.001
C  C40  1  0.93703339  0.41736956  0.42062311  1  0.061322  0.061646  -0.003302  3.853021  -0.004
C  C41  1  0.44058048  0.58488058  0.07962159  1  0.060877  0.060593  0.001845  3.868014  0.0
C  C42  1  0.05576603  0.58707305  0.57692295  1  0.060414  0.060375  0.002521  3.870988  0.001
C  C43  1  0.55751706  0.41596757  0.92196854  1  0.059221  0.058825  0.001624  3.867906  0.0
C  C44  1  0.62207840  0.04384003  0.43877154  1  0.058491  0.05236  -0.000832  3.878286  -0.003
C  C45  1  0.12053793  0.95333674  0.05975081  1  0.055396  0.050092  0.002367  3.897329  0.0
C  C46  1  0.38234454  0.95098524  0.55846421  1  0.056998  0.053416  0.009536  3.891399  0.007
C  C47  1  0.87759850  0.04756029  0.94030639  1  0.055917  0.050737  0.002578  3.897022  0.0
C  C48  1  0.49264538  0.82654177  0.50550870  1  0.056521  0.03925  -0.001572  3.890075  -0.004
C  C49  1  0.98814394  0.17056431  0.99206882  1  0.055119  0.045271  0.001038  3.89958  -0.001
C  C50  1  0.51082335  0.16766925  0.49156660  1  0.056174  0.044717  0.008736  3.898137  0.007
C  C51  1  0.01004631  0.83036365  0.00799472  1  0.054837  0.044136  0.001307  3.899598  -0.001
C  C52  1  0.14406127  0.84904555  0.33710412  1  0.134992  0.469783  -0.000162  4.217204  -0.001
C  C53  1  0.63120800  0.15642069  0.16533789  1  0.141139  0.474698  0.001241  4.199416  0.002
C  C54  1  0.86990428  0.15929578  0.66381332  1  0.139374  0.473554  0.001393  4.201389  0.002
C  C55  1  0.36764328  0.84186076  0.83551569  1  0.139303  0.474213  0.001333  4.202161  0.002
C  C56  1  0.91972726  0.57436654  0.18474280  1  0.147286  0.486006  0.001984  4.173643  0.001
C  C57  1  0.41464350  0.42186885  0.31847825  1  0.134313  0.477724  0.001015  4.218344  0.002
C  C58  1  0.07907197  0.43041001  0.81719560  1  0.142882  0.485234  0.001795  4.195232  0.003
C  C59  1  0.57721353  0.56845084  0.68249093  1  0.143054  0.4858  0.001593  4.19683  0.003
N  N60  1  0.89249423  0.58817060  0.44068681  1  -0.310481  -0.164665  -0.029145  3.601426  -0.04
N  N61  1  0.39579613  0.41571004  0.05850287  1  -0.309301  -0.188335  -0.035238  3.587018  -0.054
N  N62  1  0.10063324  0.41653052  0.55689522  1  -0.308772  -0.187349  -0.039954  3.581482  -0.061
N  N63  1  0.60196184  0.58524047  0.94298048  1  -0.307665  -0.186285  -0.035559  3.583277  -0.054
N  N64  1  0.61303057  0.87322553  0.44536362  1  -0.317821  -0.17677  0.060858  3.620786  0.053
N  N65  1  0.11006564  0.12344946  0.05205724  1  -0.313104  -0.19522  -0.034428  3.588087  -0.053
N  N66  1  0.39052593  0.12139008  0.55168148  1  -0.313912  -0.194648  -0.04015  3.592569  -0.061
N  N67  1  0.88810182  0.87748257  0.94801313  1  -0.313383  -0.194731  -0.035643  3.589257  -0.055
O  O68  1  0.97590442  0.90156028  0.35499459  1  -0.319939  -0.526358  0.002254  2.346216  0.002
O  O69  1  0.45994223  0.11192594  0.15025252  1  -0.314822  -0.510615  -0.043855  2.394565  -0.07
O  O70  1  0.04284857  0.11388395  0.65027804  1  -0.315803  -0.512616  -0.044478  2.392412  -0.072
O  O71  1  0.53946197  0.88673490  0.84924925  1  -0.317988  -0.515519  -0.044232  2.398402  -0.071
O  O72  1  0.27348295  0.94203164  0.31022197  1  -0.316995  -0.506663  -0.000885  2.293142  -0.001
O  O73  1  0.76077031  0.05593809  0.18759780  1  -0.311277  -0.499401  -0.005629  2.279744  -0.009
O  O74  1  0.74157807  0.05906110  0.68427291  1  -0.31202  -0.499887  -0.005552  2.279284  -0.009
O  O75  1  0.23751334  0.94186836  0.81364661  1  -0.311994  -0.49956  -0.005442  2.273715  -0.009
O  O76  1  0.87999612  0.53935795  0.26068078  1  -0.297873  -0.462922  0.044679  2.442556  0.041
O  O77  1  0.37182871  0.46558051  0.24435004  1  -0.313218  -0.497164  -0.043707  2.419567  -0.07
O  O78  1  0.12058845  0.46866015  0.74248957  1  -0.3057  -0.485722  -0.041059  2.429768  -0.066
O  O79  1  0.62188340  0.53144643  0.75732939  1  -0.306606  -0.48919  -0.040972  2.424862  -0.066
O  O80  1  0.03102666  0.48692396  0.12912430  1  -0.311486  -0.511362  -0.034886  2.385381  -0.058
O  O81  1  0.52302693  0.50413216  0.37575175  1  -0.317697  -0.528665  -0.003769  2.336457  -0.006
O  O82  1  0.96408554  0.51352786  0.87296517  1  -0.317288  -0.519857  -0.045222  2.391301  -0.073
O  O83  1  0.46275327  0.48554940  0.62759682  1  -0.315501  -0.517648  -0.044707  2.382099  -0.072
O  O84  1  0.60414790  0.80569649  0.26184554  1  -0.571895  -0.744567  -0.027067  2.309315  -0.039
O  O85  1  0.09559151  0.19144113  0.23967094  1  -0.580774  -0.764874  -0.037581  2.28603  -0.058
O  O86  1  0.40388009  0.19165733  0.73993622  1  -0.57915  -0.762129  -0.038189  2.27838  -0.058
O  O87  1  0.90214542  0.80721655  0.75993638  1  -0.580281  -0.763431  -0.037659  2.275117  -0.057
