# generated using pymatgen
data_CsH12C6ClO6
_symmetry_space_group_name_H-M   'P 1'
_cell_length_a   6.75023004
_cell_length_b   8.50682805
_cell_length_c   18.77724219
_cell_angle_alpha   89.99969361
_cell_angle_beta   89.99997667
_cell_angle_gamma   107.98940087
_symmetry_Int_Tables_number   1
_chemical_formula_structural   CsH12C6ClO6
_chemical_formula_sum   'Cs4 H48 C24 Cl4 O24'
_cell_volume   1025.53493042
_cell_formula_units_Z   4
loop_
 _symmetry_equiv_pos_site_id
 _symmetry_equiv_pos_as_xyz
  1  'x, y, z'
loop_
 _atom_site_type_symbol
 _atom_site_label
 _atom_site_symmetry_multiplicity
 _atom_site_fract_x
 _atom_site_fract_y
 _atom_site_fract_z
 _atom_site_occupancy
 _atom_site_hle17_bader_spin_density
 _atom_site_hle17_ddec_charge
 _atom_site_hle17_ddec_spin_density
 _atom_site_hle17_ddec_sum_bond_order
 _atom_site_hle17_magmom
 _atom_site_hse06_10hf_bader_spin_density
 _atom_site_hse06_10hf_ddec_charge
 _atom_site_hse06_10hf_ddec_spin_density
 _atom_site_hse06_10hf_ddec_sum_bond_order
 _atom_site_hse06_10hf_magmom
 _atom_site_hse06_bader_spin_density
 _atom_site_hse06_ddec_charge
 _atom_site_hse06_ddec_spin_density
 _atom_site_hse06_ddec_sum_bond_order
 _atom_site_hse06_magmom
 _atom_site_pbe_bader_spin_density
 _atom_site_pbe_cm5_charge
 _atom_site_pbe_ddec_charge
 _atom_site_pbe_ddec_spin_density
 _atom_site_pbe_ddec_sum_bond_order
 _atom_site_pbe_magmom
Cs  Cs0  1  0.24137947  0.32875323  0.92607647  1  0  0.924395  0  0.585729  0  0  0.853682  0  0.838754  0  0  0.871252  0  0.813518  0  0  0.729784  0.840472  0  0.856975  0
Cs  Cs1  1  0.25862592  0.17124772  0.42607672  1  0  0.924389  0  0.585718  0  0  0.853694  0  0.838703  0  0  0.871253  0  0.813484  0  0  0.729787  0.840492  0  0.856929  0
Cs  Cs2  1  0.75862286  0.67124980  0.07392319  1  0  0.924421  0  0.585718  0  0  0.853716  0  0.838696  0  0  0.871272  0  0.813478  0  0  0.729788  0.840509  0  0.856915  0
Cs  Cs3  1  0.74136873  0.82874661  0.57392134  1  0  0.924393  0  0.585719  0  0  0.853692  0  0.838708  0  0  0.87125  0  0.813486  0  0  0.72977  0.840486  0  0.856931  0
H  H4  1  0.26499416  0.79741049  0.84347376  1  0  0.047007  0  0.923532  0  0  0.056679  0  0.989432  0  0  0.058302  0  0.98677  0  0  0.107843  0.055326  0  0.991644  0
H  H5  1  0.23500576  0.70259363  0.34347341  1  0  0.04696  0  0.923567  0  0  0.056651  0  0.989434  0  0  0.058262  0  0.986784  0  0  0.107818  0.055302  0  0.991645  0
H  H6  1  0.73500268  0.20259370  0.15652749  1  0  0.046932  0  0.923601  0  0  0.056624  0  0.989472  0  0  0.058227  0  0.986833  0  0  0.107806  0.055273  0  0.991684  0
H  H7  1  0.76499176  0.29740443  0.65652518  1  0  0.046925  0  0.923592  0  0  0.056613  0  0.989479  0  0  0.058216  0  0.986838  0  0  0.107816  0.055263  0  0.991687  0
H  H8  1  0.63357418  0.95856464  0.94153853  1  0  0.04998  0  0.907287  0  0  0.059782  0  0.972141  0  0  0.061093  0  0.970531  0  0  0.109351  0.058716  0  0.973477  0
H  H9  1  0.86643685  0.54144200  0.44153697  1  0  0.050035  0  0.907209  0  0  0.059785  0  0.972123  0  0  0.061092  0  0.970516  0  0  0.109346  0.058717  0  0.973459  0
H  H10  1  0.36643513  0.04143725  0.05846432  1  0  0.05001  0  0.907234  0  0  0.059768  0  0.972135  0  0  0.061076  0  0.970528  0  0  0.109343  0.058699  0  0.973473  0
H  H11  1  0.13355688  0.45854986  0.55846056  1  0  0.049979  0  0.90738  0  0  0.059737  0  0.972212  0  0  0.061042  0  0.970607  0  0  0.109342  0.058667  0  0.973548  0
H  H12  1  0.55731396  0.15307949  0.84599409  1  0  0.041475  0  0.955195  0  0  0.049736  0  1.024288  0  0  0.050481  0  1.02419  0  0  0.096703  0.049095  0  1.024571  0
H  H13  1  0.94269285  0.34692494  0.34599655  1  0  0.0415  0  0.955225  0  0  0.049775  0  1.024332  0  0  0.050524  0  1.024232  0  0  0.096688  0.049135  0  1.024614  0
H  H14  1  0.44269123  0.84692727  0.15400503  1  0  0.041439  0  0.955207  0  0  0.049727  0  1.024303  0  0  0.050474  0  1.024204  0  0  0.096685  0.049086  0  1.024586  0
H  H15  1  0.05730615  0.65307313  0.65400097  1  0  0.041348  0  0.955092  0  0  0.049661  0  1.024211  0  0  0.050408  0  1.024108  0  0  0.09666  0.04902  0  1.024493  0
H  H16  1  0.65654705  0.09232249  0.72530924  1  0  0.046103  0  0.930111  0  0  0.052169  0  0.999654  0  0  0.054084  0  0.996852  0  0  0.10409  0.050642  0  1.001942  0
H  H17  1  0.84345792  0.40767242  0.22530677  1  0  0.046073  0  0.930046  0  0  0.052193  0  0.999546  0  0  0.054112  0  0.996739  0  0  0.104077  0.050664  0  1.001838  0
H  H18  1  0.34345344  0.90767560  0.27469201  1  0  0.045979  0  0.930083  0  0  0.052126  0  0.999577  0  0  0.054042  0  0.996779  0  0  0.104061  0.0506  0  1.001864  0
H  H19  1  0.15653685  0.59231822  0.77468969  1  0  0.04609  0  0.930085  0  0  0.052202  0  0.99961  0  0  0.054116  0  0.996815  0  0  0.104096  0.050677  0  1.001895  0
H  H20  1  0.60210638  0.69829421  0.82639948  1  0  0.062929  0  0.911055  0  0  0.073307  0  0.97196  0  0  0.074293  0  0.971087  0  0  0.11733  0.072458  0  0.972809  0
H  H21  1  0.89790014  0.80170772  0.32639194  1  0  0.062992  0  0.911  0  0  0.073358  0  0.971917  0  0  0.074344  0  0.971045  0  0  0.117321  0.072507  0  0.972769  0
H  H22  1  0.39790419  0.30171508  0.17360444  1  0  0.062923  0  0.910987  0  0  0.073281  0  0.971932  0  0  0.074267  0  0.971059  0  0  0.117307  0.07243  0  0.972784  0
H  H23  1  0.10210046  0.19828669  0.67360719  1  0  0.062891  0  0.91106  0  0  0.073263  0  0.971992  0  0  0.074249  0  0.971117  0  0  0.117296  0.072411  0  0.972843  0
H  H24  1  0.86538825  0.06344584  0.82685719  1  0  0.047674  0  0.929086  0  0  0.056677  0  0.996853  0  0  0.057169  0  0.996476  0  0  0.112116  0.056171  0  0.997375  0
H  H25  1  0.63461502  0.43654895  0.32685680  1  0  0.047721  0  0.928993  0  0  0.056656  0  0.996808  0  0  0.057146  0  0.996434  0  0  0.112087  0.056153  0  0.99733  0
H  H26  1  0.13462141  0.93656097  0.17314353  1  0  0.047718  0  0.929037  0  0  0.056666  0  0.996851  0  0  0.057157  0  0.996472  0  0  0.112106  0.056162  0  0.997374  0
H  H27  1  0.36537562  0.56344655  0.67314073  1  0  0.047715  0  0.928998  0  0  0.056628  0  0.99684  0  0  0.057119  0  0.996464  0  0  0.112084  0.056125  0  0.997361  0
H  H28  1  0.10077147  0.90010008  0.91481372  1  0  0.36724  0  0.938665  0  0  0.34259  0  1.011931  0  0  0.352905  0  0.99666  0  0  0.294486  0.335335  0  1.022558  0
H  H29  1  0.39923725  0.59990814  0.41481308  1  0  0.367268  0  0.938503  0  0  0.342536  0  1.011948  0  0  0.352881  0  0.996656  0  0  0.294494  0.335294  0  1.022451  0
H  H30  1  0.89923269  0.09990790  0.08518966  1  0  0.367337  0  0.93837  0  0  0.342563  0  1.011926  0  0  0.352912  0  0.996626  0  0  0.294475  0.335314  0  1.022433  0
H  H31  1  0.60075489  0.40008738  0.58518551  1  0  0.367364  0  0.938447  0  0  0.342627  0  1.011829  0  0  0.352974  0  0.996533  0  0  0.294538  0.335384  0  1.022381  0
H  H32  1  0.33676239  0.20287417  0.76860994  1  0  0.369906  0  0.923421  0  0  0.341822  0  1.000507  0  0  0.352455  0  0.988498  0  0  0.294486  0.334312  0  1.008987  0
H  H33  1  0.16324164  0.29712635  0.26860829  1  0  0.370131  0  0.923152  0  0  0.341969  0  1.000356  0  0  0.352602  0  0.988343  0  0  0.294535  0.334461  0  1.008831  0
H  H34  1  0.66323651  0.79712759  0.23138865  1  0  0.370064  0  0.923222  0  0  0.341878  0  1.000465  0  0  0.35251  0  0.988458  0  0  0.294526  0.334371  0  1.008941  0
H  H35  1  0.83675782  0.70287295  0.73138817  1  0  0.369988  0  0.923314  0  0  0.3419  0  1.000386  0  0  0.352529  0  0.988386  0  0  0.294507  0.33439  0  1.008865  0
H  H36  1  0.39476210  0.87991677  0.68590685  1  0  0.346754  0  0.949101  0  0  0.321306  0  1.030925  0  0  0.331157  0  1.019596  0  0  0.260114  0.314385  0  1.038813  0
H  H37  1  0.10523953  0.62008327  0.18590565  1  0  0.346687  0  0.949156  0  0  0.321248  0  1.030969  0  0  0.331098  0  1.019644  0  0  0.260106  0.314328  0  1.038858  0
H  H38  1  0.60524331  0.12008262  0.31409547  1  0  0.346674  0  0.949136  0  0  0.321231  0  1.030962  0  0  0.331082  0  1.019628  0  0  0.260091  0.314311  0  1.038851  0
H  H39  1  0.89475752  0.37991355  0.81409401  1  0  0.346727  0  0.94911  0  0  0.321282  0  1.030928  0  0  0.331132  0  1.019602  0  0  0.260106  0.314362  0  1.038816  0
H  H40  1  0.83526601  0.66265511  0.89672560  1  0  0.359659  0  0.939916  0  0  0.330272  0  1.025863  0  0  0.34034  0  1.014406  0  0  0.264763  0.323197  0  1.033868  0
H  H41  1  0.66474762  0.83735829  0.39672225  1  0  0.359589  0  0.940004  0  0  0.330254  0  1.025827  0  0  0.340324  0  1.014365  0  0  0.264749  0.323185  0  1.033821  0
H  H42  1  0.16474251  0.33735661  0.10327672  1  0  0.359676  0  0.939876  0  0  0.330297  0  1.025801  0  0  0.340366  0  1.014341  0  0  0.264777  0.323222  0  1.033806  0
H  H43  1  0.33524979  0.16264345  0.60327687  1  0  0.359638  0  0.939961  0  0  0.330253  0  1.025893  0  0  0.340322  0  1.014432  0  0  0.264772  0.323177  0  1.033903  0
H  H44  1  0.05014361  0.96291966  0.76088795  1  0  0.384723  0  0.902747  0  0  0.356043  0  0.980393  0  0  0.366514  0  0.968118  0  0  0.30173  0.348599  0  0.989165  0
H  H45  1  0.44985661  0.53707692  0.26088693  1  0  0.384755  0  0.9027  0  0  0.356071  0  0.980363  0  0  0.366545  0  0.968084  0  0  0.301699  0.348627  0  0.989132  0
H  H46  1  0.94985745  0.03707598  0.23911276  1  0  0.384782  0  0.902674  0  0  0.356094  0  0.980343  0  0  0.366569  0  0.968061  0  0  0.301706  0.348651  0  0.989114  0
H  H47  1  0.55013644  0.46292107  0.73911060  1  0  0.384764  0  0.902691  0  0  0.356085  0  0.980342  0  0  0.366558  0  0.968067  0  0  0.3017  0.348641  0  0.989112  0
H  H48  1  0.36204236  0.73117157  0.98585897  1  0  0.366857  0  0.889941  0  0  0.343241  0  0.966658  0  0  0.353217  0  0.954271  0  0  0.291025  0.336098  0  0.975568  0
H  H49  1  0.13795066  0.76883062  0.48585473  1  0  0.36676  0  0.89015  0  0  0.343121  0  0.966907  0  0  0.353103  0  0.954517  0  0  0.291003  0.33598  0  0.975812  0
H  H50  1  0.63797234  0.26883285  0.01414069  1  0  0.367014  0  0.889884  0  0  0.343375  0  0.966585  0  0  0.353363  0  0.954191  0  0  0.291077  0.336237  0  0.975482  0
H  H51  1  0.86204159  0.23116122  0.51414226  1  0  0.366806  0  0.890073  0  0  0.34318  0  0.966795  0  0  0.353163  0  0.954405  0  0  0.291036  0.336039  0  0.975702  0
C  C52  1  0.36756002  0.90550451  0.87191497  1  0  0.142241  0  3.626687  0  0  0.114078  0  3.885075  0  0  0.119107  0  3.893993  0  0  -0.015622  0.110629  0  3.879055  0
C  C53  1  0.13244314  0.59450051  0.37191329  1  0  0.142274  0  3.626787  0  0  0.114139  0  3.885127  0  0  0.119183  0  3.894039  0  0  -0.015602  0.110684  0  3.879118  0
C  C54  1  0.63244517  0.09450225  0.12808735  1  0  0.142252  0  3.626697  0  0  0.114101  0  3.885079  0  0  0.11915  0  3.893986  0  0  -0.015601  0.110647  0  3.879068  0
C  C55  1  0.86755049  0.40549504  0.62808317  1  0  0.142379  0  3.626767  0  0  0.114182  0  3.885113  0  0  0.119229  0  3.894022  0  0  -0.015509  0.11073  0  3.879099  0
C  C56  1  0.54227770  0.85512919  0.90755497  1  0  0.145528  0  3.618203  0  0  0.115689  0  3.878366  0  0  0.120448  0  3.887821  0  0  -0.012753  0.112386  0  3.872012  0
C  C57  1  0.95772875  0.64487291  0.40755154  1  0  0.145513  0  3.618094  0  0  0.115701  0  3.878257  0  0  0.120466  0  3.887694  0  0  -0.012685  0.112398  0  3.8719  0
C  C58  1  0.45772360  0.14487506  0.09244681  1  0  0.14557  0  3.618092  0  0  0.115766  0  3.878252  0  0  0.120531  0  3.88769  0  0  -0.012704  0.112465  0  3.871896  0
C  C59  1  0.04227036  0.35512148  0.59244545  1  0  0.145341  0  3.618449  0  0  0.115699  0  3.878339  0  0  0.120469  0  3.887764  0  0  -0.012774  0.112399  0  3.871983  0
C  C60  1  0.45679229  0.04324821  0.81780532  1  0  0.125355  0  3.618681  0  0  0.094469  0  3.873084  0  0  0.098861  0  3.883219  0  0  -0.021648  0.091419  0  3.86627  0
C  C61  1  0.04321531  0.45675418  0.31780542  1  0  0.125371  0  3.618963  0  0  0.0944  0  3.87351  0  0  0.098776  0  3.883677  0  0  -0.021618  0.091352  0  3.866688  0
C  C62  1  0.54321096  0.95675729  0.18219593  1  0  0.125504  0  3.618613  0  0  0.094526  0  3.873198  0  0  0.098912  0  3.883349  0  0  -0.02161  0.091477  0  3.866383  0
C  C63  1  0.95677797  0.54323644  0.68219317  1  0  0.125562  0  3.618453  0  0  0.094543  0  3.873138  0  0  0.098938  0  3.883269  0  0  -0.021636  0.091492  0  3.866319  0
C  C64  1  0.59060227  0.98893768  0.76244830  1  0  0.13273  0  3.628035  0  0  0.104652  0  3.886247  0  0  0.109611  0  3.89537  0  0  -0.014896  0.101246  0  3.880052  0
C  C65  1  0.90939975  0.51106378  0.26244840  1  0  0.132694  0  3.628098  0  0  0.104589  0  3.886342  0  0  0.109544  0  3.89548  0  0  -0.014877  0.101182  0  3.880141  0
C  C66  1  0.40940154  0.01106537  0.23755242  1  0  0.132821  0  3.627782  0  0  0.104646  0  3.886146  0  0  0.109595  0  3.895291  0  0  -0.014868  0.101238  0  3.879949  0
C  C67  1  0.09059582  0.48893302  0.73755178  1  0  0.132694  0  3.62789  0  0  0.104511  0  3.886278  0  0  0.10946  0  3.895419  0  0  -0.014944  0.101106  0  3.880077  0
C  C68  1  0.68916444  0.81245495  0.85445563  1  0  0.144344  0  3.590299  0  0  0.117047  0  3.840006  0  0  0.121747  0  3.849486  0  0  -0.005941  0.113836  0  3.833558  0
C  C69  1  0.81083457  0.68754283  0.35445105  1  0  0.144173  0  3.590551  0  0  0.116878  0  3.840247  0  0  0.121577  0  3.849727  0  0  -0.005999  0.113671  0  3.833798  0
C  C70  1  0.31083938  0.18754810  0.14554562  1  0  0.14436  0  3.590383  0  0  0.117075  0  3.840062  0  0  0.121776  0  3.84954  0  0  -0.005941  0.113865  0  3.833612  0
C  C71  1  0.18915378  0.31244650  0.64554807  1  0  0.144388  0  3.59045  0  0  0.117031  0  3.840101  0  0  0.121735  0  3.849576  0  0  -0.005934  0.11382  0  3.833652  0
C  C72  1  0.77143508  0.95022601  0.79971792  1  0  0.149019  0  3.590802  0  0  0.117978  0  3.845679  0  0  0.122642  0  3.855768  0  0  -0.003423  0.114818  0  3.838732  0
C  C73  1  0.72856922  0.54977377  0.29971422  1  0  0.14885  0  3.591098  0  0  0.117923  0  3.845874  0  0  0.122591  0  3.855969  0  0  -0.003409  0.114761  0  3.838929  0
C  C74  1  0.22856966  0.04977951  0.20028546  1  0  0.148872  0  3.590914  0  0  0.117917  0  3.845765  0  0  0.122586  0  3.855856  0  0  -0.003417  0.114758  0  3.838814  0
C  C75  1  0.27142394  0.45022054  0.70028384  1  0  0.148876  0  3.590991  0  0  0.118012  0  3.845755  0  0  0.122676  0  3.85586  0  0  -0.00334  0.114852  0  3.838803  0
Cl  Cl76  1  0.78361511  0.42019134  0.91243055  1  0  -0.705141  0  0.831386  0  0  -0.647039  0  1.06066  0  0  -0.662492  0  1.040462  0  0  -0.361888  -0.635623  0  1.074924  0
Cl  Cl77  1  0.71639172  0.07981346  0.41243051  1  0  -0.705081  0  0.831411  0  0  -0.647006  0  1.060654  0  0  -0.662456  0  1.040449  0  0  -0.361876  -0.635587  0  1.074918  0
Cl  Cl78  1  0.21638551  0.57981905  0.08756910  1  0  -0.705116  0  0.831373  0  0  -0.647009  0  1.060632  0  0  -0.662463  0  1.040425  0  0  -0.361882  -0.635589  0  1.074901  0
Cl  Cl79  1  0.28360945  0.92017849  0.58756968  1  0  -0.705106  0  0.83136  0  0  -0.646976  0  1.060612  0  0  -0.662426  0  1.040406  0  0  -0.361889  -0.635555  0  1.074881  0
O  O80  1  0.25017524  0.95408666  0.92654168  1  0  -0.602903  0  2.03974  0  0  -0.558059  0  2.263991  0  0  -0.573863  0  2.2493  0  0  -0.459848  -0.546719  0  2.273939  0
O  O81  1  0.24983787  0.54592146  0.42653905  1  0  -0.60295  0  2.039498  0  0  -0.558015  0  2.26393  0  0  -0.573853  0  2.249155  0  0  -0.459872  -0.546673  0  2.273793  0
O  O82  1  0.74983569  0.04592755  0.07346011  1  0  -0.603  0  2.039496  0  0  -0.55801  0  2.263908  0  0  -0.573849  0  2.249132  0  0  -0.459802  -0.546672  0  2.273765  0
O  O83  1  0.75015678  0.45407287  0.57345741  1  0  -0.603029  0  2.039573  0  0  -0.558075  0  2.263975  0  0  -0.573915  0  2.249197  0  0  -0.459884  -0.546739  0  2.273879  0
O  O84  1  0.28798473  0.08456372  0.78468806  1  0  -0.585675  0  2.134915  0  0  -0.532041  0  2.368595  0  0  -0.548551  0  2.355813  0  0  -0.418402  -0.520289  0  2.377327  0
O  O85  1  0.21201976  0.41543414  0.28468718  1  0  -0.585867  0  2.134789  0  0  -0.532212  0  2.368651  0  0  -0.548711  0  2.355861  0  0  -0.418489  -0.520486  0  2.377442  0
O  O86  1  0.71201519  0.91543682  0.21531372  1  0  -0.585843  0  2.134747  0  0  -0.532145  0  2.368608  0  0  -0.548652  0  2.355823  0  0  -0.418484  -0.520387  0  2.377322  0
O  O87  1  0.78797741  0.58455899  0.71531141  1  0  -0.585794  0  2.134892  0  0  -0.532144  0  2.368687  0  0  -0.548649  0  2.355901  0  0  -0.418439  -0.520415  0  2.377474  0
O  O88  1  0.47220883  0.84492834  0.72461651  1  0  -0.573197  0  2.081226  0  0  -0.528893  0  2.315674  0  0  -0.545437  0  2.306111  0  0  -0.434899  -0.517063  0  2.322071  0
O  O89  1  0.02779003  0.65507240  0.22461310  1  0  -0.573103  0  2.081273  0  0  -0.528789  0  2.315692  0  0  -0.545325  0  2.306121  0  0  -0.4349  -0.516956  0  2.322087  0
O  O90  1  0.52779258  0.15507223  0.27538687  1  0  -0.573138  0  2.081195  0  0  -0.528805  0  2.315653  0  0  -0.545352  0  2.306111  0  0  -0.434897  -0.516972  0  2.322049  0
O  O91  1  0.97220462  0.34492193  0.77538708  1  0  -0.57317  0  2.08109  0  0  -0.528814  0  2.31554  0  0  -0.545364  0  2.305997  0  0  -0.434889  -0.516982  0  2.321935  0
O  O92  1  0.45824684  0.71077250  0.95039105  1  0  -0.624315  0  2.143168  0  0  -0.579163  0  2.379571  0  0  -0.595561  0  2.369056  0  0  -0.512897  -0.567385  0  2.386731  0
O  O93  1  0.04174755  0.78922524  0.45038730  1  0  -0.624201  0  2.143231  0  0  -0.579028  0  2.379643  0  0  -0.595435  0  2.369109  0  0  -0.512887  -0.567258  0  2.386816  0
O  O94  1  0.54176201  0.28922815  0.04960860  1  0  -0.624532  0  2.143138  0  0  -0.57934  0  2.379601  0  0  -0.595757  0  2.369045  0  0  -0.512959  -0.567557  0  2.386747  0
O  O95  1  0.95824469  0.21076660  0.54961128  1  0  -0.624193  0  2.14337  0  0  -0.579058  0  2.379701  0  0  -0.595468  0  2.369165  0  0  -0.5129  -0.567276  0  2.386845  0
O  O96  1  0.86069701  0.78417544  0.89154471  1  0  -0.583387  0  2.1437  0  0  -0.527637  0  2.366857  0  0  -0.544535  0  2.354647  0  0  -0.408218  -0.515671  0  2.375062  0
O  O97  1  0.63931230  0.71583428  0.39153794  1  0  -0.583219  0  2.143825  0  0  -0.527498  0  2.367017  0  0  -0.544403  0  2.354814  0  0  -0.408154  -0.515544  0  2.375198  0
O  O98  1  0.13931254  0.21583506  0.10845814  1  0  -0.583374  0  2.143628  0  0  -0.527621  0  2.366844  0  0  -0.544529  0  2.354642  0  0  -0.408215  -0.515659  0  2.375032  0
O  O99  1  0.36068774  0.28416257  0.60846065  1  0  -0.583276  0  2.143671  0  0  -0.527561  0  2.366949  0  0  -0.544467  0  2.354746  0  0  -0.408193  -0.515603  0  2.375144  0
O  O100  1  0.90148915  0.90551165  0.74798513  1  0  -0.579344  0  2.103336  0  0  -0.528451  0  2.336194  0  0  -0.545282  0  2.324018  0  0  -0.413393  -0.516457  0  2.344452  0
O  O101  1  0.59851766  0.59448268  0.24797920  1  0  -0.579291  0  2.103359  0  0  -0.528384  0  2.336208  0  0  -0.54522  0  2.324032  0  0  -0.41335  -0.516389  0  2.344461  0
O  O102  1  0.09851638  0.09448404  0.25201985  1  0  -0.579353  0  2.103399  0  0  -0.528437  0  2.336251  0  0  -0.54527  0  2.32407  0  0  -0.413342  -0.516448  0  2.34452  0
O  O103  1  0.40147814  0.40552273  0.75202045  1  0  -0.579267  0  2.10327  0  0  -0.528429  0  2.336128  0  0  -0.545262  0  2.32395  0  0  -0.413406  -0.516436  0  2.344382  0
