# generated using pymatgen
data_CuH21C19(NO3)2
_symmetry_space_group_name_H-M   'P 1'
_cell_length_a   9.25510940
_cell_length_b   9.87783576
_cell_length_c   12.54979484
_cell_angle_alpha   69.74617344
_cell_angle_beta   72.91834295
_cell_angle_gamma   73.63132811
_symmetry_Int_Tables_number   1
_chemical_formula_structural   CuH21C19(NO3)2
_chemical_formula_sum   'Cu2 H42 C38 N4 O12'
_cell_volume   1007.91637099
_cell_formula_units_Z   2
loop_
 _symmetry_equiv_pos_site_id
 _symmetry_equiv_pos_as_xyz
  1  'x, y, z'
loop_
 _atom_site_type_symbol
 _atom_site_label
 _atom_site_symmetry_multiplicity
 _atom_site_fract_x
 _atom_site_fract_y
 _atom_site_fract_z
 _atom_site_occupancy
 _atom_site_hle17_ddec_charge
 _atom_site_hle17_ddec_spin_density
 _atom_site_hle17_ddec_sum_bond_order
 _atom_site_hle17_magmom
 _atom_site_hse06_10hf_ddec_charge
 _atom_site_hse06_10hf_ddec_spin_density
 _atom_site_hse06_10hf_ddec_sum_bond_order
 _atom_site_hse06_10hf_magmom
 _atom_site_hse06_ddec_charge
 _atom_site_hse06_ddec_spin_density
 _atom_site_hse06_ddec_sum_bond_order
 _atom_site_hse06_magmom
 _atom_site_pbe_cm5_charge
 _atom_site_pbe_ddec_charge
 _atom_site_pbe_ddec_spin_density
 _atom_site_pbe_ddec_sum_bond_order
 _atom_site_pbe_magmom
Cu  Cu0  1  0.21313139  0.34091730  0.16449176  1  0.867471  -0.727563  1.835533  -0.506  0.842746  -0.808373  2.235409  -0.619  0.93001  -0.884071  2.165273  -0.704  0.751267  0.79085  -0.752562  2.282626  -0.563
Cu  Cu1  1  0.78687183  0.65907699  0.83551125  1  0.867486  0.727561  1.835512  0.506  0.842847  0.80837  2.235334  0.619  0.930102  0.884073  2.16526  0.704  0.751267  0.790814  0.752562  2.28269  0.563
H  H2  1  0.93253356  0.84716479  0.44837884  1  0.067292  5.5e-05  0.937074  0.0  0.08504  3.9e-05  0.998614  0.0  0.085751  2.6e-05  0.999127  0.0  0.087531  0.084402  4.7e-05  0.998334  0.0
H  H3  1  0.06746944  0.15283062  0.55162152  1  0.067292  -5.5e-05  0.937059  0.0  0.085025  -3.8e-05  0.998645  0.0  0.085738  -2.6e-05  0.999157  0.0  0.087509  0.08439  -4.7e-05  0.998365  0.0
H  H4  1  0.90185942  0.93470710  0.30632967  1  0.052794  8.3e-05  0.943372  0.0  0.070987  5.8e-05  1.00782  0.0  0.072075  4e-05  1.00741  0.0  0.083847  0.069962  7.3e-05  1.008443  0.0
H  H5  1  0.09814362  0.06529378  0.69367161  1  0.052766  -8.3e-05  0.943416  0.0  0.070988  -5.8e-05  1.007848  0.0  0.072077  -4e-05  1.007435  0.0  0.083854  0.069963  -7.3e-05  1.008476  0.0
H  H6  1  0.36358742  0.87647356  0.80423300  1  0.095816  -0.000307  0.918213  0.0  0.112319  -5.2e-05  0.966242  0.0  0.114529  -1.4e-05  0.965107  0.0  0.114774  0.110412  -8.6e-05  0.967696  0.0
H  H7  1  0.63640203  0.12352751  0.19576876  1  0.095807  0.000307  0.918163  0.0  0.112275  5.1e-05  0.966238  0.0  0.114479  1.4e-05  0.965102  0.0  0.114726  0.110373  8.5e-05  0.967686  0.0
H  H8  1  0.50435423  0.70217035  0.15677045  1  0.136033  -0.000541  0.973662  -0.001  0.146341  -0.000496  1.029409  -0.001  0.150661  -0.000354  1.027044  -0.001  0.116253  0.143116  -0.000603  1.031434  -0.001
H  H9  1  0.49565061  0.29782727  0.84322574  1  0.136051  0.00054  0.97369  0.001  0.146391  0.000496  1.029388  0.001  0.150713  0.000354  1.027021  0.001  0.116276  0.143168  0.000603  1.031415  0.001
H  H10  1  0.13702972  0.92980833  0.05949895  1  0.052945  -5.3e-05  0.950877  0.0  0.072743  -1.1e-05  1.012775  0.0  0.072231  -1.1e-05  1.014883  0.0  0.082982  0.073246  -7e-06  1.011041  0.0
H  H11  1  0.86296604  0.07018933  0.94050635  1  0.052867  5.3e-05  0.950916  0.0  0.072713  1.2e-05  1.012769  0.0  0.072203  1.1e-05  1.014873  0.0  0.082974  0.073218  7e-06  1.011035  0.0
H  H12  1  0.97279015  0.05625614  0.10548743  1  0.062238  -0.000113  0.954469  0.0  0.081969  -7e-05  1.015969  0.0  0.08182  -4.3e-05  1.018133  0.0  0.087324  0.08216  -9.7e-05  1.014378  0.0
H  H13  1  0.02720701  0.94374592  0.89451401  1  0.062218  0.000112  0.954448  0.0  0.081969  7e-05  1.015943  0.0  0.081819  4.3e-05  1.018109  0.0  0.087331  0.08216  9.7e-05  1.014354  0.0
H  H14  1  0.45208600  0.78696585  0.99031455  1  0.138498  -0.000769  0.977582  -0.001  0.145594  -0.000701  1.041566  -0.001  0.149814  -0.000511  1.038526  -0.001  0.115728  0.142184  -0.00084  1.044368  -0.001
H  H15  1  0.54791068  0.21303294  0.00968547  1  0.138471  0.000769  0.977614  0.001  0.145565  0.000703  1.041614  0.001  0.14978  0.000511  1.038587  0.001  0.115721  0.142161  0.00084  1.044415  0.001
H  H16  1  0.20444272  0.11933900  0.87102401  1  0.085337  -0.001627  0.935195  -0.002  0.098784  -0.001193  0.996775  -0.001  0.098847  -0.000767  0.997557  -0.001  0.090052  0.098747  -0.001485  0.996203  -0.002
H  H17  1  0.79555845  0.88065422  0.12897893  1  0.085325  0.001627  0.93525  0.002  0.098776  0.001194  0.996819  0.001  0.098838  0.000766  0.997602  0.001  0.090019  0.098736  0.001485  0.996247  0.002
H  H18  1  0.03340283  0.24586070  0.91149542  1  0.105783  0.000502  0.948896  0.001  0.118931  8.9e-05  1.009694  0.0  0.120924  7.2e-05  1.009371  0.0  0.095017  0.117384  0.000101  1.010267  0.0
H  H19  1  0.96660405  0.75413794  0.08850644  1  0.105788  -0.000502  0.948988  -0.001  0.118947  -8.9e-05  1.009771  0.0  0.120931  -7.2e-05  1.009453  0.0  0.095043  0.117395  -0.000101  1.010343  0.0
H  H20  1  0.14241219  0.50371371  0.92327686  1  0.101251  -0.001399  0.941899  -0.002  0.108466  -0.001217  1.003756  -0.002  0.110593  -0.000868  1.001503  -0.002  0.125686  0.106697  -0.001515  1.005443  -0.002
H  H21  1  0.85759191  0.49627621  0.07672394  1  0.101288  0.001399  0.941835  0.002  0.108437  0.001217  1.003793  0.002  0.110565  0.000868  1.001538  0.002  0.125683  0.106669  0.001515  1.005477  0.002
H  H22  1  0.20541982  0.86889432  0.38495480  1  0.108109  0.00013  0.913513  0.0  0.126262  -0.000188  0.966141  0.0  0.128467  -0.000126  0.965198  0.0  0.102019  0.124694  -0.000253  0.966853  -0.001
H  H23  1  0.79457938  0.13110877  0.61505071  1  0.108089  -0.00013  0.913543  0.0  0.126247  0.000189  0.966196  0.0  0.128452  0.000125  0.965254  0.0  0.102012  0.124682  0.000253  0.966907  0.001
H  H24  1  0.19690825  0.92971437  0.23755378  1  0.102463  -3.8e-05  0.923989  0.0  0.12106  -0.000155  0.978821  0.0  0.123132  -0.000103  0.978502  0.0  0.100905  0.119575  -0.00023  0.979108  0.0
H  H25  1  0.80309370  0.07029198  0.76245026  1  0.102421  3.8e-05  0.924002  0.0  0.121039  0.000156  0.978844  0.0  0.123111  0.000103  0.978523  0.0  0.100901  0.119554  0.00023  0.979133  0.0
H  H26  1  0.32344672  0.24065317  0.38892191  1  0.097936  -0.001013  0.933317  -0.002  0.107478  -0.000932  0.991494  -0.002  0.110321  -0.000675  0.988959  -0.001  0.124437  0.105096  -0.00115  0.993711  -0.002
H  H27  1  0.67654638  0.75935222  0.61108110  1  0.097871  0.001014  0.933271  0.002  0.107422  0.000932  0.991449  0.002  0.110265  0.000675  0.988911  0.001  0.124386  0.105017  0.00115  0.993687  0.002
H  H28  1  0.47708059  0.33907063  0.47202841  1  0.103028  -0.000417  0.937964  0.0  0.116354  -0.000472  0.98998  0.0  0.119208  -0.000352  0.989486  0.0  0.112864  0.114058  -0.000555  0.990817  0.0
H  H29  1  0.52291613  0.66093362  0.52797333  1  0.103083  0.000417  0.937926  0.0  0.116411  0.000472  0.98993  0.0  0.119265  0.000352  0.989435  0.0  0.112878  0.114114  0.000555  0.990767  0.0
H  H30  1  0.19931579  0.73555947  0.77112579  1  0.120118  -0.00046  0.966321  -0.001  0.12612  -0.000427  1.029531  -0.001  0.12957  -0.000309  1.028045  0.0  0.111385  0.123426  -0.000538  1.030925  -0.001
H  H31  1  0.80067814  0.26443603  0.22887889  1  0.119986  0.000461  0.966418  0.001  0.12601  0.000426  1.029644  0.001  0.129453  0.000309  1.028162  0.0  0.111353  0.123321  0.000537  1.031028  0.001
H  H32  1  0.56478013  0.57654216  0.35314980  1  0.090779  -0.000147  0.93955  0.0  0.104281  4.2e-05  0.994001  0.0  0.106303  4.7e-05  0.992565  0.0  0.110547  0.102855  3.3e-05  0.994881  0.0
H  H33  1  0.43522292  0.42345876  0.64684748  1  0.090774  0.000148  0.939548  0.0  0.10429  -4.2e-05  0.993979  0.0  0.106314  -4.7e-05  0.99254  0.0  0.110548  0.102864  -3.3e-05  0.994861  0.0
H  H34  1  0.12207294  0.63824823  0.37646813  1  0.06629  3.7e-05  0.950009  0.0  0.082417  1.9e-05  1.015516  0.0  0.082818  1.6e-05  1.017055  0.0  0.084158  0.082142  2.6e-05  1.01425  0.0
H  H35  1  0.87793351  0.36175266  0.62352684  1  0.066307  -3.7e-05  0.949964  0.0  0.08236  -1.7e-05  1.015535  0.0  0.082761  -1.6e-05  1.017074  0.0  0.084139  0.082085  -2.6e-05  1.014267  0.0
H  H36  1  0.07828290  0.72591850  0.23726241  1  0.061205  2.2e-05  0.955331  0.0  0.076773  5e-06  1.024085  0.0  0.077927  1e-06  1.024508  0.0  0.085234  0.075934  1.7e-05  1.023801  0.0
H  H37  1  0.92172133  0.27408791  0.76273236  1  0.061186  -2.2e-05  0.955382  0.0  0.076754  -5e-06  1.024119  0.0  0.077907  -1e-06  1.024542  0.0  0.085241  0.075913  -1.7e-05  1.023835  0.0
H  H38  1  0.85174114  0.60935386  0.46456759  1  0.091194  -6e-06  0.956991  0.0  0.10485  -3e-06  1.021766  0.0  0.106551  -2e-06  1.022144  0.0  0.093169  0.103637  -5e-06  1.021703  0.0
H  H39  1  0.14826057  0.39064822  0.53542570  1  0.091121  6e-06  0.957082  0.0  0.104804  5e-06  1.021822  0.0  0.106506  2e-06  1.022203  0.0  0.093168  0.103591  4e-06  1.021765  0.0
H  H40  1  0.79592005  0.71732206  0.33167499  1  0.093094  4.8e-05  0.92578  0.0  0.110584  5.6e-05  0.983529  0.0  0.113046  3.6e-05  0.982419  0.0  0.099411  0.109185  6.2e-05  0.984066  0.0
H  H41  1  0.20408575  0.28268216  0.66831764  1  0.093072  -4.8e-05  0.925636  0.0  0.110525  -5.4e-05  0.983453  0.0  0.112989  -3.6e-05  0.982344  0.0  0.099358  0.109126  -6.2e-05  0.983991  0.0
H  H42  1  0.91605867  0.28999278  0.38297220  1  0.39274  -6.8e-05  0.908994  0.0  0.358237  -9.7e-05  0.993335  0.0  0.372144  -4.9e-05  0.977008  0.0  0.292025  0.348526  -0.000109  1.003066  0.0
H  H43  1  0.08393040  0.71001603  0.61702199  1  0.392723  6.8e-05  0.908987  0.0  0.358199  9.4e-05  0.993363  0.0  0.372102  5.1e-05  0.977064  0.0  0.292007  0.348484  0.000109  1.003097  0.0
C  C44  1  0.98827839  0.86012055  0.35597527  1  -0.079269  -0.001025  3.702285  -0.001  -0.121983  -0.000693  3.967784  -0.001  -0.12175  -0.000443  3.981235  -0.001  -0.169114  -0.121781  -0.001012  3.957906  -0.001
C  C45  1  0.01172304  0.13987708  0.64402563  1  -0.079246  0.001025  3.702328  0.001  -0.122007  0.000689  3.967907  0.001  -0.121778  0.000445  3.981366  0.001  -0.169095  -0.121804  0.001011  3.958027  0.001
C  C46  1  0.20748373  0.20409953  0.00542971  1  0.678467  0.003657  3.853406  0.008  0.641696  -0.000401  4.16297  0.002  0.677412  0.000234  4.158332  0.002  0.200125  0.617534  -0.001018  4.165266  0.002
C  C47  1  0.79252289  0.79589474  0.99457098  1  0.678402  -0.003658  3.853618  -0.008  0.641626  0.000392  4.163213  -0.002  0.677334  -0.000239  4.158577  -0.002  0.200043  0.617457  0.001018  4.165503  -0.002
C  C48  1  0.08893082  0.09028078  0.32707511  1  0.723132  -0.002167  3.784188  0.0  0.679595  -0.006243  4.091196  -0.005  0.717094  -0.004408  4.081962  -0.004  0.221625  0.653489  -0.008079  4.097566  -0.006
C  C49  1  0.91106746  0.90972123  0.67293008  1  0.723071  0.002168  3.78433  0.0  0.679651  0.006237  4.09121  0.005  0.717148  0.00441  4.081981  0.004  0.221646  0.653543  0.008078  4.097573  0.006
C  C50  1  0.38081131  0.53778157  0.17116585  1  0.180455  0.002683  3.751154  0.003  0.177882  -0.000272  3.994508  0.0  0.186626  0.000582  4.015469  0.001  0.124258  0.172469  -0.000971  3.980285  -0.001
C  C51  1  0.61919060  0.46221934  0.82883487  1  0.180477  -0.002695  3.75122  -0.003  0.177961  0.000271  3.994473  0.0  0.18671  -0.000583  4.015427  -0.001  0.124348  0.172547  0.000971  3.980245  0.001
C  C52  1  0.33202591  0.77683477  0.86962350  1  0.003703  0.008121  3.708063  0.008  -0.016237  0.002777  3.963525  0.003  -0.01269  0.00286  3.981265  0.003  -0.060683  -0.019223  0.002711  3.952305  0.003
C  C53  1  0.66796737  0.22316406  0.13037724  1  0.003705  -0.008111  3.707878  -0.008  -0.016194  -0.002773  3.963353  -0.003  -0.012636  -0.002863  3.981077  -0.003  -0.060597  -0.019189  -0.002712  3.95215  -0.003
C  C54  1  0.46345387  0.60145910  0.21158665  1  -0.130259  -0.004807  3.656844  -0.005  -0.145985  -0.002218  3.89358  -0.002  -0.153125  -0.002098  3.912646  -0.002  -0.06845  -0.141849  -0.002249  3.881239  -0.002
C  C55  1  0.53654918  0.39854182  0.78841064  1  -0.130278  0.004823  3.65689  0.005  -0.146044  0.002215  3.893595  0.002  -0.153185  0.002101  3.912658  0.002  -0.068465  -0.141909  0.002249  3.881258  0.002
C  C56  1  0.04696150  0.02390389  0.02840962  1  -0.083402  0.000971  3.693989  0.001  -0.123312  0.000234  3.951664  0.0  -0.123848  0.000162  3.967808  0.0  -0.167913  -0.12281  0.000317  3.940396  0.001
C  C57  1  0.95303631  0.97609486  0.97159256  1  -0.083248  -0.000971  3.693936  -0.001  -0.123194  -0.000237  3.95159  0.0  -0.123726  -0.000161  3.967728  0.0  -0.167919  -0.122695  -0.000317  3.940322  -0.001
C  C58  1  0.38026728  0.72827663  0.97454162  1  -0.139717  -0.006745  3.664718  -0.006  -0.16464  -0.003054  3.922537  -0.003  -0.170689  -0.002775  3.94059  -0.003  -0.074629  -0.160769  -0.00335  3.91095  -0.003
C  C59  1  0.61973010  0.27172436  0.02545607  1  -0.139612  0.006733  3.66473  0.006  -0.164557  0.003044  3.922547  0.003  -0.17061  0.002782  3.940596  0.003  -0.074578  -0.160695  0.00335  3.910974  0.003
C  C60  1  0.33978186  0.59972542  0.05658340  1  0.159872  0.002885  3.761542  0.003  0.155046  -0.001011  4.011052  0.0  0.161221  0.000163  4.033688  0.001  0.11306  0.151162  -0.001688  3.995916  -0.001
C  C61  1  0.66021687  0.40027442  0.94341829  1  0.159844  -0.002875  3.761586  -0.003  0.155018  0.001018  4.011054  0.0  0.161195  -0.000165  4.033688  -0.001  0.113045  0.151137  0.001689  3.995915  0.001
C  C62  1  0.12192377  0.15243993  0.94518611  1  -0.25772  -0.012189  3.671617  -0.012  -0.293588  -0.00621  3.918889  -0.007  -0.299978  -0.004099  3.929394  -0.004  -0.170436  -0.288723  -0.007873  3.91129  -0.008
C  C63  1  0.87808084  0.84755875  0.05481463  1  -0.25771  0.012189  3.671836  0.012  -0.293609  0.006205  3.919148  0.007  -0.299989  0.004105  3.929666  0.004  -0.17042  -0.288757  0.007873  3.911592  0.008
C  C64  1  0.21026944  0.56923767  0.93493592  1  0.162676  0.0084  3.645521  0.009  0.133783  0.001548  3.901231  0.003  0.145577  0.002538  3.91604  0.004  0.063108  0.125867  0.000837  3.891442  0.002
C  C65  1  0.78973173  0.43075557  0.06506541  1  0.16261  -0.008393  3.645464  -0.009  0.133746  -0.001555  3.901212  -0.003  0.145539  -0.002535  3.916018  -0.004  0.063062  0.125831  -0.000837  3.891418  -0.002
C  C66  1  0.12721586  0.93126924  0.32517229  1  -0.263618  -0.004337  3.676878  -0.004  -0.302164  -0.002752  3.926419  -0.003  -0.308701  -0.001814  3.93508  -0.002  -0.163759  -0.297401  -0.003751  3.920258  -0.004
C  C67  1  0.87278243  0.06873278  0.67483210  1  -0.26347  0.004338  3.676819  0.004  -0.302126  0.002748  3.92649  0.003  -0.308664  0.001813  3.935163  0.002  -0.163733  -0.297364  0.003752  3.920333  0.004
C  C68  1  0.36602460  0.34247351  0.34229506  1  0.129765  0.005482  3.699824  0.006  0.101527  0.000849  3.955707  0.002  0.110218  0.001637  3.974051  0.003  0.053646  0.095766  0.000336  3.94396  0.002
C  C69  1  0.63397504  0.65752742  0.65770615  1  0.129913  -0.005495  3.699682  -0.006  0.101672  -0.000855  3.955551  -0.002  0.110367  -0.001636  3.973894  -0.003  0.0537  0.095927  -0.000335  3.943797  -0.002
C  C70  1  0.44987990  0.39857035  0.38709068  1  -0.113955  -0.00676  3.733853  -0.007  -0.127398  -0.003339  3.985153  -0.004  -0.134476  -0.003039  4.005724  -0.004  -0.075758  -0.123061  -0.003447  3.971983  -0.004
C  C71  1  0.55011796  0.60143391  0.61290922  1  -0.114049  0.006775  3.733849  0.007  -0.127495  0.003341  3.985148  0.004  -0.134573  0.00304  4.005716  0.004  -0.075742  -0.123157  0.003446  3.971972  0.004
C  C72  1  0.24410532  0.69831441  0.84980448  1  -0.09954  -0.009125  3.684384  -0.01  -0.113397  -0.004206  3.937063  -0.005  -0.119164  -0.003828  3.955386  -0.005  -0.072322  -0.109532  -0.004718  3.924886  -0.006
C  C73  1  0.75589044  0.30168327  0.15019842  1  -0.099442  0.009113  3.68431  0.01  -0.113333  0.00421  3.936982  0.005  -0.11909  0.003828  3.955295  0.005  -0.072341  -0.109468  0.004718  3.924807  0.006
C  C74  1  0.49820065  0.53029455  0.32075125  1  0.006751  0.006064  3.714519  0.006  -0.011204  0.002242  3.962106  0.002  -0.005975  0.002414  3.97897  0.002  -0.059878  -0.014829  0.002216  3.95099  0.002
C  C75  1  0.50179991  0.46970749  0.67924706  1  0.006733  -0.006076  3.714515  -0.006  -0.011244  -0.002243  3.962116  -0.002  -0.006016  -0.002415  3.978978  -0.002  -0.059925  -0.014869  -0.002216  3.951004  -0.002
C  C76  1  0.03112659  0.71139779  0.33091537  1  -0.089585  -0.00037  3.680663  0.0  -0.131102  -0.000195  3.943852  0.0  -0.132093  -0.000112  3.958673  0.0  -0.170111  -0.129827  -0.000353  3.932648  0.0
C  C77  1  0.96887738  0.28860422  0.66908223  1  -0.089602  0.00037  3.68064  0.0  -0.130998  0.000193  3.94374  0.0  -0.131986  0.00011  3.958573  0.0  -0.170112  -0.129734  0.000354  3.932568  0.0
C  C78  1  0.92248422  0.50246605  0.33013251  1  0.698329  0.000765  3.780137  0.001  0.657676  0.000583  4.08064  0.001  0.691363  0.000509  4.071341  0.001  0.225812  0.635723  0.000618  4.084302  0.001
C  C79  1  0.07751549  0.49754044  0.66986002  1  0.698333  -0.000765  3.78022  -0.001  0.657755  -0.000585  4.080647  -0.001  0.691452  -0.000507  4.071346  -0.001  0.225911  0.635792  -0.000618  4.084319  -0.001
C  C80  1  0.89141494  0.63828125  0.36965620  1  -0.265663  -0.000178  3.696004  0.0  -0.305945  -7.8e-05  3.948117  0.0  -0.312043  -4e-05  3.956781  0.0  -0.166335  -0.302  -0.000173  3.941595  0.0
C  C81  1  0.10858837  0.36172409  0.63033746  1  -0.265546  0.000178  3.695957  0.0  -0.305829  7.2e-05  3.948  0.0  -0.311944  4.2e-05  3.956683  0.0  -0.166262  -0.301871  0.000173  3.941457  0.0
N  N82  1  0.25845465  0.52103348  0.03464706  1  -0.328576  -0.086116  3.327697  -0.105  -0.285567  -0.063011  3.621009  -0.082  -0.316044  -0.052274  3.642014  -0.072  -0.340194  -0.267673  -0.06894  3.608635  -0.087
N  N83  1  0.74154813  0.47896304  0.96535226  1  -0.328552  0.086106  3.327608  0.105  -0.285531  0.063015  3.620878  0.082  -0.316007  0.052265  3.641893  0.072  -0.340177  -0.267615  0.068937  3.608494  0.087
N  N84  1  0.33254841  0.41080653  0.23723308  1  -0.340236  -0.06329  3.347106  -0.077  -0.295548  -0.048607  3.641472  -0.063  -0.324464  -0.041749  3.662127  -0.057  -0.344508  -0.278594  -0.051925  3.629271  -0.065
N  N85  1  0.66744988  0.58919551  0.76276891  1  -0.340294  0.063299  3.347056  0.077  -0.295639  0.048618  3.641415  0.063  -0.324561  0.041746  3.662085  0.057  -0.344579  -0.278653  0.051925  3.629185  0.065
O  O86  1  0.35144757  0.17887087  0.98418246  1  -0.620658  -0.00053  1.930561  -0.002  -0.589643  0.000422  2.157333  0.0  -0.614303  0.001102  2.147355  0.001  -0.329223  -0.571848  4e-05  2.163718  -0.001
O  O87  1  0.64855840  0.82112672  0.01581429  1  -0.620678  0.000529  1.930518  0.002  -0.589663  -0.000409  2.157299  0.0  -0.614321  -0.001105  2.147325  -0.001  -0.329257  -0.571863  -4e-05  2.16368  0.001
O  O88  1  0.11671181  0.27326721  0.07964029  1  -0.597275  -0.122105  2.052002  -0.156  -0.578081  -0.067691  2.347687  -0.096  -0.626302  -0.051075  2.344951  -0.076  -0.332847  -0.546552  -0.077788  2.349348  -0.105
O  O89  1  0.88329449  0.72671713  0.92036711  1  -0.597271  0.122106  2.052131  0.156  -0.578078  0.067691  2.347837  0.096  -0.626294  0.051077  2.345112  0.076  -0.332762  -0.546493  0.07779  2.349439  0.105
O  O90  1  0.94980764  0.14918740  0.36108923  1  -0.598651  -0.01108  1.987469  -0.014  -0.54506  -0.007344  2.208286  -0.01  -0.571246  -0.005032  2.197512  -0.007  -0.304942  -0.527009  -0.009383  2.215064  -0.012
O  O91  1  0.05018569  0.85081693  0.63890923  1  -0.598657  0.011075  1.987693  0.014  -0.545023  0.007342  2.208399  0.01  -0.57121  0.005027  2.197638  0.007  -0.304917  -0.526974  0.00938  2.215178  0.012
O  O92  1  0.20385293  0.15562193  0.29330047  1  -0.657157  -0.064424  2.045577  -0.081  -0.633133  -0.04084  2.333393  -0.056  -0.671303  -0.031416  2.318271  -0.045  -0.357848  -0.607352  -0.048081  2.343583  -0.063
O  O93  1  0.79614173  0.84438118  0.70671078  1  -0.657149  0.064433  2.045625  0.081  -0.6332  0.040851  2.333407  0.056  -0.671372  0.03142  2.318305  0.045  -0.357873  -0.607393  0.048087  2.34359  0.063
O  O94  1  0.98105837  0.50316999  0.22741746  1  -0.601038  0.000782  1.998629  0.0  -0.565562  0.000734  2.245617  0.0  -0.588824  0.000796  2.233846  0.0  -0.306176  -0.550198  0.000696  2.252498  0.0
O  O95  1  0.01894674  0.49683203  0.77257671  1  -0.601065  -0.000783  1.998717  0.0  -0.565638  -0.000728  2.245708  0.0  -0.588893  -0.000802  2.233946  0.0  -0.306241  -0.550255  -0.000696  2.25259  0.0
O  O96  1  0.88214392  0.38551029  0.41350532  1  -0.569233  -6.9e-05  2.076333  0.0  -0.515979  -4e-06  2.297138  0.0  -0.539221  4.5e-05  2.282466  0.0  -0.33311  -0.499245  -0.000174  2.304706  0.0
O  O97  1  0.11784651  0.61449743  0.58648648  1  -0.569218  6.8e-05  2.076224  0.0  -0.516033  8e-06  2.297097  0.0  -0.539273  -4.4e-05  2.282437  0.0  -0.333166  -0.499296  0.000174  2.30467  0.0
