# generated using pymatgen
data_AlH2C8S2ClO5
_symmetry_space_group_name_H-M   'P 1'
_cell_length_a   6.68159624
_cell_length_b   15.81455553
_cell_length_c   18.88144115
_cell_angle_alpha   89.97112250
_cell_angle_beta   89.47171146
_cell_angle_gamma   89.97086170
_symmetry_Int_Tables_number   1
_chemical_formula_structural   AlH2C8S2ClO5
_chemical_formula_sum   'Al4 H8 C32 S8 Cl4 O20'
_cell_volume   1995.05001094
_cell_formula_units_Z   4
loop_
 _symmetry_equiv_pos_site_id
 _symmetry_equiv_pos_as_xyz
  1  'x, y, z'
loop_
 _atom_site_type_symbol
 _atom_site_label
 _atom_site_symmetry_multiplicity
 _atom_site_fract_x
 _atom_site_fract_y
 _atom_site_fract_z
 _atom_site_occupancy
 _atom_site_pbe_bader_charge
 _atom_site_pbe_bader_spin_density
 _atom_site_pbe_cm5_charge
 _atom_site_pbe_ddec_charge
 _atom_site_pbe_ddec_spin_density
 _atom_site_pbe_ddec_sum_bond_order
 _atom_site_pbe_magmom
Al  Al0  1  0.00923117  0.99819588  0.50013637  1  2.502169  0  0.393356  1.648093  0  2.56526  0
Al  Al1  1  0.50987155  0.00135306  0.50234238  1  2.500872  0  0.39446  1.646113  0  2.560583  0
Al  Al2  1  0.99243462  0.50208795  0.00128974  1  2.501218  0  0.396617  1.643228  0  2.573424  0
Al  Al3  1  0.49283362  0.49847288  0.00246490  1  2.500927  0  0.398886  1.640009  0  2.573233  0
H  H4  1  0.76568215  0.10528697  0.47371954  1  0.612186  0  0.337947  0.417227  0  0.885483  0
H  H5  1  0.26898640  0.89524012  0.47192628  1  0.630396  0  0.336667  0.415169  0  0.889465  0
H  H6  1  0.74819849  0.39678338  0.97155243  1  0.6138  0  0.35095  0.429165  0  0.856901  0
H  H7  1  0.25030085  0.60445015  0.97248239  1  0.623189  0  0.35117  0.429737  0  0.856264  0
H  H8  1  0.54516508  0.28532170  0.84866153  1  0.149131  0  0.113362  0.134313  0  0.994624  0
H  H9  1  0.03041393  0.71266653  0.14691882  1  0.091059  0  0.119808  0.144978  0  0.978801  0
H  H10  1  0.45414423  0.71952685  0.85238290  1  0.107071  0  0.115009  0.135967  0  0.98865  0
H  H11  1  0.52995602  0.28924403  0.14787350  1  0.13771  0  0.119956  0.144972  0  0.980634  0
C  C12  1  0.26614531  0.10375699  0.40710621  1  1.601355  0  0.255927  0.660599  0  4.135712  0
C  C13  1  0.24585429  0.09707456  0.59799003  1  1.613348  0  0.262004  0.663339  0  4.130557  0
C  C14  1  0.75085318  0.89947132  0.59563600  1  1.609662  0  0.259055  0.657765  0  4.136099  0
C  C15  1  0.76514211  0.89840183  0.40540373  1  1.605621  0  0.255561  0.659614  0  4.137461  0
C  C16  1  0.23130176  0.40249154  0.09835998  1  1.599843  0  0.261511  0.647112  0  4.146437  0
C  C17  1  0.25088928  0.39881754  0.90518508  1  1.591026  0  0.258034  0.653371  0  4.133576  0
C  C18  1  0.74845739  0.60184498  0.90532604  1  1.587856  0  0.25648  0.648523  0  4.142655  0
C  C19  1  0.73232470  0.59819007  0.09800332  1  1.598667  0  0.262287  0.648059  0  4.142858  0
C  C20  1  0.09367849  0.21183428  0.67914532  1  0.191442  0  0.003574  0.087558  0  4.113847  0
C  C21  1  0.40061350  0.28754003  0.82269361  1  -0.007184  0  -0.091458  -0.136081  0  3.977104  0
C  C22  1  0.24388050  0.15613911  0.65832662  1  -0.141144  0  -0.025553  -0.186355  0  3.947062  0
C  C23  1  0.24735462  0.34038087  0.84463926  1  -0.157686  0  -0.021732  -0.12013  0  3.96868  0
C  C24  1  0.34207525  0.23871867  0.76375036  1  -0.162359  0  -0.023426  -0.00123  0  4.080431  0
C  C25  1  0.14775367  0.25791246  0.74032581  1  -0.154073  0  -0.030272  -0.082067  0  4.088872  0
C  C26  1  0.60292906  0.78247921  0.32822976  1  0.112505  0  0.007265  0.098018  0  4.088251  0
C  C27  1  0.89082841  0.70966416  0.17696032  1  0.139054  0  -0.087217  -0.132879  0  3.960561  0
C  C28  1  0.75481742  0.83861931  0.34606538  1  -0.129526  0  -0.028034  -0.191404  0  3.943384  0
C  C29  1  0.73621890  0.65595002  0.15890567  1  -0.220255  0  -0.017665  -0.118314  0  3.963828  0
C  C30  1  0.84034839  0.75704867  0.23793561  1  -0.170578  0  -0.022538  0.001281  0  4.078449  0
C  C31  1  0.65015198  0.73669454  0.26592007  1  -0.112644  0  -0.030401  -0.086989  0  4.092606  0
C  C32  1  0.90064385  0.78243701  0.67516474  1  0.123146  0  0.007487  0.096516  0  4.099311  0
C  C33  1  0.59594808  0.71424824  0.82397833  1  0.059076  0  -0.089467  -0.131388  0  3.967996  0
C  C34  1  0.75388058  0.84010789  0.65542858  1  -0.088922  0  -0.024551  -0.187224  0  3.937133  0
C  C35  1  0.74614460  0.65930982  0.84417211  1  -0.171723  0  -0.021327  -0.120972  0  3.9692  0
C  C36  1  0.65393087  0.76067966  0.76317673  1  -0.150047  0  -0.023008  -0.000722  0  4.075486  0
C  C37  1  0.84512630  0.73806573  0.73736422  1  -0.176135  0  -0.030052  -0.084417  0  4.094247  0
C  C38  1  0.10437867  0.21942045  0.32960333  1  0.098807  0  0.007169  0.098172  0  4.085847  0
C  C39  1  0.39039448  0.29195094  0.17789773  1  0.02679  0  -0.086791  -0.132366  0  3.963322  0
C  C40  1  0.25704642  0.16369066  0.34771601  1  -0.097817  0  -0.027523  -0.190505  0  3.94078  0
C  C41  1  0.23461865  0.34500257  0.15952813  1  -0.168311  0  -0.017647  -0.118068  0  3.968248  0
C  C42  1  0.34119476  0.24485392  0.23914942  1  -0.105985  0  -0.022416  0.001406  0  4.081056  0
C  C43  1  0.15066892  0.26485888  0.26702856  1  -0.165711  0  -0.030156  -0.086436  0  4.091371  0
S  S44  1  0.45341988  0.16243575  0.71168621  1  0.296518  0  0.099227  0.152043  0  2.842245  0
S  S45  1  0.03280715  0.33253821  0.79312666  1  0.262216  0  0.086487  0.131276  0  2.765359  0
S  S46  1  0.95695096  0.83355757  0.28748597  1  0.288288  0  0.092723  0.142673  0  2.823357  0
S  S47  1  0.53001870  0.66154689  0.21595896  1  0.285192  0  0.093757  0.142805  0  2.75825  0
S  S48  1  0.54649807  0.83805831  0.71180293  1  0.295952  0  0.096558  0.146637  0  2.830603  0
S  S49  1  0.95707429  0.66245893  0.78913793  1  0.275218  0  0.085724  0.13266  0  2.783683  0
S  S50  1  0.45916812  0.16905664  0.28919667  1  0.285072  0  0.092434  0.142008  0  2.824387  0
S  S51  1  0.02875907  0.33917069  0.21660790  1  0.278422  0  0.093292  0.141985  0  2.759212  0
Cl  Cl52  1  0.87770537  0.22973601  0.63398562  1  -0.168062  0  0.018775  -0.028137  0  1.614978  0
Cl  Cl53  1  0.38777392  0.76389617  0.37553038  1  -0.172288  0  0.022233  -0.031493  0  1.594653  0
Cl  Cl54  1  0.11819841  0.76203856  0.63037654  1  -0.156701  0  0.019271  -0.024984  0  1.594682  0
Cl  Cl55  1  0.88932053  0.23798928  0.37693426  1  -0.172007  0  0.020827  -0.03355  0  1.598973  0
O  O56  1  0.10107311  0.08677234  0.43809994  1  -1.256417  0  -0.237853  -0.599116  0  2.391155  0
O  O57  1  0.41546240  0.08365473  0.56841213  1  -1.251253  0  -0.236194  -0.584935  0  2.326915  0
O  O58  1  0.58268167  0.93426552  0.58274056  1  -1.250602  0  -0.234819  -0.574851  0  2.325348  0
O  O59  1  0.93736328  0.92982529  0.41845329  1  -1.247848  0  -0.24297  -0.592125  0  2.311437  0
O  O60  1  0.91361283  0.91156403  0.56163103  1  -1.2527  0  -0.23313  -0.583073  0  2.367506  0
O  O61  1  0.60249290  0.91372771  0.43866856  1  -1.259541  0  -0.238166  -0.599504  0  2.383591  0
O  O62  1  0.43835117  0.07380095  0.42238350  1  -1.247771  0  -0.243752  -0.593297  0  2.306315  0
O  O63  1  0.07966293  0.06466392  0.58068946  1  -1.24319  0  -0.228052  -0.567396  0  2.345424  0
O  O64  1  0.76048893  0.05202156  0.49920083  1  -1.415396  0  -0.450331  -0.987724  0  2.195147  0
O  O65  1  0.26139511  0.94786451  0.49830295  1  -1.435345  0  -0.448984  -0.985501  0  2.189656  0
O  O66  1  0.06373595  0.43567980  0.08219347  1  -1.251009  0  -0.235248  -0.57808  0  2.320138  0
O  O67  1  0.42241461  0.42570003  0.92405162  1  -1.257253  0  -0.23966  -0.59304  0  2.313059  0
O  O68  1  0.58290055  0.58740711  0.93745603  1  -1.25756  0  -0.2405  -0.596513  0  2.30861  0
O  O69  1  0.89612933  0.58774584  0.06403209  1  -1.255395  0  -0.234775  -0.581458  0  2.326928  0
O  O70  1  0.91964461  0.57139882  0.92128147  1  -1.256548  0  -0.243154  -0.602146  0  2.349931  0
O  O71  1  0.56477991  0.56395392  0.08351245  1  -1.249048  0  -0.234525  -0.579038  0  2.325683  0
O  O72  1  0.39697040  0.41363887  0.06584289  1  -1.255313  0  -0.233659  -0.580256  0  2.335662  0
O  O73  1  0.08218145  0.41701413  0.93388224  1  -1.259895  0  -0.243148  -0.606243  0  2.336977  0
O  O74  1  0.74452541  0.44800375  0.99975385  1  -1.416681  0  -0.448062  -0.985788  0  2.18135  0
O  O75  1  0.24426810  0.55245599  0.99964422  1  -1.426879  0  -0.44763  -0.986596  0  2.178712  0
