# generated using pymatgen
data_Mn2Sb2H8C12S5N2
_symmetry_space_group_name_H-M   'P 1'
_cell_length_a   12.08978879
_cell_length_b   12.17404354
_cell_length_c   12.63850000
_cell_angle_alpha   90.00000000
_cell_angle_beta   112.35107942
_cell_angle_gamma   90.00000000
_symmetry_Int_Tables_number   1
_chemical_formula_structural   Mn2Sb2H8C12S5N2
_chemical_formula_sum   'Mn8 Sb8 H32 C48 S20 N8'
_cell_volume   1720.40338877
_cell_formula_units_Z   4
loop_
 _symmetry_equiv_pos_site_id
 _symmetry_equiv_pos_as_xyz
  1  'x, y, z'
loop_
 _atom_site_type_symbol
 _atom_site_label
 _atom_site_symmetry_multiplicity
 _atom_site_fract_x
 _atom_site_fract_y
 _atom_site_fract_z
 _atom_site_occupancy
 _atom_site_hle17_ddec_charge
 _atom_site_hle17_ddec_spin_density
 _atom_site_hle17_ddec_sum_bond_order
 _atom_site_hle17_magmom
 _atom_site_hse06_10hf_ddec_charge
 _atom_site_hse06_10hf_ddec_spin_density
 _atom_site_hse06_10hf_ddec_sum_bond_order
 _atom_site_hse06_10hf_magmom
 _atom_site_hse06_ddec_charge
 _atom_site_hse06_ddec_spin_density
 _atom_site_hse06_ddec_sum_bond_order
 _atom_site_hse06_magmom
 _atom_site_pbe_bader_charge
 _atom_site_pbe_bader_spin_density
 _atom_site_pbe_cm5_charge
 _atom_site_pbe_ddec_charge
 _atom_site_pbe_ddec_spin_density
 _atom_site_pbe_ddec_sum_bond_order
 _atom_site_pbe_magmom
Mn  Mn0  1  0.73405832  0.70953747  0.35658141  1  0.777886  4.674271  2.276064  4.526  0.626238  4.54615  2.790142  4.339  0.692276  4.655605  2.730458  4.464  1.223779  4.308806  0.395951  0.569756  4.404451  2.838531  4.188
Mn  Mn1  1  0.76593956  0.20953761  0.64341406  1  0.777929  4.674265  2.276023  4.526  0.626283  4.546129  2.790109  4.339  0.692334  4.655598  2.730419  4.464  1.223716  4.308888  0.395969  0.569808  4.404498  2.838486  4.188
Mn  Mn2  1  0.26594116  0.29046060  0.64342038  1  0.777916  4.674244  2.276004  4.526  0.626265  4.546133  2.790099  4.339  0.692309  4.65559  2.730413  4.464  1.223763  4.308869  0.395947  0.569798  4.404462  2.838457  4.188
Mn  Mn3  1  0.23405724  0.79046128  0.35658359  1  0.777911  4.674268  2.276058  4.526  0.626291  4.546135  2.790128  4.339  0.692335  4.655602  2.73044  4.464  1.223736  4.308848  0.395974  0.569819  4.404471  2.838509  4.188
Mn  Mn4  1  0.99052669  0.84587508  0.49123087  1  0.779473  -4.626645  2.342124  -4.513  0.665362  -4.491745  2.830595  -4.333  0.728979  -4.608306  2.776365  -4.458  1.160882  -4.291512  0.272386  0.608105  -4.34013  2.879888  -4.178
Mn  Mn5  1  0.50947566  0.34587851  0.50877414  1  0.779507  -4.626651  2.3421  -4.513  0.665428  -4.4917  2.830536  -4.333  0.729022  -4.608277  2.776332  -4.458  1.160813  -4.29151  0.272395  0.608174  -4.340103  2.879843  -4.178
Mn  Mn6  1  0.00947816  0.15412217  0.50877208  1  0.779497  -4.626629  2.342068  -4.513  0.665475  -4.491715  2.83044  -4.333  0.729049  -4.608292  2.776256  -4.458  1.160892  -4.291534  0.272411  0.608221  -4.340131  2.879745  -4.178
Mn  Mn7  1  0.49052739  0.65412120  0.49122816  1  0.779495  -4.626648  2.34208  -4.513  0.665389  -4.491716  2.830557  -4.333  0.728976  -4.608297  2.776371  -4.458  1.160857  -4.291522  0.272409  0.608135  -4.34014  2.879871  -4.178
Sb  Sb8  1  0.76725334  0.80898840  0.62567937  1  0.692622  -0.008002  2.873528  -0.003  0.620568  -0.009323  3.351373  -0.003  0.632606  -0.006822  3.35099  -0.003  1.109333  -0.009063  0.356137  0.606793  -0.01112  3.349401  -0.004
Sb  Sb9  1  0.73274096  0.30899183  0.37432034  1  0.69263  -0.007976  2.873529  -0.003  0.620563  -0.009325  3.351408  -0.003  0.632598  -0.006834  3.351024  -0.003  1.109332  -0.009067  0.356133  0.606752  -0.011125  3.349501  -0.004
Sb  Sb10  1  0.23274972  0.19101049  0.37432055  1  0.692617  -0.007985  2.873456  -0.003  0.620562  -0.009319  3.351305  -0.003  0.632596  -0.006835  3.350922  -0.003  1.109318  -0.009056  0.356129  0.606768  -0.011112  3.349371  -0.004
Sb  Sb11  1  0.26725315  0.69101116  0.62567950  1  0.692603  -0.008016  2.87353  -0.003  0.620541  -0.009322  3.351371  -0.003  0.632578  -0.00684  3.350987  -0.003  1.109309  -0.009064  0.356126  0.606749  -0.011122  3.349429  -0.004
Sb  Sb12  1  0.77211941  0.50003189  0.64267441  1  0.690476  -0.032522  2.893127  -0.011  0.620284  -0.047039  3.366035  -0.016  0.633761  -0.035395  3.368114  -0.013  1.126276  -0.055572  0.342919  0.604137  -0.068639  3.361065  -0.023
Sb  Sb13  1  0.72788651  0.00003039  0.35732398  1  0.690549  -0.032453  2.893135  -0.011  0.620307  -0.047038  3.366132  -0.016  0.63378  -0.035387  3.368215  -0.013  1.126211  -0.055571  0.34291  0.604163  -0.068637  3.361154  -0.023
Sb  Sb14  1  0.22788454  0.49997110  0.35732504  1  0.690505  -0.032517  2.893133  -0.011  0.620289  -0.047039  3.366075  -0.016  0.633765  -0.035388  3.368156  -0.013  1.126208  -0.055571  0.342904  0.604142  -0.068638  3.361101  -0.023
Sb  Sb15  1  0.27212012  0.99996685  0.64267566  1  0.690489  -0.032386  2.893122  -0.011  0.620307  -0.047042  3.366025  -0.016  0.633783  -0.035392  3.368102  -0.013  1.126394  -0.055566  0.342928  0.604158  -0.068631  3.361055  -0.023
H  H16  1  0.47346349  0.82398342  0.22179337  1  0.081285  -0.000237  0.968029  0.0  0.088697  2e-06  1.035544  0.0  0.090945  -2.9e-05  1.033297  0.0  0.120421  0.000347  0.10448  0.086581  -6.5e-05  1.037776  0.0
H  H17  1  0.02653044  0.32398110  0.77820185  1  0.081243  -0.000239  0.968099  0.0  0.088654  2e-06  1.035617  0.0  0.090902  -2.9e-05  1.033368  0.0  0.120346  0.000347  0.104462  0.086539  -6.4e-05  1.037848  0.0
H  H18  1  0.52653241  0.17602368  0.77820395  1  0.081267  -0.000236  0.968155  0.0  0.088688  2e-06  1.035664  0.0  0.090938  -2.9e-05  1.033413  0.0  0.12042  0.000347  0.104475  0.08657  -6.4e-05  1.037898  0.0
H  H19  1  0.97346725  0.67601533  0.22179612  1  0.081226  -0.000237  0.968171  0.0  0.088634  2e-06  1.035691  0.0  0.090881  -2.9e-05  1.033443  0.0  0.1204  0.000347  0.104465  0.086519  -6.5e-05  1.037922  0.0
H  H20  1  0.33966386  0.85068285  0.01511094  1  0.098926  0.00011  0.989468  0.0  0.108554  -0.000143  1.050349  0.0  0.110918  -0.000104  1.051317  0.0  0.093997  9.2e-05  0.100015  0.106682  -0.000135  1.050096  0.0
H  H21  1  0.16033454  0.35068956  0.98488432  1  0.098939  9.5e-05  0.98938  0.0  0.10853  -0.000143  1.050302  0.0  0.110894  -0.000104  1.051271  0.0  0.094442  9.2e-05  0.100011  0.106658  -0.000135  1.050047  0.0
H  H22  1  0.66033383  0.14931522  0.98488624  1  0.098947  0.000105  0.989309  0.0  0.108578  -0.000143  1.050203  0.0  0.110942  -0.000104  1.051172  0.0  0.094288  9.2e-05  0.100027  0.106703  -0.000135  1.04995  0.0
H  H23  1  0.83966941  0.64930358  0.01511277  1  0.098923  9.8e-05  0.98946  0.0  0.108501  -0.000143  1.050377  0.0  0.110863  -0.000104  1.051349  0.0  0.094438  9.2e-05  0.100019  0.106629  -0.000135  1.050122  0.0
H  H24  1  0.37792081  0.74393113  0.86552491  1  0.083212  -0.000723  0.994618  0.0  0.088379  -0.001008  1.071407  0.0  0.09264  -0.000805  1.0673  0.0  0.108779  -0.001451  0.089892  0.085168  -0.001119  1.074432  0.0
H  H25  1  0.12207758  0.24393703  0.13447352  1  0.083233  -0.000721  0.994608  0.0  0.088413  -0.001008  1.071367  0.0  0.092677  -0.000806  1.067253  0.0  0.108951  -0.001451  0.089915  0.085202  -0.001119  1.074392  0.0
H  H26  1  0.62207419  0.25606776  0.13447683  1  0.083206  -0.000722  0.994571  0.0  0.08838  -0.001008  1.071349  0.0  0.092656  -0.000806  1.067207  0.0  0.108832  -0.001452  0.089903  0.08517  -0.001119  1.074372  0.0
H  H27  1  0.87792189  0.75606432  0.86552669  1  0.083276  -0.000722  0.994534  0.0  0.088446  -0.001008  1.071312  0.0  0.09271  -0.000805  1.067209  0.0  0.108854  -0.001451  0.089928  0.085233  -0.001118  1.074338  0.0
H  H28  1  0.83932062  0.37726167  0.04578305  1  0.105887  -0.000219  0.927448  0.0  0.118438  -0.000286  0.982776  0.0  0.121742  -0.000237  0.980546  0.0  0.062324  -0.000268  0.108444  0.115883  -0.000251  0.984718  0.0
H  H29  1  0.66067547  0.87726235  0.95421493  1  0.105903  -0.000223  0.927499  0.0  0.118441  -0.000287  0.98283  0.0  0.121743  -0.000237  0.980601  0.0  0.062281  -0.000268  0.108479  0.115886  -0.00025  0.984773  0.0
H  H30  1  0.16067171  0.62273229  0.95421930  1  0.10589  -0.000245  0.92744  0.0  0.118393  -0.000286  0.982813  0.0  0.121693  -0.000238  0.980586  0.0  0.062258  -0.000268  0.10846  0.115836  -0.00025  0.984755  0.0
H  H31  1  0.33932222  0.12273326  0.04578304  1  0.105878  -0.000269  0.927437  0.0  0.118397  -0.000287  0.982799  0.0  0.121697  -0.000238  0.980572  0.0  0.062324  -0.000268  0.108454  0.115842  -0.00025  0.98474  0.0
H  H32  1  0.96844646  0.37799191  0.25681822  1  0.105911  0.00114  0.998566  0.0  0.11071  0.001359  1.066865  0.0  0.115119  0.00112  1.064563  0.0  0.111209  0.001847  0.087355  0.107348  0.001516  1.068738  0.0
H  H33  1  0.53155053  0.87799423  0.74317930  1  0.105936  0.001146  0.998501  0.0  0.11072  0.001359  1.066823  0.0  0.115129  0.001119  1.064521  0.0  0.111215  0.001847  0.087359  0.107359  0.001516  1.068694  0.0
H  H34  1  0.03154945  0.62200615  0.74318306  1  0.105888  0.001146  0.998536  0.0  0.110715  0.001359  1.066829  0.0  0.115124  0.001119  1.064527  0.0  0.111204  0.001847  0.087339  0.107352  0.001516  1.068701  0.0
H  H35  1  0.46844806  0.12200384  0.25681821  1  0.105971  0.001139  0.998492  0.0  0.110772  0.001359  1.066784  0.0  0.11518  0.001119  1.064483  0.0  0.111244  0.001847  0.087375  0.107409  0.001515  1.068655  0.0
H  H36  1  0.92395867  0.50978132  0.38494076  1  0.092777  0.000745  0.936103  0.0  0.095662  0.001585  1.009304  0.0  0.099212  0.001207  1.00509  0.0  0.09629  0.002581  0.106706  0.091481  0.002018  1.01482  0.001
H  H37  1  0.57604368  0.00978475  0.61505871  1  0.092791  0.000764  0.936083  0.0  0.095652  0.001585  1.009314  0.0  0.099202  0.001207  1.005098  0.0  0.096292  0.002581  0.106684  0.091464  0.002018  1.014837  0.001
H  H38  1  0.07604170  0.49022003  0.61506135  1  0.092783  0.000741  0.936124  0.0  0.095667  0.001585  1.009315  0.0  0.099216  0.001207  1.005101  0.0  0.096292  0.002581  0.10672  0.0915  0.002018  1.014816  0.001
H  H39  1  0.42396027  0.99021414  0.38494075  1  0.092779  0.000769  0.936117  0.0  0.09568  0.001585  1.009283  0.0  0.09923  0.001207  1.005067  0.0  0.096278  0.002581  0.106711  0.091482  0.002018  1.014817  0.001
H  H40  1  0.50016296  0.59432924  0.81794491  1  0.103786  0.000346  0.955559  0.0  0.111195  0.000402  1.024551  0.0  0.114477  0.000373  1.023102  0.0  0.077823  0.000114  0.095469  0.108204  0.000399  1.026516  0.0
H  H41  1  0.99983850  0.09433102  0.18205424  1  0.103783  0.000342  0.95558  0.0  0.111192  0.000402  1.024569  0.0  0.114474  0.000373  1.023119  0.0  0.077795  0.000114  0.095462  0.1082  0.000398  1.026536  0.0
H  H42  1  0.49984278  0.40567458  0.18205679  1  0.103802  0.000342  0.955543  0.0  0.111215  0.000402  1.024532  0.0  0.114497  0.000373  1.023085  0.0  0.077767  0.000114  0.095497  0.108221  0.000398  1.026493  0.0
H  H43  1  0.00015830  0.90567197  0.81794816  1  0.103826  0.000342  0.955577  0.0  0.111231  0.000402  1.024565  0.0  0.114512  0.000373  1.023117  0.0  0.077842  0.000114  0.095495  0.108238  0.000398  1.026529  0.0
H  H44  1  0.66422687  0.45994496  0.88378154  1  0.109581  0.000155  0.975755  0.0  0.116441  -5.1e-05  1.042864  0.0  0.120624  -4.1e-05  1.0412  0.0  0.123039  5e-06  0.090824  0.113049  -1.6e-05  1.043799  0.0
H  H45  1  0.83577637  0.95994482  0.11621825  1  0.109573  0.000156  0.975761  0.0  0.116439  -5.1e-05  1.042855  0.0  0.120619  -4.1e-05  1.041193  0.0  0.123054  5e-06  0.090803  0.113047  -1.6e-05  1.043789  0.0
H  H46  1  0.33577708  0.54006050  0.11621713  1  0.109509  0.000155  0.975817  0.0  0.116386  -5.1e-05  1.042905  0.0  0.120568  -4.2e-05  1.041242  0.0  0.122966  5e-06  0.090807  0.112994  -1.6e-05  1.043838  0.0
H  H47  1  0.16422221  0.04005489  0.88378558  1  0.109509  0.000148  0.975795  0.0  0.116376  -5.1e-05  1.042893  0.0  0.120556  -4.1e-05  1.041231  0.0  0.123059  5e-06  0.090788  0.112987  -1.6e-05  1.043824  0.0
C  C48  1  0.48870295  0.77893183  0.15392880  1  0.152817  0.006562  3.665126  0.006  0.117277  0.008305  3.925424  0.007  0.128601  0.007248  3.938091  0.006  0.51621  0.012058  0.053144  0.107453  0.009955  3.920344  0.008
C  C49  1  0.01129545  0.27893280  0.84606646  1  0.152858  0.006549  3.665147  0.006  0.117331  0.008309  3.925462  0.007  0.128665  0.007243  3.938126  0.006  0.516131  0.012063  0.053131  0.107505  0.009959  3.92038  0.008
C  C50  1  0.51129653  0.22107034  0.84606666  1  0.152796  0.006544  3.665019  0.006  0.117227  0.008314  3.925366  0.007  0.128558  0.007249  3.938029  0.006  0.5162  0.012072  0.053086  0.107401  0.009967  3.920286  0.008
C  C51  1  0.98870493  0.72106281  0.15393249  1  0.152793  0.006512  3.665032  0.006  0.117288  0.008314  3.925331  0.007  0.128616  0.007244  3.937995  0.006  0.515701  0.012063  0.053142  0.107464  0.009958  3.920248  0.008
C  C52  1  0.41429072  0.79364674  0.03843477  1  -0.118683  -0.002742  3.732644  -0.002  -0.131221  -0.001551  3.982852  -0.001  -0.137176  -0.002154  4.000817  -0.002  -0.025319  -0.001683  -0.088832  -0.127269  -0.001542  3.973166  -0.001
C  C53  1  0.08570589  0.29365017  0.96156143  1  -0.118633  -0.002677  3.732474  -0.002  -0.131136  -0.001542  3.982705  -0.001  -0.13709  -0.002156  4.000671  -0.002  -0.025789  -0.001685  -0.088835  -0.127185  -0.001543  3.973016  -0.001
C  C54  1  0.58570339  0.20635625  0.96156665  1  -0.118687  -0.002739  3.732656  -0.002  -0.131238  -0.001546  3.982909  -0.001  -0.137194  -0.002157  4.000878  -0.002  -0.025685  -0.001688  -0.088851  -0.127284  -0.001546  3.973222  -0.001
C  C55  1  0.91429628  0.70634707  0.03843501  1  -0.118634  -0.002694  3.732688  -0.002  -0.131112  -0.001556  3.982906  -0.001  -0.137067  -0.002157  4.000874  -0.002  -0.026053  -0.001684  -0.088867  -0.12716  -0.001542  3.973216  -0.001
C  C56  1  0.43596314  0.73393856  0.95540587  1  -0.048496  0.005245  3.705379  0.004  -0.070209  0.006108  3.951305  0.005  -0.066377  0.005418  3.966013  0.004  -0.110028  0.009405  -0.07055  -0.07502  0.007277  3.943431  0.005
C  C57  1  0.06403526  0.23394364  0.04459019  1  -0.048562  0.005201  3.705487  0.004  -0.070318  0.006097  3.95137  0.005  -0.066487  0.005424  3.966075  0.004  -0.110084  0.009411  -0.070553  -0.07513  0.007281  3.943492  0.005
C  C58  1  0.56403276  0.26606115  0.04458750  1  -0.048418  0.005266  3.705648  0.004  -0.070127  0.006099  3.951528  0.005  -0.066294  0.005419  3.966244  0.004  -0.109914  0.009413  -0.070513  -0.074934  0.007283  3.943648  0.005
C  C59  1  0.93596601  0.76605443  0.95541225  1  -0.048587  0.005241  3.705535  0.004  -0.070328  0.006107  3.9514  0.005  -0.066501  0.005424  3.966105  0.004  -0.10977  0.009407  -0.070555  -0.075136  0.007278  3.943522  0.005
C  C60  1  0.53119458  0.65792438  0.98807810  1  0.017554  -0.00159  3.808501  -0.002  0.033936  -0.000714  4.037894  -0.001  0.031117  -0.001203  4.061995  -0.001  0.016055  -0.000369  -0.00399  0.036606  -0.000375  4.022065  -0.001
C  C61  1  0.96880419  0.15792863  0.01192086  1  0.017512  -0.001564  3.808666  -0.001  0.034  -0.000717  4.037903  -0.001  0.031183  -0.001204  4.062003  -0.001  0.016193  -0.000371  -0.004031  0.03667  -0.000376  4.022072  -0.001
C  C62  1  0.46880400  0.34207862  0.01191941  1  0.017514  -0.001609  3.808502  -0.002  0.033944  -0.000716  4.037843  -0.001  0.031122  -0.001201  4.061945  -0.001  0.016246  -0.000373  -0.003943  0.036612  -0.000377  4.022014  -0.001
C  C63  1  0.03119708  0.84207272  0.98808237  1  0.017478  -0.001575  3.808609  -0.001  0.033987  -0.000716  4.037828  -0.001  0.03117  -0.001206  4.06193  -0.001  0.016305  -0.00037  -0.003958  0.036655  -0.000375  4.022  -0.001
C  C64  1  0.60299803  0.64997878  0.10674625  1  0.130179  0.003661  3.743873  0.004  0.123747  0.005418  3.978337  0.005  0.128644  0.004522  3.9997  0.004  0.431539  0.00688  0.118993  0.119794  0.005412  3.965317  0.005
C  C65  1  0.89700074  0.14997893  0.89325350  1  0.130138  0.003628  3.743994  0.003  0.123713  0.005418  3.978432  0.005  0.128614  0.004522  3.999796  0.004  0.43152  0.006883  0.118984  0.119759  0.005414  3.965412  0.005
C  C66  1  0.39700055  0.35002668  0.89324967  1  0.130295  0.003667  3.743996  0.004  0.123812  0.005418  3.978541  0.005  0.128713  0.004521  3.999903  0.004  0.431626  0.006885  0.118933  0.119855  0.005417  3.96552  0.005
C  C67  1  0.10299874  0.85001750  0.10674987  1  0.130243  0.003648  3.743611  0.004  0.123789  0.005421  3.978156  0.005  0.128683  0.004521  3.999518  0.004  0.43156  0.006881  0.118913  0.119837  0.005413  3.965135  0.005
C  C68  1  0.70228886  0.57530023  0.14479674  1  0.12985  0.002368  3.725657  0.002  0.123161  0.00432  3.96275  0.004  0.128158  0.003719  3.983465  0.003  0.468103  0.005526  0.11709  0.117838  0.004258  3.949892  0.004
C  C69  1  0.79771080  0.07530119  0.85520334  1  0.129911  0.002356  3.725612  0.002  0.123206  0.004317  3.96277  0.004  0.128205  0.003717  3.98348  0.003  0.468269  0.005527  0.117104  0.117881  0.004259  3.949914  0.004
C  C70  1  0.29771151  0.42470359  0.85520221  1  0.129811  0.002373  3.725629  0.002  0.123093  0.004317  3.962783  0.004  0.128089  0.003718  3.983497  0.003  0.468269  0.005533  0.117106  0.117769  0.004264  3.949923  0.004
C  C71  1  0.20229315  0.92469770  0.14479850  1  0.12994  0.002393  3.725401  0.002  0.123143  0.004321  3.962653  0.004  0.128145  0.003715  3.983365  0.003  0.468101  0.005527  0.117156  0.117818  0.004259  3.949797  0.004
C  C72  1  0.72272710  0.50540315  0.06381759  1  0.016977  -0.000823  3.80741  -0.001  0.03483  -0.000302  4.037746  0.0  0.032617  -0.000739  4.060174  -0.001  -0.002863  0.000966  -0.003671  0.0361  0.000572  4.02389  0.0
C  C73  1  0.77727168  0.00540412  0.93618295  1  0.016932  -0.000804  3.807347  -0.001  0.03472  -0.000299  4.037801  0.0  0.032503  -0.000736  4.060231  -0.001  -0.002979  0.000965  -0.00368  0.035994  0.000571  4.023943  0.0
C  C74  1  0.27726970  0.49460066  0.93618164  1  0.016964  -0.000828  3.807291  -0.001  0.03485  -0.000301  4.037611  0.0  0.032638  -0.000735  4.060037  -0.001  -0.002816  0.000967  -0.003681  0.03612  0.000573  4.023753  0.0
C  C75  1  0.22272601  0.99459477  0.06381819  1  0.016968  -0.000896  3.807537  -0.001  0.034852  -0.000301  4.037881  0.0  0.032633  -0.000737  4.060309  -0.001  -0.00291  0.000964  -0.003673  0.036124  0.000571  4.024022  0.0
C  C76  1  0.82090895  0.43256868  0.10507981  1  -0.04648  0.003748  3.679907  0.003  -0.070291  0.005047  3.926272  0.004  -0.065429  0.004798  3.940039  0.004  -0.00991  0.008176  -0.06662  -0.074028  0.006341  3.918891  0.005
C  C77  1  0.67908893  0.93256936  0.89491961  1  -0.046502  0.00376  3.679838  0.003  -0.070278  0.005041  3.926217  0.004  -0.065413  0.0048  3.939979  0.004  -0.009898  0.008182  -0.06668  -0.074017  0.006346  3.918838  0.005
C  C78  1  0.17908963  0.56743102  0.89492244  1  -0.046519  0.003828  3.679916  0.003  -0.070295  0.005044  3.926291  0.004  -0.065428  0.004789  3.940051  0.004  -0.010012  0.008176  -0.06665  -0.074031  0.006341  3.91891  0.005
C  C79  1  0.32090876  0.06742953  0.10507994  1  -0.046403  0.003951  3.679778  0.003  -0.070194  0.005051  3.92614  0.004  -0.065327  0.004796  3.939903  0.004  -0.009872  0.008182  -0.066608  -0.073931  0.006346  3.918756  0.005
C  C80  1  0.89262118  0.43331207  0.22017006  1  -0.125796  -0.000268  3.760459  0.0  -0.142103  0.000645  4.025574  0.001  -0.148313  -0.000114  4.042975  0.0  0.000673  0.001027  -0.093735  -0.139643  0.0008  4.016041  0.001
C  C81  1  0.60738027  0.93331192  0.77982830  1  -0.125744  -0.000285  3.760386  0.0  -0.142044  0.000647  4.025489  0.001  -0.148252  -0.000119  4.042886  0.0  0.000723  0.001027  -0.093676  -0.139584  0.000799  4.015955  0.001
C  C82  1  0.10738188  0.56669010  0.77983303  1  -0.12571  -0.000313  3.760394  0.0  -0.14205  0.000649  4.025471  0.001  -0.14826  -0.000109  4.04287  0.0  0.000727  0.001029  -0.093679  -0.139591  0.000801  4.015942  0.001
C  C83  1  0.39261920  0.06668696  0.22017270  1  -0.125833  -0.000291  3.760437  0.0  -0.142136  0.000638  4.02552  0.001  -0.148346  -0.000106  4.042919  0.0  0.000607  0.001025  -0.09372  -0.139674  0.000798  4.01598  0.001
C  C84  1  0.86671409  0.50625168  0.29418610  1  0.127497  0.006605  3.690356  0.006  0.0928  0.009136  3.962071  0.007  0.103944  0.008245  3.97356  0.006  0.4695  0.012497  0.046441  0.084448  0.010877  3.955805  0.008
C  C85  1  0.63328736  0.00625183  0.70581225  1  0.127461  0.006568  3.690471  0.005  0.092788  0.009136  3.962177  0.007  0.103931  0.008244  3.973669  0.006  0.469477  0.012502  0.046435  0.084436  0.010881  3.955921  0.008
C  C86  1  0.13328449  0.49374967  0.70581220  1  0.127426  0.006643  3.69032  0.006  0.09275  0.009133  3.962036  0.007  0.103892  0.008238  3.973527  0.006  0.469924  0.012501  0.046388  0.084384  0.010883  3.955767  0.008
C  C87  1  0.36671480  0.99374624  0.29418656  1  0.127451  0.006511  3.690509  0.005  0.092766  0.009135  3.962179  0.007  0.103908  0.008228  3.973669  0.006  0.469494  0.012499  0.046409  0.084426  0.010878  3.955916  0.008
C  C88  1  0.55593367  0.58805852  0.90881144  1  -0.083423  -9.4e-05  3.720712  0.0  -0.107097  -0.000198  3.980688  0.0  -0.109302  -0.000246  4.001723  0.0  -0.075537  0.000204  -0.083273  -0.106271  0.000313  3.967469  0.0
C  C89  1  0.94406779  0.08805948  0.09118850  1  -0.083404  -5.6e-05  3.720678  0.0  -0.10711  -0.000197  3.980616  0.0  -0.109315  -0.000245  4.00165  0.0  -0.075635  0.000203  -0.083264  -0.106286  0.000312  3.967398  0.0
C  C90  1  0.44406670  0.41194694  0.09118751  1  -0.08364  -3.1e-05  3.720995  0.0  -0.107324  -0.000197  3.980976  0.0  -0.109531  -0.000248  4.002016  0.0  -0.075646  0.000204  -0.083367  -0.106492  0.000313  3.967751  0.0
C  C91  1  0.05593169  0.91194022  0.90881408  1  -0.083454  -0.000128  3.720719  0.0  -0.10716  -0.000199  3.980648  0.0  -0.109366  -0.000246  4.001683  0.0  -0.075746  0.000203  -0.083285  -0.106332  0.000313  3.967429  0.0
C  C92  1  0.64711825  0.51345307  0.94536423  1  -0.096267  -0.000348  3.721393  0.0  -0.120225  -0.000205  3.978309  0.0  -0.123336  -0.000414  3.998322  0.0  -0.0438  -5.2e-05  -0.08746  -0.117654  -8.8e-05  3.965549  0.0
C  C93  1  0.85288321  0.01345321  0.05463570  1  -0.096293  -0.000371  3.721316  0.0  -0.120224  -0.000204  3.978255  0.0  -0.123334  -0.000414  3.998273  0.0  -0.043812  -5.1e-05  -0.087471  -0.117655  -8.7e-05  3.965496  0.0
C  C94  1  0.35288749  0.48654911  0.05463825  1  -0.096071  -0.000404  3.721503  0.0  -0.120038  -0.000203  3.978388  0.0  -0.123151  -0.00041  3.998407  0.0  -0.0438  -5.3e-05  -0.087438  -0.117467  -8.9e-05  3.965629  0.0
C  C95  1  0.14711896  0.98654568  0.94536706  1  -0.096244  -0.00029  3.721426  0.0  -0.120186  -0.000208  3.978307  0.0  -0.123297  -0.000414  3.998325  0.0  -0.043746  -5.1e-05  -0.087467  -0.117617  -8.7e-05  3.965546  0.0
S  S96  1  0.60264030  0.81033389  0.43942935  1  -0.637335  0.01297  2.137487  0.011  -0.556855  0.0124  2.543105  0.01  -0.589425  0.009825  2.528702  0.008  -0.910908  0.024827  -0.264539  -0.522191  0.016454  2.550892  0.014
S  S97  1  0.89735668  0.31033732  0.56056421  1  -0.637266  0.012967  2.137397  0.011  -0.55682  0.012405  2.543034  0.01  -0.589386  0.009823  2.52863  0.008  -0.910916  0.024828  -0.264515  -0.522156  0.016457  2.550827  0.014
S  S98  1  0.39736186  0.18966254  0.56056946  1  -0.637328  0.012966  2.137417  0.011  -0.556871  0.012396  2.543047  0.01  -0.589442  0.009818  2.52864  0.008  -0.910903  0.024815  -0.264551  -0.522206  0.016448  2.550834  0.014
S  S99  1  0.10263832  0.68966239  0.43943437  1  -0.637287  0.012949  2.137437  0.011  -0.556812  0.012395  2.543072  0.01  -0.589386  0.009806  2.528657  0.008  -0.91093  0.024817  -0.264527  -0.522149  0.01645  2.550859  0.014
S  S100  1  0.88556577  0.68999014  0.55223341  1  -0.648797  0.006539  2.169425  -0.001  -0.561803  0.006029  2.573383  -0.004  -0.594994  0.005051  2.55889  -0.004  -0.932714  0.014734  -0.276201  -0.531347  0.0103  2.585232  0.0
S  S101  1  0.61443210  0.18999357  0.44776918  1  -0.648868  0.006557  2.16946  -0.001  -0.56187  0.00603  2.573422  -0.004  -0.595065  0.005052  2.558938  -0.004  -0.932674  0.014739  -0.276259  -0.531411  0.010301  2.585275  0.0
S  S102  1  0.11443907  0.31000957  0.44776796  1  -0.648818  0.006559  2.169405  -0.001  -0.561808  0.006024  2.573292  -0.004  -0.594997  0.005057  2.558811  -0.004  -0.932703  0.014729  -0.276189  -0.531352  0.010295  2.585146  0.0
S  S103  1  0.38556290  0.81000860  0.55223019  1  -0.648827  0.00666  2.169427  0.0  -0.561809  0.006025  2.57334  -0.004  -0.595  0.005063  2.558857  -0.004  -0.932668  0.014741  -0.276211  -0.531353  0.010305  2.585193  0.0
S  S104  1  0.66130329  0.65447523  0.69254435  1  -0.573045  -0.042821  1.98013  -0.022  -0.503878  -0.04884  2.344649  -0.02  -0.524231  -0.043241  2.338328  -0.017  -0.866887  -0.069778  -0.258771  -0.481965  -0.055274  2.346417  -0.025
S  S105  1  0.83870353  0.15448195  0.30745595  1  -0.573079  -0.042835  1.980005  -0.022  -0.503893  -0.048837  2.344484  -0.02  -0.524248  -0.043239  2.338165  -0.017  -0.866819  -0.069777  -0.258791  -0.481973  -0.055277  2.346253  -0.025
S  S106  1  0.33870155  0.34552201  0.30745543  1  -0.573066  -0.04281  1.980048  -0.022  -0.503879  -0.048841  2.344533  -0.02  -0.524228  -0.043224  2.338208  -0.017  -0.866892  -0.06977  -0.258788  -0.481963  -0.055273  2.346301  -0.025
S  S107  1  0.16130042  0.84552351  0.69254588  1  -0.57305  -0.042859  1.980096  -0.022  -0.503854  -0.04884  2.344579  -0.02  -0.524206  -0.043223  2.338249  -0.017  -0.866927  -0.069785  -0.258773  -0.48194  -0.055277  2.346348  -0.025
S  S108  1  0.66307855  0.35382081  0.70273557  1  -0.659316  0.0109  2.03538  0.009  -0.58152  0.009826  2.440635  0.007  -0.624969  0.006902  2.429482  0.005  -0.92928  0.015756  -0.305106  -0.537591  0.010956  2.444072  0.008
S  S109  1  0.83692291  0.85382231  0.29726673  1  -0.659291  0.010868  2.035427  0.009  -0.581537  0.00983  2.440804  0.007  -0.624962  0.0069  2.429605  0.005  -0.92924  0.01577  -0.305103  -0.53761  0.010963  2.444243  0.008
S  S110  1  0.33692451  0.64617889  0.29726751  1  -0.659287  0.010882  2.035434  0.009  -0.58153  0.009831  2.440776  0.007  -0.624962  0.00689  2.4296  0.005  -0.92925  0.015765  -0.305105  -0.537604  0.010961  2.444217  0.008
S  S111  1  0.16307925  0.14617575  0.70273603  1  -0.659292  0.01079  2.035356  0.009  -0.581555  0.009835  2.440684  0.007  -0.62499  0.006902  2.429521  0.005  -0.929355  0.015769  -0.305114  -0.537628  0.010962  2.44412  0.008
S  S112  1  0.62098847  0.49923511  0.44607776  1  -0.632944  -0.068626  2.081206  -0.033  -0.554869  -0.072593  2.474108  -0.026  -0.587374  -0.064613  2.461314  -0.022  -0.911418  -0.090564  -0.250118  -0.523201  -0.074493  2.483647  -0.025
S  S113  1  0.87901388  0.99923250  0.55392092  1  -0.633019  -0.068675  2.081263  -0.033  -0.554934  -0.07259  2.47416  -0.026  -0.587443  -0.064602  2.461358  -0.022  -0.911371  -0.09055  -0.25013  -0.523272  -0.074486  2.483694  -0.025
S  S114  1  0.37901369  0.50076460  0.55392184  1  -0.633002  -0.068656  2.081243  -0.033  -0.554935  -0.072591  2.474164  -0.026  -0.587441  -0.064615  2.461368  -0.022  -0.91131  -0.090557  -0.25013  -0.523268  -0.074491  2.483699  -0.025
S  S115  1  0.12098918  0.00076474  0.44607901  1  -0.632969  -0.068678  2.081132  -0.033  -0.554941  -0.072584  2.474097  -0.026  -0.587448  -0.064608  2.461299  -0.022  -0.911483  -0.090559  -0.250142  -0.523276  -0.07449  2.48363  -0.025
N  N116  1  0.58167083  0.71029810  0.18748193  1  -0.308876  0.024014  3.243288  0.013  -0.242188  0.027332  3.511975  0.013  -0.261971  0.024205  3.526828  0.01  -1.245537  0.045211  -0.314891  -0.229899  0.029375  3.504944  0.015
N  N117  1  0.91832704  0.21029742  0.81251512  1  -0.308894  0.024032  3.243286  0.013  -0.242263  0.027333  3.512032  0.013  -0.262064  0.024204  3.526903  0.01  -1.245496  0.045204  -0.314846  -0.229974  0.029374  3.504999  0.015
N  N118  1  0.41832686  0.28970818  0.81251842  1  -0.308911  0.024034  3.243373  0.013  -0.242206  0.027331  3.512108  0.013  -0.261998  0.024205  3.52697  0.01  -1.245774  0.045211  -0.314831  -0.229915  0.029372  3.505069  0.015
N  N119  1  0.08167154  0.78969982  0.18748318  1  -0.308832  0.024035  3.243171  0.013  -0.242236  0.02733  3.511977  0.013  -0.262019  0.024207  3.526829  0.01  -1.245164  0.045203  -0.314881  -0.229945  0.029372  3.504941  0.015
N  N120  1  0.77441338  0.57607647  0.25804147  1  -0.317242  0.02627  3.243136  0.012  -0.253991  0.029915  3.523775  0.012  -0.273446  0.026222  3.537832  0.009  -1.252013  0.049159  -0.318461  -0.239303  0.031898  3.513559  0.014
N  N121  1  0.72558539  0.07607661  0.74195749  1  -0.317254  0.026262  3.24312  0.012  -0.254009  0.02992  3.523784  0.012  -0.273462  0.026223  3.537834  0.009  -1.252019  0.04916  -0.31845  -0.239321  0.031901  3.513564  0.014
N  N122  1  0.22558520  0.42392488  0.74195841  1  -0.317216  0.026232  3.243062  0.012  -0.253971  0.02992  3.523719  0.012  -0.273423  0.026227  3.537774  0.009  -1.252453  0.049164  -0.318431  -0.239286  0.031897  3.513508  0.014
N  N123  1  0.27441409  0.92392145  0.25804193  1  -0.317326  0.026261  3.243151  0.012  -0.254057  0.029922  3.523841  0.012  -0.273512  0.02623  3.537896  0.009  -1.251972  0.049157  -0.318478  -0.239368  0.031903  3.513623  0.014
