# generated using pymatgen
data_CuH9C11NO6
_symmetry_space_group_name_H-M   'P 1'
_cell_length_a   7.34504270
_cell_length_b   7.53925355
_cell_length_c   12.12591552
_cell_angle_alpha   105.09270798
_cell_angle_beta   89.38542109
_cell_angle_gamma   119.32612778
_symmetry_Int_Tables_number   1
_chemical_formula_structural   CuH9C11NO6
_chemical_formula_sum   'Cu2 H18 C22 N2 O12'
_cell_volume   559.77066334
_cell_formula_units_Z   2
loop_
 _symmetry_equiv_pos_site_id
 _symmetry_equiv_pos_as_xyz
  1  'x, y, z'
loop_
 _atom_site_type_symbol
 _atom_site_label
 _atom_site_symmetry_multiplicity
 _atom_site_fract_x
 _atom_site_fract_y
 _atom_site_fract_z
 _atom_site_occupancy
 _atom_site_hle17_ddec_charge
 _atom_site_hle17_ddec_spin_density
 _atom_site_hle17_ddec_sum_bond_order
 _atom_site_hle17_magmom
 _atom_site_hse06_10hf_ddec_charge
 _atom_site_hse06_10hf_ddec_spin_density
 _atom_site_hse06_10hf_ddec_sum_bond_order
 _atom_site_hse06_10hf_magmom
 _atom_site_hse06_ddec_charge
 _atom_site_hse06_ddec_spin_density
 _atom_site_hse06_ddec_sum_bond_order
 _atom_site_hse06_magmom
 _atom_site_pbe_cm5_charge
 _atom_site_pbe_ddec_charge
 _atom_site_pbe_ddec_spin_density
 _atom_site_pbe_ddec_sum_bond_order
 _atom_site_pbe_magmom
Cu  Cu0  1  0.32925553  0.44470585  0.16481480  1  0.945488  0.693362  1.693498  0.527  0.929133  0.789074  2.080895  0.651  1.037762  0.852448  1.983072  0.736  0.719679  0.869092  0.74305  2.133079  0.593
Cu  Cu1  1  0.67076201  0.55531312  0.83518739  1  0.945597  0.69337  1.693306  0.527  0.929169  0.789081  2.080833  0.651  1.037761  0.852451  1.983056  0.736  0.719685  0.869131  0.743064  2.133015  0.593
H  H2  1  0.72465517  0.53575314  0.11485968  1  0.413941  -4e-06  0.866298  0.0  0.391583  2.3e-05  0.927441  0.0  0.402531  -1.2e-05  0.911388  0.0  0.292632  0.383844  6.8e-05  0.938833  0.0
H  H3  1  0.27536136  0.46425008  0.88514422  1  0.413895  -8e-06  0.86642  0.0  0.391548  2.3e-05  0.927498  0.0  0.402494  -1.3e-05  0.911449  0.0  0.292598  0.383811  6.8e-05  0.93889  0.0
H  H4  1  0.79400356  0.76628964  0.18760236  1  0.413011  -1.4e-05  0.895259  0.0  0.386466  2e-06  0.954229  0.0  0.398434  1e-06  0.936995  0.0  0.279449  0.378185  1.3e-05  0.966118  0.0
H  H5  1  0.20598561  0.23371317  0.81239892  1  0.41311  -1.5e-05  0.89514  0.0  0.386555  2e-06  0.954123  0.0  0.398521  1e-06  0.936892  0.0  0.279481  0.378273  1.3e-05  0.966013  0.0
H  H6  1  0.27493190  0.08831870  0.03330191  1  0.44419  -0.000571  0.845318  -0.001  0.420294  0.000282  0.897411  0.0  0.431653  9.3e-05  0.881294  0.0  0.308651  0.412162  0.000453  0.908983  0.0
H  H7  1  0.72510645  0.91171803  0.96670883  1  0.444147  -0.000571  0.845364  -0.001  0.420263  0.000283  0.89743  0.0  0.43162  9.3e-05  0.881317  0.0  0.308584  0.412135  0.000453  0.908999  0.0
H  H8  1  0.44259530  0.27852217  0.98868283  1  0.412151  -0.000805  0.890563  -0.001  0.385885  0.000149  0.951731  0.0  0.396594  -9.4e-05  0.936782  0.0  0.299551  0.378209  0.000359  0.962585  0.0
H  H9  1  0.55744233  0.72151292  0.01132435  1  0.412262  -0.000807  0.890404  -0.001  0.385925  0.000149  0.951686  0.0  0.396639  -9.4e-05  0.936728  0.0  0.299535  0.378247  0.000359  0.962546  0.0
H  H10  1  0.17945827  0.10483477  0.46347993  1  0.105843  5.1e-05  0.933522  0.0  0.11987  3e-05  0.992346  0.0  0.122362  -7e-06  0.990629  0.0  0.113422  0.11799  7.3e-05  0.993821  0.0
H  H11  1  0.82053223  0.89514601  0.53652294  1  0.105848  5.2e-05  0.933601  0.0  0.119807  3e-05  0.992487  0.0  0.122297  -7e-06  0.990772  0.0  0.113371  0.117928  7.3e-05  0.993961  0.0
H  H12  1  0.20927596  0.00785294  0.63878734  1  0.105008  0.000282  0.960687  0.0  0.116392  0.000238  1.02002  0.0  0.118377  0.000147  1.0204  0.0  0.105579  0.114882  0.000322  1.01987  0.0
H  H13  1  0.79072092  0.99214044  0.36120922  1  0.104937  0.000286  0.960783  0.0  0.116341  0.000238  1.020094  0.0  0.118327  0.000148  1.020471  0.0  0.105553  0.11483  0.000322  1.019943  0.0
H  H14  1  0.24762487  0.76853839  0.73089953  1  0.114015  -5.7e-05  0.915385  0.0  0.12506  -4.1e-05  0.969247  0.0  0.128567  -3.9e-05  0.967008  0.0  0.112126  0.122325  -3.8e-05  0.971194  0.0
H  H15  1  0.75238759  0.23146474  0.26910187  1  0.114001  -5.5e-05  0.915448  0.0  0.125097  -4.2e-05  0.96926  0.0  0.128583  -3.9e-05  0.967046  0.0  0.112119  0.122362  -3.7e-05  0.971199  0.0
H  H16  1  0.30503195  0.48220371  0.61419835  1  0.103654  6e-06  0.944581  0.0  0.11277  3.9e-05  1.006907  0.0  0.115657  2.1e-05  1.004491  0.0  0.10402  0.110589  5.1e-05  1.008717  0.0
H  H17  1  0.69489701  0.51774299  0.38579584  1  0.10374  8e-06  0.944739  0.0  0.112842  3.9e-05  1.007042  0.0  0.115701  2.1e-05  1.004665  0.0  0.103983  0.110658  5.1e-05  1.008849  0.0
H  H18  1  0.32404686  0.43127732  0.40332102  1  0.109513  -0.000217  1.017865  0.0  0.118233  -8.6e-05  1.081497  0.0  0.121406  -0.000159  1.081357  0.0  0.104243  0.115882  -1e-06  1.081924  0.0
H  H19  1  0.67586745  0.56865338  0.59667068  1  0.109609  -0.000217  1.017713  0.0  0.11825  -8.6e-05  1.081455  0.0  0.12143  -0.000159  1.081312  0.0  0.104307  0.115898  -1e-06  1.081885  0.0
C  C20  1  0.16544734  0.07971626  0.23932431  1  0.643511  -0.007376  3.931881  -0.007  0.590369  -0.000948  4.24861  -0.002  0.628596  -0.00165  4.241992  -0.002  0.212299  0.564188  -0.00012  4.253387  -0.002
C  C21  1  0.83455257  0.92028356  0.76067819  1  0.643491  -0.007377  3.931683  -0.007  0.590282  -0.000951  4.248507  -0.002  0.628511  -0.001651  4.241894  -0.002  0.212318  0.564106  -0.000122  4.253284  -0.002
C  C22  1  0.20281202  0.94105917  0.29482134  1  -0.079706  0.013903  3.72208  0.015  -0.06217  0.006758  3.957577  0.008  -0.070341  0.004836  3.974832  0.006  -6.2e-05  -0.057042  0.008591  3.946381  0.01
C  C23  1  0.79718794  0.05894059  0.70517786  1  -0.079723  0.013886  3.72199  0.015  -0.062191  0.006758  3.957504  0.008  -0.070362  0.004836  3.974762  0.006  -4.7e-05  -0.057066  0.008591  3.946315  0.01
C  C24  1  0.20338422  0.97741390  0.41241588  1  -0.05954  -0.003564  3.668961  -0.002  -0.095331  -0.001003  3.918312  0.0  -0.090094  -0.00249  3.93246  -0.001  -0.059487  -0.099026  0.000201  3.909062  0.0
C  C25  1  0.79661308  0.02257473  0.58757913  1  -0.059587  -0.00353  3.66891  -0.002  -0.095308  -0.001002  3.918252  0.0  -0.090069  -0.002494  3.932398  -0.001  -0.059448  -0.099  0.000201  3.909004  0.0
C  C26  1  0.23537027  0.85061683  0.46764736  1  0.023535  0.005075  3.799882  0.006  0.041838  0.003051  4.029152  0.004  0.038349  0.002429  4.05354  0.003  0.000598  0.044082  0.003586  4.012557  0.004
C  C27  1  0.76461844  0.14936535  0.53234581  1  0.023659  0.005055  3.799947  0.006  0.041967  0.00305  4.02923  0.004  0.038478  0.002429  4.053619  0.003  0.000613  0.044212  0.003585  4.012634  0.004
C  C28  1  0.23291570  0.88049670  0.58786852  1  -0.108059  0.00174  3.724855  0.002  -0.13244  0.000577  3.98068  0.001  -0.136109  -0.00014  4.004905  0.0  -0.088304  -0.129739  0.001295  3.964159  0.001
C  C29  1  0.76708292  0.11949198  0.41212898  1  -0.107996  0.001768  3.724895  0.002  -0.13239  0.000574  3.980729  0.001  -0.136057  -0.000138  4.004944  0.0  -0.088271  -0.129691  0.001295  3.964201  0.001
C  C30  1  0.25467460  0.74780461  0.63889591  1  -0.033323  0.000739  3.705813  0.001  -0.052193  0.000444  3.966247  0.0  -0.053736  0.000584  3.985735  0.001  -0.076385  -0.051206  0.000286  3.953106  0.0
C  C31  1  0.74531890  0.25219034  0.36110335  1  -0.033306  0.000709  3.706096  0.001  -0.052231  0.000446  3.966534  0.0  -0.053753  0.000583  3.986011  0.001  -0.076385  -0.051243  0.000285  3.953388  0.0
C  C32  1  0.28593926  0.58361060  0.57140596  1  -0.025904  2.1e-05  3.721143  0.0  -0.043986  -0.000265  3.978519  0.0  -0.04227  -0.00107  3.997384  -0.001  -0.077459  -0.044964  0.000515  3.965576  0.0
C  C33  1  0.71402888  0.41636027  0.42858790  1  -0.026149  5e-05  3.721894  0.0  -0.044194  -0.000268  3.979206  0.0  -0.042458  -0.001068  3.99807  -0.001  -0.077434  -0.045164  0.000515  3.966251  0.0
C  C34  1  0.29556598  0.55416819  0.45481257  1  -0.166878  0.002425  3.711545  0.003  -0.188648  0.000945  3.96297  0.001  -0.196587  0.000837  3.98601  0.001  -0.094883  -0.183391  0.001037  3.947586  0.001
C  C35  1  0.70438831  0.44579928  0.54517744  1  -0.166789  0.002397  3.711509  0.003  -0.188489  0.000946  3.962939  0.001  -0.196432  0.000836  3.98597  0.001  -0.09494  -0.183239  0.001036  3.947563  0.001
C  C36  1  0.26799103  0.68436597  0.39911869  1  0.217545  -0.001747  3.736334  -0.001  0.218373  0.000645  3.977115  0.0  0.226494  -0.000858  4.000782  -0.001  0.11546  0.212951  0.001872  3.96173  0.002
C  C37  1  0.73200495  0.31562258  0.60087301  1  0.21744  -0.001725  3.736142  -0.001  0.218234  0.000647  3.977008  0.0  0.226353  -0.000858  4.000678  -0.001  0.115402  0.212816  0.001873  3.961622  0.002
C  C38  1  0.24244073  0.77966691  0.23299281  1  0.099079  -0.007169  3.711281  -0.005  0.092419  -0.00167  3.961936  -0.001  0.09871  -0.003216  3.980362  -0.002  0.120002  0.087471  -0.000769  3.951495  0.0
C  C39  1  0.75757724  0.22034731  0.76700782  1  0.099308  -0.007147  3.710992  -0.005  0.092673  -0.001667  3.961563  -0.001  0.098959  -0.003223  3.979998  -0.002  0.120044  0.087722  -0.000769  3.951129  0.0
C  C40  1  0.26257810  0.74546953  0.10641141  1  0.614808  -0.005766  3.887543  -0.005  0.567703  -0.000857  4.185341  -0.001  0.601602  -0.000818  4.17979  -0.001  0.217948  0.544297  -0.000962  4.189186  -0.001
C  C41  1  0.73746216  0.25456570  0.89360240  1  0.614421  -0.005761  3.887377  -0.005  0.567442  -0.000855  4.184984  -0.001  0.601341  -0.000815  4.179433  -0.001  0.217825  0.54404  -0.00096  4.188835  -0.001
N  N42  1  0.27296724  0.65518050  0.28273040  1  -0.360696  0.065223  3.254819  0.086  -0.332409  0.046276  3.560057  0.066  -0.364394  0.03638  3.577112  0.056  -0.323865  -0.314405  0.052642  3.550298  0.07
N  N43  1  0.72703081  0.34482078  0.71726655  1  -0.36075  0.065216  3.254613  0.086  -0.332486  0.04628  3.559897  0.066  -0.364466  0.036387  3.576955  0.056  -0.323832  -0.31448  0.052649  3.550136  0.07
O  O44  1  0.23489251  0.84933496  0.05113694  1  -0.528546  0.014594  1.94933  0.02  -0.48903  0.006848  2.160662  0.01  -0.511511  0.002835  2.15036  0.005  -0.278202  -0.472234  0.011781  2.166852  0.017
O  O45  1  0.76516561  0.15071151  0.94887451  1  -0.528298  0.014585  1.94941  0.02  -0.488818  0.006846  2.160649  0.01  -0.511297  0.002831  2.150349  0.005  -0.278061  -0.472014  0.011772  2.166823  0.017
O  O46  1  0.31570849  0.60287711  0.06147129  1  -0.629904  0.068696  2.137131  0.097  -0.583372  0.047798  2.402728  0.073  -0.627927  0.036534  2.38976  0.06  -0.321035  -0.555511  0.055005  2.411104  0.08
O  O47  1  0.68431700  0.39715763  0.93852425  1  -0.629912  0.068674  2.137105  0.097  -0.583409  0.047787  2.402679  0.073  -0.627953  0.036531  2.389708  0.06  -0.321105  -0.55555  0.054993  2.411054  0.08
O  O48  1  0.98380699  0.02778041  0.20131389  1  -0.571309  0.001558  1.983181  0.003  -0.532332  0.000825  2.213693  0.002  -0.559228  -0.000695  2.204801  0.001  -0.289914  -0.513761  0.002349  2.219959  0.004
O  O49  1  0.01619561  0.97223054  0.79869197  1  -0.57131  0.001556  1.983184  0.003  -0.532302  0.000824  2.213736  0.002  -0.559189  -0.000696  2.204822  0.001  -0.289907  -0.513731  0.002348  2.220002  0.004
O  O50  1  0.33566218  0.25725573  0.24647588  1  -0.591326  0.095358  2.125091  0.133  -0.566627  0.055524  2.420015  0.085  -0.616295  0.040504  2.41259  0.067  -0.320567  -0.535107  0.065343  2.423954  0.094
O  O51  1  0.66432197  0.74274220  0.75352052  1  -0.591351  0.095374  2.124838  0.133  -0.566633  0.055528  2.419816  0.085  -0.616288  0.040507  2.412367  0.067  -0.320591  -0.53511  0.065348  2.423755  0.094
O  O52  1  0.70192820  0.61463120  0.18647146  1  -0.842456  -0.001301  1.821829  0.0  -0.803711  -0.001315  2.000362  0.0  -0.82724  -0.00175  1.96211  0.0  -0.603322  -0.788299  -0.00078  2.025697  0.0
O  O53  1  0.29807368  0.38536706  0.81353081  1  -0.842546  -0.001296  1.821836  0.0  -0.803776  -0.001313  2.000362  0.0  -0.827298  -0.001749  1.96211  0.0  -0.60333  -0.788362  -0.000779  2.025691  0.0
O  O54  1  0.30695489  0.22479905  0.02058872  1  -0.767667  0.065542  1.957345  0.09  -0.734154  0.046657  2.159362  0.069  -0.771384  0.035351  2.123282  0.057  -0.572178  -0.71149  0.053774  2.183702  0.075
O  O55  1  0.69308201  0.77523440  0.97941574  1  -0.767729  0.06554  1.957137  0.09  -0.734149  0.046655  2.159231  0.069  -0.771373  0.03535  2.123154  0.057  -0.57206  -0.711492  0.053772  2.183563  0.075
