# generated using pymatgen
data_NaH13C6SO9
_symmetry_space_group_name_H-M   'P 1'
_cell_length_a   4.83236022
_cell_length_b   4.94500391
_cell_length_c   21.30077741
_cell_angle_alpha   90.00072772
_cell_angle_beta   95.19773343
_cell_angle_gamma   90.00151469
_symmetry_Int_Tables_number   1
_chemical_formula_structural   NaH13C6SO9
_chemical_formula_sum   'Na2 H26 C12 S2 O18'
_cell_volume   506.91119958
_cell_formula_units_Z   2
loop_
 _symmetry_equiv_pos_site_id
 _symmetry_equiv_pos_as_xyz
  1  'x, y, z'
loop_
 _atom_site_type_symbol
 _atom_site_label
 _atom_site_symmetry_multiplicity
 _atom_site_fract_x
 _atom_site_fract_y
 _atom_site_fract_z
 _atom_site_occupancy
 _atom_site_hle17_bader_spin_density
 _atom_site_hle17_ddec_charge
 _atom_site_hle17_ddec_spin_density
 _atom_site_hle17_ddec_sum_bond_order
 _atom_site_hle17_magmom
 _atom_site_hse06_10hf_bader_charge
 _atom_site_hse06_10hf_bader_spin_density
 _atom_site_hse06_10hf_ddec_charge
 _atom_site_hse06_10hf_ddec_spin_density
 _atom_site_hse06_10hf_ddec_sum_bond_order
 _atom_site_hse06_10hf_magmom
 _atom_site_hse06_bader_spin_density
 _atom_site_hse06_ddec_charge
 _atom_site_hse06_ddec_spin_density
 _atom_site_hse06_ddec_sum_bond_order
 _atom_site_hse06_magmom
 _atom_site_pbe_bader_spin_density
 _atom_site_pbe_cm5_charge
 _atom_site_pbe_ddec_charge
 _atom_site_pbe_ddec_spin_density
 _atom_site_pbe_ddec_sum_bond_order
 _atom_site_pbe_magmom
Na  Na0  1  0.26625716  0.04561998  0.94887237  1  0  0.917036  0  0.384966  0  0.892546  0  0.886496  0  0.526582  0  0  0.894229  0  0.50734  0  0  0.735063  0.880774  0  0.540351  0
Na  Na1  1  0.73376072  0.54561333  0.05112983  1  0  0.917052  0  0.384961  0  0.892585  0  0.886492  0  0.526618  0  0  0.894242  0  0.507332  0  0  0.735083  0.880758  0  0.540412  0
H  H2  1  0.40302407  0.62053083  0.82525274  1  0  0.097847  0  0.920205  0  0.127339  0  0.103031  0  0.982741  0  0  0.106232  0  0.980018  0  0  0.124696  0.100653  0  0.984904  0
H  H3  1  0.59698809  0.12053452  0.17474995  1  0  0.097834  0  0.92026  0  0.127227  0  0.103003  0  0.982771  0  0  0.106203  0  0.980044  0  0  0.12469  0.100629  0  0.984935  0
H  H4  1  0.86278767  0.58611775  0.77766190  1  0  0.065203  0  0.920288  0  0.069301  0  0.072408  0  0.985335  0  0  0.07402  0  0.983656  0  0  0.112526  0.071141  0  0.986696  0
H  H5  1  0.13721604  0.08610640  0.22233940  1  0  0.065142  0  0.920331  0  0.069169  0  0.072324  0  0.985347  0  0  0.073936  0  0.98367  0  0  0.112501  0.071062  0  0.986704  0
H  H6  1  0.40732322  0.19543526  0.72518992  1  0  0.06297  0  0.918739  0  0.073327  0  0.071278  0  0.983172  0  0  0.072771  0  0.981345  0  0  0.111198  0.070054  0  0.984699  0
H  H7  1  0.59267055  0.69544190  0.27481024  1  0  0.062922  0  0.918725  0  0.073392  0  0.071224  0  0.983186  0  0  0.072712  0  0.981363  0  0  0.111175  0.070016  0  0.984693  0
H  H8  1  0.86550187  0.16244179  0.67754577  1  0  0.061027  0  0.918038  0  0.091939  0  0.067456  0  0.983732  0  0  0.069335  0  0.981461  0  0  0.109648  0.065974  0  0.985596  0
H  H9  1  0.13449604  0.66243542  0.32245367  1  0  0.061086  0  0.91809  0  0.091877  0  0.067507  0  0.98373  0  0  0.069384  0  0.98146  0  0  0.109674  0.066022  0  0.985596  0
H  H10  1  0.38646522  0.40532685  0.59155374  1  0  0.047676  0  0.909239  0  0.06076  0  0.059024  0  0.970024  0  0  0.059869  0  0.969067  0  0  0.108013  0.058261  0  0.971007  0
H  H11  1  0.61352683  0.90533967  0.40844449  1  0  0.047665  0  0.909315  0  0.060819  0  0.059022  0  0.97007  0  0  0.059865  0  0.969114  0  0  0.10803  0.058264  0  0.971048  0
H  H12  1  0.82988469  0.35914387  0.53886802  1  0  0.072193  0  0.937261  0  0.076598  0  0.082956  0  1.006935  0  0  0.084376  0  1.004949  0  0  0.103081  0.081831  0  1.008495  0
H  H13  1  0.17010663  0.85915062  0.46113088  1  0  0.072275  0  0.937312  0  0.076517  0  0.082993  0  1.007023  0  0  0.084417  0  1.005029  0  0  0.103107  0.08187  0  1.008585  0
H  H14  1  0.55627794  0.14520675  0.50722782  1  0  0.049398  0  0.941756  0  0.05411  0  0.061815  0  1.014258  0  0  0.062112  0  1.01387  0  0  0.095383  0.061511  0  1.014633  0
H  H15  1  0.44370651  0.64522560  0.49277241  1  0  0.049449  0  0.941721  0  0.054104  0  0.061899  0  1.014187  0  0  0.062198  0  1.013796  0  0  0.0954  0.061594  0  1.01456  0
H  H16  1  0.22170273  0.21245538  0.82838288  1  0  0.370033  0  0.92376  0  0.660298  0  0.345166  0  0.995746  0  0  0.355755  0  0.984132  0  0  0.299188  0.337752  0  1.003786  0
H  H17  1  0.77829410  0.71246220  0.17161631  1  0  0.370031  0  0.923756  0  0.660209  0  0.345137  0  0.995782  0  0  0.355725  0  0.984171  0  0  0.299203  0.337724  0  1.003822  0
H  H18  1  0.82995737  0.05104498  0.82323428  1  0  0.393694  0  0.864157  0  0.676868  0  0.365766  0  0.940831  0  0  0.376246  0  0.928657  0  0  0.311075  0.358314  0  0.949486  0
H  H19  1  0.17002325  0.55102755  0.17676444  1  0  0.393723  0  0.8641  0  0.676774  0  0.365723  0  0.940884  0  0  0.376196  0  0.928715  0  0  0.311016  0.358275  0  0.949533  0
H  H20  1  0.44856932  0.73781869  0.68255555  1  0  0.384476  0  0.88047  0  0.630365  0  0.354  0  0.96297  0  0  0.364583  0  0.950239  0  0  0.304157  0.346457  0  0.972037  0
H  H21  1  0.55144157  0.23782888  0.31744424  1  0  0.384436  0  0.880531  0  0.630367  0  0.353966  0  0.963027  0  0  0.364546  0  0.950297  0  0  0.304132  0.346421  0  0.972097  0
H  H22  1  0.04499628  0.57330400  0.67425460  1  0  0.374093  0  0.920554  0  0.660853  0  0.347495  0  0.993163  0  0  0.35814  0  0.98137  0  0  0.296434  0.339989  0  1.001452  0
H  H23  1  0.95501061  0.07329833  0.32574400  1  0  0.374103  0  0.920591  0  0.660837  0  0.347508  0  0.9932  0  0  0.358151  0  0.981407  0  0  0.296446  0.340006  0  1.001473  0
H  H24  1  0.19977367  0.99633458  0.59496850  1  0  0.368315  0  0.933219  0  0.674829  0  0.343367  0  1.002987  0  0  0.353975  0  0.991353  0  0  0.294596  0.335906  0  1.011093  0
H  H25  1  0.80020958  0.49635000  0.40503151  1  0  0.368262  0  0.933338  0  0.67501  0  0.343284  0  1.00315  0  0  0.353897  0  0.991497  0  0  0.294549  0.335825  0  1.011238  0
H  H26  1  0.80638572  0.82347204  0.58796595  1  0  0.373503  0  0.898077  0  0.64972  0  0.345097  0  0.977275  0  0  0.355271  0  0.965297  0  0  0.301352  0.337886  0  0.985713  0
H  H27  1  0.19359721  0.32347772  0.41203344  1  0  0.37348  0  0.897966  0  0.649754  0  0.345041  0  0.977214  0  0  0.355213  0  0.965242  0  0  0.301346  0.337829  0  0.985648  0
C  C28  1  0.54947280  0.45350220  0.83691401  1  0  0.006388  0  3.631736  0  0.379693  0  -0.015233  0  3.892643  0  0  -0.014142  0  3.899799  0  0  -0.000146  -0.016114  0  3.887919  0
C  C29  1  0.45053272  0.95350600  0.16308610  1  0  0.006364  0  3.63177  0  0.379753  0  -0.015193  0  3.892483  0  0  -0.014097  0  3.899636  0  0  -0.00015  -0.016084  0  3.887777  0
C  C30  1  0.72855125  0.40906733  0.78219493  1  0  0.145765  0  3.605372  0  0.489746  0  0.110542  0  3.865972  0  0  0.116165  0  3.875245  0  0  -0.012761  0.106737  0  3.859663  0
C  C31  1  0.27145570  0.90906328  0.21780541  1  0  0.145741  0  3.605299  0  0.489898  0  0.110662  0  3.865599  0  0  0.116276  0  3.874875  0  0  -0.012757  0.106846  0  3.859302  0
C  C32  1  0.54238418  0.37164438  0.72021363  1  0  0.138407  0  3.571511  0  0.4514  0  0.103311  0  3.833043  0  0  0.108553  0  3.841952  0  0  -0.012881  0.099711  0  3.82701  0
C  C33  1  0.45761427  0.87164706  0.27978721  1  0  0.138497  0  3.571515  0  0.451401  0  0.103326  0  3.833019  0  0  0.108565  0  3.84193  0  0  -0.012868  0.099723  0  3.82699  0
C  C34  1  0.71522395  0.32491419  0.66440035  1  0  0.131695  0  3.610287  0  0.452024  0  0.101427  0  3.867887  0  0  0.106219  0  3.876935  0  0  -0.012579  0.098135  0  3.861728  0
C  C35  1  0.28477157  0.82491120  0.33559971  1  0  0.131483  0  3.610605  0  0.451953  0  0.101332  0  3.867978  0  0  0.106123  0  3.877026  0  0  -0.01265  0.098041  0  3.861825  0
C  C36  1  0.53378877  0.23959261  0.60492348  1  0  0.159668  0  3.632937  0  0.481742  0  0.131456  0  3.89455  0  0  0.136443  0  3.904117  0  0  -0.011887  0.12799  0  3.888041  0
C  C37  1  0.46620553  0.73959793  0.39507507  1  0  0.15976  0  3.633074  0  0.481688  0  0.13154  0  3.894586  0  0  0.13653  0  3.904154  0  0  -0.01185  0.128059  0  3.88809  0
C  C38  1  0.70194467  0.18403131  0.54911351  1  0  0.071447  0  3.629643  0  0.424025  0  0.002016  0  3.91206  0  0  0.009058  0  3.916419  0  0  -0.085799  -0.002737  0  3.909102  0
C  C39  1  0.29804837  0.68404304  0.45088622  1  0  0.071236  0  3.629747  0  0.424138  0  0.001755  0  3.912198  0  0  0.008796  0  3.916553  0  0  -0.085864  -0.002999  0  3.909242  0
S  S40  1  0.75686941  0.57505324  0.90737685  1  0  1.301428  0  5.62462  0  3.232849  0  1.210623  0  6.151612  0  0  1.255876  0  6.12702  0  0  0.501775  1.179314  0  6.167927  0
S  S41  1  0.24313369  0.07505768  0.09262543  1  0  1.301546  0  5.624596  0  3.232685  0  1.21071  0  6.151552  0  0  1.255961  0  6.126964  0  0  0.501807  1.179405  0  6.167857  0
O  O42  1  0.41236547  0.21267732  0.85167800  1  0  -0.571769  0  2.128718  0  -1.197946  0  -0.534166  0  2.369248  0  0  -0.547832  0  2.356695  0  0  -0.442805  -0.524366  0  2.377653  0
O  O43  1  0.58763339  0.71268717  0.14832029  1  0  -0.571723  0  2.12872  0  -1.197808  0  -0.534156  0  2.369304  0  0  -0.547808  0  2.356711  0  0  -0.442808  -0.52435  0  2.377715  0
O  O44  1  0.90605502  0.17734489  0.79290378  1  0  -0.551593  0  2.081226  0  -1.199395  0  -0.4956  0  2.300514  0  0  -0.513027  0  2.288722  0  0  -0.383156  -0.483384  0  2.308582  0
O  O45  1  0.09393965  0.67733412  0.20709554  1  0  -0.551618  0  2.081037  0  -1.199311  0  -0.495595  0  2.300326  0  0  -0.513008  0  2.288531  0  0  -0.383099  -0.483374  0  2.308392  0
O  O46  1  0.36346055  0.60291788  0.70943880  1  0  -0.555834  0  2.084782  0  -1.155992  0  -0.500447  0  2.309471  0  0  -0.517755  0  2.297283  0  0  -0.388056  -0.488175  0  2.317793  0
O  O47  1  0.63654832  0.10292606  0.29056205  1  0  -0.555732  0  2.084764  0  -1.156035  0  -0.500411  0  2.309523  0  0  -0.517706  0  2.297327  0  0  -0.388021  -0.48814  0  2.317844  0
O  O48  1  0.85678611  0.56849541  0.65016866  1  0  -0.592175  0  2.111289  0  -1.206481  0  -0.538076  0  2.344532  0  0  -0.555528  0  2.332411  0  0  -0.401264  -0.525675  0  2.352708  0
O  O49  1  0.14321649  0.06848711  0.34983224  1  0  -0.592122  0  2.111433  0  -1.206451  0  -0.538043  0  2.344618  0  0  -0.555498  0  2.3325  0  0  -0.401231  -0.525641  0  2.352779  0
O  O50  1  0.38641400  0.00070310  0.61997121  1  0  -0.596125  0  2.104695  0  -1.21993  0  -0.543365  0  2.337935  0  0  -0.560731  0  2.325745  0  0  -0.404842  -0.53099  0  2.346154  0
O  O51  1  0.61357396  0.50071633  0.38002834  1  0  -0.596072  0  2.104923  0  -1.219988  0  -0.543277  0  2.338118  0  0  -0.560645  0  2.32592  0  0  -0.404801  -0.530901  0  2.346336  0
O  O52  1  0.88615778  0.95743242  0.55994660  1  0  -0.54135  0  2.113016  0  -1.191651  0  -0.479749  0  2.338227  0  0  -0.497594  0  2.327067  0  0  -0.400036  -0.467113  0  2.345722  0
O  O53  1  0.11382305  0.45743826  0.44005308  1  0  -0.541328  0  2.112861  0  -1.191779  0  -0.479639  0  2.338051  0  0  -0.497487  0  2.32689  0  0  -0.400059  -0.467  0  2.345534  0
O  O54  1  0.55783498  0.68626942  0.94885319  1  0  -0.756601  0  1.987323  0  -1.384016  0  -0.720136  0  2.259726  0  0  -0.736837  0  2.240782  0  0  -0.46344  -0.708416  0  2.272524  0
O  O55  1  0.44218323  0.18627004  0.05114837  1  0  -0.756641  0  1.98721  0  -1.383663  0  -0.720247  0  2.259746  0  0  -0.736953  0  2.240804  0  0  -0.463526  -0.708518  0  2.272535  0
O  O56  1  0.90689243  0.34624895  0.93784347  1  0  -0.718736  0  1.967676  0  -1.380433  0  -0.681157  0  2.233971  0  0  -0.698232  0  2.215961  0  0  -0.410357  -0.669232  0  2.24614  0
O  O57  1  0.09311489  0.84625386  0.06215810  1  0  -0.718716  0  1.967752  0  -1.380653  0  -0.681139  0  2.234064  0  0  -0.698222  0  2.216059  0  0  -0.41028  -0.66921  0  2.246231  0
O  O58  1  0.93866213  0.78043304  0.88222048  1  0  -0.70807  0  1.996216  0  -1.374467  0  -0.656778  0  2.256136  0  0  -0.677533  0  2.241483  0  0  -0.378166  -0.642173  0  2.265883  0
O  O59  1  0.06135156  0.28042984  0.11778197  1  0  -0.708142  0  1.996403  0  -1.37449  0  -0.656773  0  2.25625  0  0  -0.677532  0  2.241598  0  0  -0.3782  -0.642169  0  2.265996  0
