# generated using pymatgen
data_MnH11C14NO6
_symmetry_space_group_name_H-M   'P 1'
_cell_length_a   13.33357697
_cell_length_b   15.85345774
_cell_length_c   16.70978220
_cell_angle_alpha   89.99979796
_cell_angle_beta   108.19207036
_cell_angle_gamma   89.99761319
_symmetry_Int_Tables_number   1
_chemical_formula_structural   MnH11C14NO6
_chemical_formula_sum   'Mn8 H88 C112 N8 O48'
_cell_volume   3355.61437409
_cell_formula_units_Z   8
loop_
 _symmetry_equiv_pos_site_id
 _symmetry_equiv_pos_as_xyz
  1  'x, y, z'
loop_
 _atom_site_type_symbol
 _atom_site_label
 _atom_site_symmetry_multiplicity
 _atom_site_fract_x
 _atom_site_fract_y
 _atom_site_fract_z
 _atom_site_occupancy
 _atom_site_pbe_bader_charge
 _atom_site_pbe_bader_spin_density
 _atom_site_pbe_cm5_charge
 _atom_site_pbe_ddec_charge
 _atom_site_pbe_ddec_spin_density
 _atom_site_pbe_ddec_sum_bond_order
 _atom_site_pbe_magmom
Mn  Mn0  1  0.74926721  0.88916542  0.97695561  1  1.488205  4.541625  0.617617  0.974252  4.67016  2.321663  4.443
Mn  Mn1  1  0.75071370  0.38917806  0.52302878  1  1.48808  4.541669  0.617649  0.974355  4.670046  2.321553  4.443
Mn  Mn2  1  0.25074242  0.11082587  0.02304318  1  1.488228  4.541614  0.617661  0.974316  4.670122  2.321616  4.443
Mn  Mn3  1  0.24926505  0.61082457  0.47696174  1  1.488154  4.541651  0.617699  0.974363  4.670109  2.32144  4.443
Mn  Mn4  1  0.73357456  0.63723928  0.04067746  1  1.494117  4.538267  0.604463  0.933587  4.676638  2.390758  4.457
Mn  Mn5  1  0.76640130  0.13722618  0.45930076  1  1.494054  4.538302  0.604445  0.933476  4.676617  2.390872  4.457
Mn  Mn6  1  0.26640636  0.36276651  0.95931051  1  1.494355  4.538222  0.604466  0.933501  4.676644  2.390895  4.457
Mn  Mn7  1  0.23362761  0.86276447  0.54071885  1  1.494324  4.538171  0.604557  0.933551  4.676541  2.390945  4.457
H  H8  1  0.06372412  0.48746956  0.38351587  1  0.105712  0.001076  0.11797  0.08653  0.000256  1.003481  0.001
H  H9  1  0.43629516  0.98747711  0.11649021  1  0.106025  0.001076  0.117901  0.086425  0.000256  1.00336  0.001
H  H10  1  0.93625727  0.51250532  0.61650216  1  0.106586  0.001076  0.117906  0.086495  0.000256  1.0035  0.001
H  H11  1  0.56372066  0.01251228  0.88349670  1  0.105981  0.001076  0.117844  0.08645  0.000256  1.003316  0.001
H  H12  1  0.86617784  0.49215724  0.32999266  1  0.0919  0.000736  0.107548  0.116848  0.00024  1.030325  0.0
H  H13  1  0.63384074  0.99216661  0.17000670  1  0.092444  0.000736  0.107588  0.116947  0.00024  1.030374  0.0
H  H14  1  0.13379588  0.50782269  0.67001537  1  0.091922  0.000736  0.107613  0.116965  0.000241  1.03032  0.0
H  H15  1  0.36617906  0.00782720  0.82998164  1  0.091758  0.000736  0.107574  0.116819  0.00024  1.030521  0.0
H  H16  1  0.88198750  0.70924084  0.48984833  1  0.117484  0.000547  0.114457  0.127304  0.000235  1.009082  0.0
H  H17  1  0.61800700  0.20923736  0.01013394  1  0.117361  0.000547  0.114431  0.127357  0.000235  1.00916  0.0
H  H18  1  0.11799803  0.29077125  0.51013881  1  0.117666  0.000547  0.114556  0.127451  0.000235  1.009062  0.0
H  H19  1  0.38199752  0.79077222  0.98985838  1  0.117656  0.000547  0.114505  0.127365  0.000235  1.00903  0.0
H  H20  1  0.07649546  0.69848757  0.53221317  1  0.136025  0.001869  0.120845  0.089539  0.000962  1.022304  0.001
H  H21  1  0.42350523  0.19847787  0.96776667  1  0.13633  0.001869  0.120807  0.089511  0.000962  1.022298  0.001
H  H22  1  0.92349072  0.30152579  0.46777231  1  0.13641  0.001869  0.1208  0.089479  0.000962  1.022355  0.001
H  H23  1  0.57649946  0.80152350  0.03222808  1  0.136405  0.001869  0.120816  0.089527  0.000963  1.022275  0.001
H  H24  1  0.70676506  0.59045645  0.30831923  1  0.083653  0.000416  0.111357  0.092293  8.6e-05  0.989162  0.0
H  H25  1  0.79324985  0.09045465  0.19166547  1  0.083799  0.000416  0.111367  0.092411  8.6e-05  0.989163  0.0
H  H26  1  0.29321356  0.40954492  0.69168085  1  0.083125  0.000416  0.111321  0.092246  8.5e-05  0.989215  0.0
H  H27  1  0.20677453  0.90954483  0.80831004  1  0.083306  0.000416  0.111359  0.092249  8.5e-05  0.989322  0.0
H  H28  1  0.70453568  0.56536928  0.41166516  1  0.128888  0.001048  0.126629  0.121396  0.000613  0.958366  0.0
H  H29  1  0.79547180  0.06536412  0.08831715  1  0.128982  0.00105  0.126528  0.121339  0.000614  0.958335  0.0
H  H30  1  0.29544456  0.43463336  0.58833586  1  0.128923  0.001049  0.126646  0.121374  0.000613  0.958508  0.0
H  H31  1  0.20453498  0.93464419  0.91165108  1  0.12915  0.001049  0.126616  0.121409  0.000614  0.958363  0.0
H  H32  1  0.72769219  0.69072683  0.23255174  1  0.128694  2.3e-05  0.113818  0.136974  -0.000516  1.023165  0.0
H  H33  1  0.77230188  0.19072854  0.26743072  1  0.128919  2.3e-05  0.113863  0.136949  -0.000516  1.023208  0.0
H  H34  1  0.27228087  0.30926887  0.76744658  1  0.128826  2.3e-05  0.113852  0.136823  -0.000516  1.02333  0.0
H  H35  1  0.22772663  0.80926716  0.73256004  1  0.129036  2.3e-05  0.113896  0.136859  -0.000516  1.0233  0.0
H  H36  1  0.80246237  0.95489462  0.23990143  1  0.102663  0.000679  0.106482  0.111689  -4.4e-05  1.038287  0.0
H  H37  1  0.69753511  0.45489975  0.26008566  1  0.102684  0.000679  0.106482  0.111683  -4.4e-05  1.038394  0.0
H  H38  1  0.19753929  0.04509477  0.76009449  1  0.102363  0.00068  0.106474  0.111688  -4.4e-05  1.038248  0.0
H  H39  1  0.30245315  0.54508838  0.73990744  1  0.102385  0.000679  0.106504  0.111792  -4.4e-05  1.038321  0.0
H  H40  1  0.74638807  0.83776588  0.45489397  1  0.114114  0.000286  0.110325  0.12507  9.2e-05  1.039347  0.0
H  H41  1  0.75359243  0.33776792  0.04508649  1  0.113806  0.000286  0.110333  0.124999  9.2e-05  1.039551  0.0
H  H42  1  0.25359968  0.16223802  0.54510323  1  0.114152  0.000286  0.1103  0.125023  9.2e-05  1.039393  0.0
H  H43  1  0.24637869  0.66223535  0.95489464  1  0.114052  0.000286  0.110309  0.125025  9.2e-05  1.039446  0.0
H  H44  1  0.80227088  0.07128416  0.71695196  1  0.116383  0.000262  0.104061  0.111543  -0.000222  1.034508  0.0
H  H45  1  0.69772309  0.57128823  0.78303023  1  0.116535  0.000262  0.10401  0.111532  -0.000222  1.034384  0.0
H  H46  1  0.19777254  0.92872037  0.28307549  1  0.115781  0.000262  0.104007  0.111603  -0.000221  1.034403  0.0
H  H47  1  0.30224816  0.42870810  0.21695272  1  0.115796  0.000262  0.10402  0.111565  -0.000222  1.034412  0.0
H  H48  1  0.74736065  0.33640304  0.73415276  1  0.124147  5.9e-05  0.106329  0.118549  -0.000325  1.064368  0.0
H  H49  1  0.75262413  0.83640888  0.76584519  1  0.124063  5.9e-05  0.106322  0.118582  -0.000325  1.064294  0.0
H  H50  1  0.25263614  0.66359329  0.26586311  1  0.123962  6e-05  0.106311  0.118574  -0.000325  1.064305  0.0
H  H51  1  0.24736416  0.16358934  0.23415991  1  0.123996  6e-05  0.106322  0.118506  -0.000325  1.064444  0.0
H  H52  1  0.74726681  0.17061169  0.93975160  1  0.116883  0.000355  0.107725  0.123548  -2.9e-05  1.03033  0.0
H  H53  1  0.75273289  0.67062083  0.56023993  1  0.116677  0.000355  0.107708  0.123532  -2.9e-05  1.030325  0.0
H  H54  1  0.25277851  0.82939157  0.06028105  1  0.117326  0.000354  0.10771  0.123485  -2.9e-05  1.03046  0.0
H  H55  1  0.24727623  0.32938180  0.43976295  1  0.116645  0.000355  0.107744  0.123551  -2.9e-05  1.030321  0.0
H  H56  1  0.73495897  0.45027419  0.91876021  1  0.136466  0.00034  0.11696  0.120942  -0.000211  1.004515  0.0
H  H57  1  0.76507215  0.95027986  0.58123501  1  0.136842  0.00034  0.117007  0.121004  -0.000211  1.00449  0.0
H  H58  1  0.26501985  0.54972971  0.08124291  1  0.136674  0.00034  0.116947  0.120996  -0.000211  1.004714  0.0
H  H59  1  0.23496847  0.04972026  0.41877387  1  0.136502  0.00034  0.116974  0.121065  -0.000211  1.004568  0.0
H  H60  1  0.71913223  0.42922359  0.80995523  1  0.109091  6.2e-05  0.106506  0.094144  -8e-06  1.016723  0.0
H  H61  1  0.78088461  0.92922923  0.69003671  1  0.109156  6.2e-05  0.1065  0.094119  -8e-06  1.016663  0.0
H  H62  1  0.28085232  0.57077463  0.19005209  1  0.108992  6.2e-05  0.106541  0.094293  -8e-06  1.016655  0.0
H  H63  1  0.21913393  0.07077152  0.30996755  1  0.109312  6.2e-05  0.106543  0.094168  -8e-06  1.016841  0.0
H  H64  1  0.88141006  0.43737934  0.76858860  1  0.093384  0.000571  0.112457  0.122379  0.000207  1.008222  0.0
H  H65  1  0.61861965  0.93746296  0.73139272  1  0.095221  0.00057  0.112489  0.122466  0.000207  1.008359  0.0
H  H66  1  0.11857599  0.56263717  0.23141782  1  0.093402  0.000571  0.112413  0.122316  0.000207  1.0083  0.0
H  H67  1  0.38139969  0.06260149  0.26858893  1  0.09374  0.000571  0.112476  0.122412  0.000207  1.008194  0.0
H  H68  1  0.07738973  0.41974178  0.80765401  1  0.108503  0.00126  0.118595  0.087763  0.000604  1.008985  0.001
H  H69  1  0.42265021  0.91980472  0.69235540  1  0.108757  0.001259  0.118756  0.087876  0.000603  1.00911  0.001
H  H70  1  0.92259611  0.58027222  0.19234938  1  0.108627  0.001259  0.1186  0.08788  0.000604  1.008852  0.001
H  H71  1  0.57737369  0.08025343  0.30763620  1  0.108353  0.00126  0.118613  0.087709  0.000604  1.008909  0.001
H  H72  1  0.10309516  0.37182164  0.05662367  1  0.099744  0.001278  0.116666  0.084734  0.000489  1.022794  0.001
H  H73  1  0.39692272  0.87178497  0.44340238  1  0.100184  0.001278  0.116613  0.084613  0.00049  1.022852  0.001
H  H74  1  0.89689055  0.62818226  0.94337789  1  0.099597  0.001278  0.116683  0.084709  0.00049  1.022788  0.001
H  H75  1  0.60310885  0.12816784  0.55661059  1  0.100219  0.001278  0.116688  0.084774  0.00049  1.02265  0.001
H  H76  1  0.90785581  0.38343215  0.02761274  1  0.090628  0.00077  0.112174  0.122785  0.000361  1.001773  0.0
H  H77  1  0.59215393  0.88340223  0.47239175  1  0.090205  0.00077  0.112167  0.122757  0.000361  1.001885  0.0
H  H78  1  0.09213464  0.61657427  0.97238982  1  0.090397  0.00077  0.112213  0.122823  0.000361  1.001795  0.0
H  H79  1  0.40787440  0.11654931  0.52761935  1  0.090646  0.00077  0.112181  0.122702  0.000361  1.002007  0.0
H  H80  1  0.89009235  0.90288184  0.90844852  1  0.655047  0.000719  0.288795  0.377216  0.001327  0.968206  0.001
H  H81  1  0.60989307  0.40290486  0.59152822  1  0.655167  0.000715  0.288869  0.377279  0.001327  0.968133  0.001
H  H82  1  0.10992561  0.09710503  0.09155861  1  0.654992  0.000717  0.288769  0.377093  0.001328  0.96839  0.001
H  H83  1  0.39009362  0.59709777  0.40845317  1  0.654935  0.000716  0.288762  0.37717  0.001327  0.968274  0.001
H  H84  1  0.93379914  0.81527371  0.95388523  1  0.597463  0.004143  0.320284  0.394109  0.002708  0.890744  0.003
H  H85  1  0.56617391  0.31529948  0.54608959  1  0.597155  0.00415  0.320448  0.394325  0.002707  0.890554  0.003
H  H86  1  0.06619265  0.18470432  0.04610262  1  0.597796  0.004144  0.320318  0.394268  0.002709  0.890771  0.003
H  H87  1  0.43380546  0.68470758  0.45389866  1  0.597783  0.004142  0.320323  0.394289  0.002707  0.890702  0.003
H  H88  1  0.56373203  0.56244353  0.98418263  1  0.648585  0.000438  0.310434  0.391832  0.00047  0.921049  0.001
H  H89  1  0.93625818  0.06242673  0.51580550  1  0.648165  0.00044  0.310326  0.391595  0.00047  0.921238  0.001
H  H90  1  0.43624529  0.43756289  0.01583276  1  0.648261  0.000439  0.310426  0.391754  0.00047  0.920895  0.001
H  H91  1  0.06376481  0.93756519  0.48419550  1  0.648262  0.000439  0.310383  0.391603  0.00047  0.921212  0.001
H  H92  1  0.52372608  0.64346574  0.93145729  1  0.627745  0.001736  0.326404  0.403292  0.000849  0.871398  0.001
H  H93  1  0.97623414  0.14345245  0.56852456  1  0.628331  0.001736  0.326331  0.403066  0.000849  0.871422  0.001
H  H94  1  0.47624925  0.35653752  0.06855169  1  0.627853  0.001737  0.326463  0.403331  0.000849  0.871282  0.001
H  H95  1  0.02378207  0.85653253  0.43149119  1  0.628278  0.001734  0.326305  0.40313  0.000848  0.87132  0.001
C  C96  1  0.01951896  0.53598976  0.40446575  1  0.553919  0.008421  0.049747  0.097554  0.006776  3.958839  0.006
C  C97  1  0.48049364  0.03599617  0.09553595  1  0.553642  0.008422  0.049691  0.097637  0.006777  3.958579  0.006
C  C98  1  0.98046206  0.46399143  0.59554682  1  0.55031  0.008422  0.049932  0.097794  0.006774  3.958369  0.006
C  C99  1  0.51951919  0.96399637  0.90445272  1  0.552505  0.008423  0.049857  0.097683  0.006776  3.958584  0.006
C  C100  1  0.90980466  0.53870597  0.37556264  1  -0.100411  7e-05  -0.081571  -0.175185  -0.000814  3.939784  0.0
C  C101  1  0.59020781  0.03871288  0.12443669  1  -0.100681  7e-05  -0.081564  -0.175254  -0.000815  3.939705  0.0
C  C102  1  0.09017607  0.46127711  0.62444567  1  -0.098845  7e-05  -0.08176  -0.175568  -0.000814  3.939854  0.0
C  C103  1  0.40980676  0.96128219  0.87555475  1  -0.10076  7.1e-05  -0.081594  -0.175154  -0.000814  3.940007  0.0
C  C104  1  0.85704127  0.60170368  0.40524471  1  -0.011001  0.007369  0.012499  0.132366  0.005592  3.946513  0.005
C  C105  1  0.64296865  0.10170535  0.09474777  1  -0.011317  0.007372  0.012536  0.132403  0.005594  3.946491  0.005
C  C106  1  0.14294507  0.39829202  0.59475459  1  -0.010963  0.007368  0.012614  0.132558  0.005591  3.946708  0.005
C  C107  1  0.35704040  0.89829729  0.90524251  1  -0.010541  0.007369  0.012528  0.132368  0.005593  3.946707  0.005
C  C108  1  0.91826168  0.65898277  0.46411059  1  0.030654  0.000334  -0.084811  -0.183339  -0.000349  3.951215  0.0
C  C109  1  0.58173964  0.15898172  0.03587685  1  0.031274  0.000333  -0.08481  -0.183496  -0.000349  3.951288  0.0
C  C110  1  0.08172255  0.34102239  0.53588048  1  0.030222  0.000335  -0.084909  -0.183554  -0.000349  3.951307  0.0
C  C111  1  0.41826725  0.84102471  0.96411597  1  0.031022  0.000334  -0.08488  -0.183464  -0.000349  3.951297  0.0
C  C112  1  0.02737649  0.65282187  0.48855535  1  0.36613  0.008954  0.048914  0.094831  0.007259  3.963663  0.006
C  C113  1  0.47262618  0.15281782  0.01143357  1  0.366025  0.008955  0.04889  0.094946  0.007261  3.963662  0.006
C  C114  1  0.97260949  0.34718266  0.51143848  1  0.365982  0.008953  0.04888  0.094914  0.007259  3.963593  0.006
C  C115  1  0.52737918  0.84718292  0.98855953  1  0.365429  0.008955  0.048946  0.094929  0.00726  3.963456  0.006
C  C116  1  0.73842532  0.60821073  0.37521105  1  0.387743  0.000425  -0.051552  -0.032941  0.000334  3.873005  0.0
C  C117  1  0.76158154  0.10820871  0.12477290  1  0.387105  0.000425  -0.051454  -0.033121  0.000335  3.87338  0.0
C  C118  1  0.26155642  0.39178749  0.62478908  1  0.388448  0.000425  -0.051566  -0.032989  0.000335  3.873359  0.0
C  C119  1  0.23842902  0.89179392  0.87520511  1  0.387695  0.000425  -0.05153  -0.032876  0.000335  3.873283  0.0
C  C120  1  0.73157972  0.75695420  0.34791921  1  0.401897  -0.001041  0.079904  0.24773  -0.001332  4.077502  -0.001
C  C121  1  0.76840933  0.25695492  0.15206123  1  0.401876  -0.00104  0.079874  0.247651  -0.001332  4.077155  -0.001
C  C122  1  0.26839882  0.24304339  0.65207965  1  0.40078  -0.001041  0.080047  0.24779  -0.001332  4.07693  -0.001
C  C123  1  0.23159325  0.74304646  0.84792530  1  0.401315  -0.001041  0.079878  0.247602  -0.001333  4.077513  -0.001
C  C124  1  0.74079871  0.75017587  0.26698893  1  -0.008666  0.007869  -0.091146  -0.211067  0.005789  3.912688  0.005
C  C125  1  0.75919458  0.25017848  0.23299369  1  -0.006445  0.007866  -0.091141  -0.210906  0.005788  3.912892  0.005
C  C126  1  0.25917975  0.24981983  0.73300871  1  -0.005378  0.007867  -0.091213  -0.210909  0.005789  3.912667  0.005
C  C127  1  0.24082153  0.74981785  0.76699747  1  -0.005006  0.007869  -0.091181  -0.210851  0.005791  3.912844  0.005
C  C128  1  0.76633552  0.82225312  0.22858504  1  -0.000752  0.000218  -0.02027  -0.022445  -0.001393  4.018999  -0.001
C  C129  1  0.73365838  0.32225653  0.27139965  1  -0.002741  0.00022  -0.020374  -0.022637  -0.001392  4.01913  -0.001
C  C130  1  0.23365078  0.17774006  0.77141365  1  -0.003489  0.000218  -0.020236  -0.022491  -0.001394  4.019254  -0.001
C  C131  1  0.26634929  0.67773601  0.72859334  1  -0.003863  0.000219  -0.020334  -0.022485  -0.001393  4.019194  -0.001
C  C132  1  0.78238295  0.89974622  0.27035000  1  -0.074722  0.009699  -0.09148  -0.146371  0.007155  3.983475  0.006
C  C133  1  0.71760995  0.39975108  0.22963574  1  -0.074563  0.009698  -0.091415  -0.146375  0.007154  3.983639  0.006
C  C134  1  0.21760634  0.10024885  0.72964692  1  -0.074612  0.009699  -0.091358  -0.146218  0.007155  3.983518  0.006
C  C135  1  0.28238361  0.60024084  0.77035549  1  -0.074066  0.009702  -0.091504  -0.146517  0.007157  3.983597  0.006
C  C136  1  0.77311935  0.90592278  0.35109055  1  -0.010813  -0.001712  -0.020884  -0.016335  -0.002829  4.031629  -0.003
C  C137  1  0.72686779  0.40592891  0.14889210  1  -0.011899  -0.001711  -0.020903  -0.016172  -0.002829  4.031172  -0.003
C  C138  1  0.22686836  0.09407418  0.64890604  1  -0.010607  -0.001712  -0.020985  -0.016501  -0.002829  4.03166  -0.003
C  C139  1  0.27311561  0.59406868  0.85109820  1  -0.01142  -0.001712  -0.020862  -0.016439  -0.00283  4.031293  -0.003
C  C140  1  0.74925186  0.83429971  0.39048395  1  0.019135  0.008917  -0.088211  -0.203741  0.006953  3.927557  0.005
C  C141  1  0.75073542  0.33430437  0.10949738  1  0.020009  0.008916  -0.088293  -0.203849  0.006952  3.927345  0.005
C  C142  1  0.25073826  0.16569662  0.60951375  1  0.01925  0.008919  -0.088277  -0.20376  0.006954  3.92753  0.005
C  C143  1  0.24925305  0.66569764  0.89048738  1  0.019049  0.008919  -0.088211  -0.203628  0.006955  3.927634  0.005
C  C144  1  0.78581046  0.98954952  0.39397749  1  1.49044  0.008729  0.201987  0.556335  0.010057  4.213175  0.006
C  C145  1  0.71417498  0.48955780  0.10600896  1  1.490522  0.008724  0.202019  0.556101  0.010054  4.212303  0.006
C  C146  1  0.21418904  0.01044807  0.60602097  1  1.49065  0.008729  0.201958  0.556267  0.010058  4.212901  0.006
C  C147  1  0.28580580  0.51044358  0.89398857  1  1.49057  0.008732  0.201998  0.556347  0.01006  4.212361  0.006
C  C148  1  0.76946612  0.81886893  0.14019348  1  1.5686  0.029114  0.231463  0.600529  0.029321  4.168038  0.026
C  C149  1  0.73052683  0.31886996  0.35979285  1  1.568487  0.029117  0.231685  0.600899  0.029317  4.167298  0.026
C  C150  1  0.23052408  0.18112551  0.85980543  1  1.568571  0.029112  0.231537  0.600622  0.029319  4.167821  0.026
C  C151  1  0.26948010  0.68112069  0.64020058  1  1.568841  0.02912  0.231755  0.600882  0.029328  4.167299  0.026
C  C152  1  0.78822773  0.02446664  0.86813240  1  1.542464  0.010294  0.217772  0.581229  0.010771  4.178279  0.009
C  C153  1  0.71176788  0.52448075  0.63184302  1  1.541134  0.010298  0.217815  0.581309  0.010771  4.178733  0.009
C  C154  1  0.21180362  0.97553410  0.13188892  1  1.542665  0.01029  0.217849  0.58146  0.010772  4.177966  0.009
C  C155  1  0.28822039  0.47552063  0.36813870  1  1.542011  0.010291  0.217743  0.581237  0.010769  4.178309  0.009
C  C156  1  0.77336676  0.11153640  0.83124256  1  -0.035419  0.000538  -0.020761  -0.019698  -0.00027  4.008398  0.0
C  C157  1  0.72663493  0.61154398  0.66874426  1  -0.034059  0.000535  -0.020722  -0.019749  -0.000271  4.008343  0.0
C  C158  1  0.22668313  0.88846813  0.16878865  1  -0.035277  0.000538  -0.020841  -0.019789  -0.00027  4.00869  0.0
C  C159  1  0.27335391  0.38845487  0.33124597  1  -0.03532  0.000537  -0.020764  -0.019698  -0.000271  4.008436  0.0
C  C160  1  0.78419040  0.12416332  0.75148105  1  0.002042  0.007333  -0.090893  -0.135157  0.005431  3.9633  0.004
C  C161  1  0.71580470  0.62416770  0.74850420  1  0.001594  0.007336  -0.090989  -0.135348  0.005433  3.963363  0.004
C  C162  1  0.21585792  0.87584121  0.24854983  1  0.003211  0.007336  -0.090774  -0.135311  0.005433  3.963447  0.004
C  C163  1  0.28417310  0.37582863  0.25148372  1  0.002871  0.007333  -0.090962  -0.13548  0.005431  3.96344  0.004
C  C164  1  0.77456542  0.20525464  0.71747516  1  -0.075157  0.002508  -0.026626  -0.029375  0.001077  4.031316  0.001
C  C165  1  0.72542421  0.70525804  0.78251015  1  -0.074837  0.002505  -0.026265  -0.028943  0.001075  4.031562  0.001
C  C166  1  0.22545676  0.79474800  0.28254843  1  -0.075974  0.002508  -0.026729  -0.029463  0.001077  4.031288  0.001
C  C167  1  0.27455940  0.29473702  0.21748318  1  -0.075177  0.002506  -0.026427  -0.029074  0.001077  4.0315  0.001
C  C168  1  0.75489355  0.27418203  0.76284357  1  -0.012705  0.005577  -0.100284  -0.221726  0.004074  3.953969  0.003
C  C169  1  0.74510297  0.77418890  0.73714937  1  -0.012463  0.005578  -0.100522  -0.222069  0.004075  3.954099  0.003
C  C170  1  0.24513111  0.72581935  0.23718234  1  -0.013024  0.005579  -0.100084  -0.221531  0.004076  3.953691  0.003
C  C171  1  0.25488960  0.22581058  0.26285004  1  -0.011947  0.005577  -0.100408  -0.22177  0.004074  3.954073  0.003
C  C172  1  0.74478658  0.26142707  0.84273261  1  0.421993  -0.000662  0.077672  0.249692  -0.00085  4.067991  -0.001
C  C173  1  0.75521422  0.76143397  0.65726201  1  0.421458  -0.000663  0.077868  0.25001  -0.000851  4.06758  -0.001
C  C174  1  0.25523891  0.73857557  0.15729407  1  0.421796  -0.000662  0.077524  0.249539  -0.00085  4.068647  -0.001
C  C175  1  0.24478556  0.23856614  0.34274071  1  0.421825  -0.000662  0.077826  0.250006  -0.00085  4.067679  -0.001
C  C176  1  0.75307741  0.17998251  0.87677810  1  0.003845  0.006501  -0.089061  -0.19521  0.0049  3.918241  0.004
C  C177  1  0.74692004  0.67999104  0.62321162  1  0.003646  0.006504  -0.089012  -0.195132  0.004902  3.917961  0.004
C  C178  1  0.24695912  0.82002013  0.12325091  1  0.004492  0.006502  -0.088945  -0.194903  0.004901  3.918333  0.004
C  C179  1  0.25307871  0.32001033  0.37678728  1  0.003669  0.006501  -0.089061  -0.195202  0.004899  3.918102  0.004
C  C180  1  0.78741547  0.21975814  0.63281721  1  1.54804  0.02394  0.222572  0.596615  0.023552  4.189473  0.022
C  C181  1  0.71256796  0.71975516  0.86716479  1  1.546592  0.023955  0.222418  0.596504  0.023562  4.189686  0.022
C  C182  1  0.21258675  0.78024702  0.36719860  1  1.54794  0.023952  0.222544  0.596697  0.023563  4.189468  0.022
C  C183  1  0.28741876  0.28023486  0.13282860  1  1.547389  0.023947  0.222543  0.596613  0.023553  4.189873  0.022
C  C184  1  0.75967295  0.40970092  0.87515439  1  0.353048  0.000225  -0.064182  -0.053425  0.000142  3.845836  0.0
C  C185  1  0.74034676  0.90970931  0.62483843  1  0.352955  0.000225  -0.064148  -0.053374  0.000142  3.845666  0.0
C  C186  1  0.24031641  0.59030424  0.12485513  1  0.35308  0.000225  -0.064307  -0.053843  0.000143  3.845872  0.0
C  C187  1  0.25967875  0.09029206  0.37516549  1  0.353189  0.000225  -0.064227  -0.053633  0.000143  3.84611  0.0
C  C188  1  0.87792301  0.41060864  0.89498197  1  0.029522  0.008563  0.010571  0.130544  0.006567  3.9512  0.005
C  C189  1  0.62209890  0.91063526  0.60501070  1  0.028229  0.008566  0.01048  0.130346  0.006569  3.951523  0.005
C  C190  1  0.12206453  0.58940724  0.10502357  1  0.029352  0.008563  0.010513  0.130535  0.006567  3.950935  0.005
C  C191  1  0.37792924  0.08937810  0.39498598  1  0.029678  0.008561  0.010581  0.130596  0.006565  3.951146  0.005
C  C192  1  0.92741574  0.42286762  0.83339259  1  0.027538  -0.000408  -0.077417  -0.171755  -0.000969  3.935331  0.0
C  C193  1  0.57261054  0.92292234  0.66659902  1  0.026555  -0.000409  -0.077481  -0.171825  -0.000969  3.935935  0.0
C  C194  1  0.07257184  0.57715078  0.16661356  1  0.027249  -0.000408  -0.077292  -0.171466  -0.000969  3.935405  0.0
C  C195  1  0.42741005  0.07711877  0.33338949  1  0.027051  -0.000407  -0.077409  -0.171734  -0.000968  3.935171  0.0
C  C196  1  0.03638054  0.41308354  0.85454714  1  0.41406  0.010034  0.05305  0.101496  0.007864  3.935788  0.007
C  C197  1  0.46364681  0.91313590  0.64545733  1  0.414075  0.010037  0.052735  0.101147  0.007868  3.936405  0.007
C  C198  1  0.96360534  0.58693172  0.14545686  1  0.413827  0.010035  0.052983  0.10121  0.007863  3.936073  0.007
C  C199  1  0.53637410  0.08690585  0.35453604  1  0.414625  0.010032  0.052978  0.101518  0.007863  3.935491  0.007
C  C200  1  0.05035957  0.38487865  0.99342713  1  0.4167  0.009245  0.045409  0.085071  0.007325  3.972429  0.006
C  C201  1  0.44965944  0.88487487  0.50658919  1  0.416449  0.009248  0.045723  0.085507  0.007328  3.97269  0.006
C  C202  1  0.94962784  0.61513156  0.00657659  1  0.417293  0.009243  0.045487  0.085266  0.007325  3.9721  0.006
C  C203  1  0.55036856  0.11510948  0.49341705  1  0.416522  0.009244  0.045498  0.085173  0.007327  3.972444  0.006
C  C204  1  0.94219530  0.39244431  0.97697448  1  -0.02704  -0.000842  -0.080321  -0.171101  -0.001477  3.945877  -0.001
C  C205  1  0.55781977  0.89244601  0.52302781  1  -0.027023  -0.000842  -0.080455  -0.171286  -0.001477  3.946425  -0.001
C  C206  1  0.05779361  0.60756653  0.02302835  1  -0.026688  -0.000842  -0.08042  -0.171211  -0.001477  3.945513  -0.001
C  C207  1  0.44220488  0.10753960  0.47697473  1  -0.027442  -0.000842  -0.080381  -0.171077  -0.001476  3.946293  -0.001
N  N208  1  0.07817182  0.59268093  0.45931325  1  -1.27524  0.05344  -0.325795  -0.269332  0.034821  3.539122  0.018
N  N209  1  0.42183364  0.09268279  0.04068073  1  -1.275688  0.053428  -0.325695  -0.26934  0.034818  3.538891  0.018
N  N210  1  0.92180846  0.40731225  0.54068837  1  -1.274234  0.053411  -0.325792  -0.2694  0.034825  3.538993  0.018
N  N211  1  0.57817628  0.90731228  0.95931093  1  -1.274106  0.053429  -0.325813  -0.269452  0.034823  3.53925  0.018
N  N212  1  0.09737034  0.39343179  0.93307546  1  -1.255044  0.053889  -0.321556  -0.256578  0.035638  3.522818  0.016
N  N213  1  0.40265367  0.89344859  0.56694118  1  -1.255104  0.053914  -0.321493  -0.256413  0.035628  3.522945  0.016
N  N214  1  0.90261541  0.60658031  0.06692671  1  -1.255203  0.053887  -0.321546  -0.256687  0.035641  3.522993  0.016
N  N215  1  0.59736848  0.10656162  0.43305904  1  -1.255554  0.053883  -0.321618  -0.256715  0.035634  3.522845  0.016
O  O216  1  0.78996695  0.88671109  0.10728155  1  -1.184622  0.083228  -0.305768  -0.540147  0.055459  2.28235  0.036
O  O217  1  0.71002480  0.38671428  0.39270534  1  -1.18465  0.083257  -0.305928  -0.540398  0.055464  2.282297  0.036
O  O218  1  0.21003113  0.11328019  0.89271901  1  -1.184817  0.08323  -0.305849  -0.540272  0.055457  2.282182  0.036
O  O219  1  0.28997437  0.61327511  0.60728826  1  -1.184908  0.083234  -0.30588  -0.540362  0.055463  2.282171  0.036
O  O220  1  0.74625567  0.74986223  0.09942929  1  -1.237375  0.094829  -0.317826  -0.587365  0.068663  2.446753  0.04
O  O221  1  0.75373774  0.24986071  0.40055456  1  -1.236835  0.094778  -0.317859  -0.587447  0.068655  2.446316  0.04
O  O222  1  0.25373118  0.25013284  0.90056592  1  -1.237206  0.094829  -0.317852  -0.587341  0.06866  2.446645  0.04
O  O223  1  0.24627446  0.75012868  0.59943638  1  -1.237084  0.094808  -0.317993  -0.58747  0.068676  2.446437  0.04
O  O224  1  0.77097711  0.05673009  0.34927997  1  -1.18737  0.05209  -0.316729  -0.55989  0.036211  2.18757  0.026
O  O225  1  0.72901922  0.55673578  0.15071451  1  -1.18734  0.052076  -0.316777  -0.559859  0.036206  2.187162  0.026
O  O226  1  0.22904280  0.94326876  0.65072157  1  -1.187621  0.0521  -0.316718  -0.559891  0.036221  2.187493  0.026
O  O227  1  0.27097371  0.44326054  0.84929037  1  -1.187399  0.05209  -0.316822  -0.559989  0.03622  2.187254  0.026
O  O228  1  0.80759350  0.99267851  0.47414794  1  -1.165344  0.04656  -0.313841  -0.570174  0.033329  2.212523  0.026
O  O229  1  0.69237836  0.49269306  0.02583982  1  -1.165777  0.046539  -0.313785  -0.56997  0.033323  2.211936  0.026
O  O230  1  0.19239815  0.00731971  0.52584948  1  -1.165333  0.046529  -0.313823  -0.570121  0.033317  2.212443  0.026
O  O231  1  0.30758445  0.50731210  0.97415634  1  -1.165623  0.046547  -0.313766  -0.57006  0.033328  2.212122  0.026
O  O232  1  0.75658691  0.01108886  0.93248124  1  -1.196924  0.076064  -0.323053  -0.57101  0.051221  2.286236  0.034
O  O233  1  0.74338814  0.51110917  0.56748348  1  -1.196939  0.076079  -0.32307  -0.571065  0.051224  2.286496  0.034
O  O234  1  0.24343233  0.98890873  0.06753335  1  -1.197868  0.07609  -0.323072  -0.571061  0.051222  2.286051  0.034
O  O235  1  0.25659618  0.48889347  0.43249742  1  -1.196806  0.07607  -0.323031  -0.570952  0.05122  2.286107  0.034
O  O236  1  0.83015316  0.96883959  0.83423314  1  -1.174587  0.009207  -0.313391  -0.556204  0.005969  2.168323  0.006
O  O237  1  0.66984843  0.46885462  0.66574423  1  -1.174049  0.00921  -0.313444  -0.556207  0.005971  2.168372  0.006
O  O238  1  0.16985633  0.03115737  0.16577521  1  -1.173801  0.009208  -0.313391  -0.55626  0.005969  2.168339  0.006
O  O239  1  0.33013983  0.53114676  0.33423750  1  -1.174279  0.009207  -0.313381  -0.5562  0.005968  2.168316  0.006
O  O240  1  0.78349017  0.15493874  0.58638900  1  -1.210719  0.076944  -0.318604  -0.57678  0.053991  2.370106  0.036
O  O241  1  0.71648770  0.65493154  0.91359098  1  -1.20931  0.076962  -0.318603  -0.576811  0.053995  2.370163  0.036
O  O242  1  0.21653168  0.84506516  0.41362973  1  -1.210955  0.076968  -0.318583  -0.576773  0.054  2.370031  0.036
O  O243  1  0.28348466  0.34505596  0.08639699  1  -1.210439  0.076974  -0.318695  -0.57694  0.053989  2.370266  0.036
O  O244  1  0.80172927  0.29494880  0.61222521  1  -1.219346  0.077247  -0.32144  -0.590587  0.05427  2.403882  0.035
O  O245  1  0.69824510  0.79494304  0.88776038  1  -1.219577  0.077292  -0.321455  -0.590612  0.054271  2.403863  0.035
O  O246  1  0.19824212  0.70505951  0.38778294  1  -1.219208  0.077259  -0.321558  -0.590732  0.054273  2.403913  0.035
O  O247  1  0.30175568  0.20504698  0.11224554  1  -1.219494  0.077272  -0.321433  -0.590573  0.054266  2.404035  0.035
O  O248  1  0.70391094  0.69086427  0.39033081  1  -1.066817  0.00018  -0.189939  -0.212411  -2.4e-05  2.507235  0.0
O  O249  1  0.79608710  0.19086422  0.10965307  1  -1.066852  0.000181  -0.189942  -0.212267  -2.3e-05  2.507322  0.0
O  O250  1  0.29606677  0.30913332  0.60966727  1  -1.066405  0.000181  -0.190029  -0.212309  -2.4e-05  2.507055  0.0
O  O251  1  0.20391992  0.80914220  0.89033019  1  -1.066611  0.000181  -0.189933  -0.212317  -2.4e-05  2.507349  0.0
O  O252  1  0.72703331  0.32582803  0.89188385  1  -1.048444  0.000606  -0.182638  -0.200064  0.000373  2.477417  0.0
O  O253  1  0.77297925  0.82583078  0.60811169  1  -1.048197  0.000606  -0.182707  -0.200151  0.000373  2.47735  0.0
O  O254  1  0.27297779  0.67417461  0.10813682  1  -1.048629  0.000606  -0.182614  -0.200081  0.000373  2.47763  0.0
O  O255  1  0.22704273  0.17416807  0.39189748  1  -1.048759  0.000606  -0.18268  -0.200203  0.000373  2.477525  0.0
O  O256  1  0.90923606  0.87082349  0.96386099  1  -1.255951  0.057768  -0.564577  -0.742126  0.03963  2.039228  0.025
O  O257  1  0.59074005  0.37084723  0.53611666  1  -1.255806  0.057748  -0.564781  -0.742347  0.039625  2.039073  0.025
O  O258  1  0.09078087  0.12915896  0.03614233  1  -1.256237  0.057765  -0.564604  -0.742206  0.039636  2.039432  0.025
O  O259  1  0.40923489  0.62915793  0.46386347  1  -1.256156  0.057757  -0.564607  -0.742291  0.039631  2.039296  0.025
O  O260  1  0.54885043  0.62272802  0.98920804  1  -1.258662  0.049139  -0.555793  -0.720717  0.034912  2.008518  0.024
O  O261  1  0.95112372  0.12271152  0.51077463  1  -1.258936  0.049149  -0.555589  -0.720183  0.034909  2.008737  0.024
O  O262  1  0.45112736  0.37727966  0.01080265  1  -1.258557  0.049157  -0.555826  -0.720636  0.034909  2.008306  0.024
O  O263  1  0.04889149  0.87728481  0.48923791  1  -1.259222  0.049195  -0.555704  -0.720374  0.034908  2.008411  0.024
