# generated using pymatgen
data_MnH7C14N3O8
_symmetry_space_group_name_H-M   'P 1'
_cell_length_a   7.50033838
_cell_length_b   16.05115534
_cell_length_c   16.05111446
_cell_angle_alpha   69.57582318
_cell_angle_beta   76.47084457
_cell_angle_gamma   76.47063446
_symmetry_Int_Tables_number   1
_chemical_formula_structural   MnH7C14N3O8
_chemical_formula_sum   'Mn4 H28 C56 N12 O32'
_cell_volume   1735.87589275
_cell_formula_units_Z   4
loop_
 _symmetry_equiv_pos_site_id
 _symmetry_equiv_pos_as_xyz
  1  'x, y, z'
loop_
 _atom_site_type_symbol
 _atom_site_label
 _atom_site_symmetry_multiplicity
 _atom_site_fract_x
 _atom_site_fract_y
 _atom_site_fract_z
 _atom_site_occupancy
 _atom_site_hle17_ddec_charge
 _atom_site_hle17_ddec_spin_density
 _atom_site_hle17_ddec_sum_bond_order
 _atom_site_hle17_magmom
 _atom_site_hse06_10hf_ddec_charge
 _atom_site_hse06_10hf_ddec_spin_density
 _atom_site_hse06_10hf_ddec_sum_bond_order
 _atom_site_hse06_10hf_magmom
 _atom_site_hse06_ddec_charge
 _atom_site_hse06_ddec_spin_density
 _atom_site_hse06_ddec_sum_bond_order
 _atom_site_hse06_magmom
 _atom_site_pbe_cm5_charge
 _atom_site_pbe_ddec_charge
 _atom_site_pbe_ddec_spin_density
 _atom_site_pbe_ddec_sum_bond_order
 _atom_site_pbe_magmom
Mn  Mn0  1  0.73916184  0.41965974  0.61798846  1  1.275743  4.781468  1.711033  4.666  1.12317  4.704511  2.222629  4.521  1.184876  4.751461  2.142284  4.59  0.640679  1.075439  4.653779  2.281612  4.45
Mn  Mn1  1  0.77659349  0.58039692  0.38218837  1  1.276118  4.784937  1.71207  4.666  1.123037  4.70721  2.223814  4.521  1.184744  4.754381  2.143377  4.59  0.640679  1.075444  4.655704  2.282922  4.45
Mn  Mn2  1  0.23916381  0.61798695  0.41966174  1  1.27572  4.781503  1.71108  4.666  1.123096  4.704536  2.222711  4.521  1.184839  4.751486  2.142298  4.59  0.640668  1.075365  4.653804  2.281693  4.45
Mn  Mn3  1  0.27659295  0.38218906  0.58039728  1  1.276074  4.784936  1.712108  4.666  1.123019  4.707207  2.223835  4.521  1.184729  4.754379  2.143396  4.59  0.640657  1.075423  4.655699  2.282948  4.45
H  H4  1  0.26448755  0.29975452  0.85832289  1  0.134425  -0.000294  0.923527  0.0  0.140142  -0.000289  0.98542  0.0  0.144723  -0.000308  0.980399  0.0  0.125617  0.136686  -0.000258  0.989123  0.0
H  H5  1  0.42256269  0.70035915  0.14161175  1  0.134006  -0.000294  0.921542  0.0  0.140333  -0.00029  0.983009  0.0  0.14495  -0.00031  0.977945  0.0  0.12577  0.136892  -0.000259  0.986727  0.0
H  H6  1  0.76448566  0.85832187  0.29975343  1  0.134408  -0.000293  0.92352  0.0  0.140139  -0.000289  0.9854  0.0  0.14472  -0.000308  0.980379  0.0  0.125623  0.136685  -0.000258  0.989105  0.0
H  H7  1  0.92256119  0.14161093  0.70036037  1  0.133986  -0.000294  0.921559  0.0  0.140324  -0.00029  0.983021  0.0  0.144944  -0.000309  0.977954  0.0  0.125773  0.136883  -0.000259  0.986734  0.0
H  H8  1  0.68488284  0.41508675  0.88327048  1  0.125561  -0.000248  0.940289  0.0  0.132256  -0.000197  1.006247  0.0  0.135896  -0.000243  1.002563  0.0  0.122318  0.129589  -0.00014  1.008872  0.0
H  H9  1  0.98373508  0.58453851  0.11709851  1  0.126255  -0.000248  0.940121  0.0  0.132598  -0.00019  1.006264  0.0  0.136319  -0.000237  1.00251  0.0  0.122487  0.129876  -0.000127  1.008938  0.0
H  H10  1  0.18488212  0.88327049  0.41508864  1  0.125592  -0.00024  0.940294  0.0  0.13228  -0.000197  1.006245  0.0  0.135925  -0.000243  1.002565  0.0  0.122347  0.129619  -0.00014  1.008872  0.0
H  H11  1  0.48373290  0.11709989  0.58453827  1  0.126242  -0.00024  0.940176  0.0  0.132589  -0.000189  1.006304  0.0  0.13631  -0.000237  1.002551  0.0  0.122484  0.129866  -0.000127  1.008977  0.0
H  H12  1  0.65546028  0.54634535  0.21420770  1  0.10151  -0.000378  0.938953  0.0  0.111816  -3.3e-05  0.999708  0.0  0.114372  -0.000129  0.997856  0.0  0.110315  0.109794  6.5e-05  1.001286  0.0
H  H13  1  0.41622979  0.45357816  0.78580079  1  0.101235  -0.00038  0.939297  0.0  0.11185  -2.2e-05  0.999688  0.0  0.114505  -0.000121  0.997729  0.0  0.110397  0.10978  7.8e-05  1.001338  0.0
H  H14  1  0.15546769  0.21420853  0.54634439  1  0.101484  -0.000379  0.938998  0.0  0.111805  -3.3e-05  0.999747  0.0  0.11436  -0.000129  0.997894  0.0  0.110309  0.109779  6.5e-05  1.001327  0.0
H  H15  1  0.91622937  0.78579835  0.45357849  1  0.10124  -0.000375  0.939235  0.0  0.111841  -2.2e-05  0.999646  0.0  0.114495  -0.000121  0.997689  0.0  0.110395  0.109771  7.8e-05  1.001298  0.0
H  H16  1  0.84839260  0.46770354  0.10629387  1  0.111575  3.6e-05  0.983122  0.0  0.119002  -5.6e-05  1.049828  0.0  0.121946  -5e-05  1.048777  0.0  0.101537  0.11689  -6.2e-05  1.050714  0.0
H  H17  1  0.42254188  0.53210288  0.89376127  1  0.110958  3.7e-05  0.983264  0.0  0.118446  -5.2e-05  1.049847  0.0  0.121478  -4.7e-05  1.048713  0.0  0.101321  0.116295  -5.6e-05  1.050777  0.0
H  H18  1  0.34839553  0.10629492  0.46770352  1  0.111547  3.7e-05  0.983158  0.0  0.11897  -5.6e-05  1.049873  0.0  0.121912  -5e-05  1.048821  0.0  0.101518  0.116858  -6.2e-05  1.050765  0.0
H  H19  1  0.92254329  0.89375969  0.53210218  1  0.110965  3.4e-05  0.983257  0.0  0.118428  -5.2e-05  1.04986  0.0  0.12146  -4.7e-05  1.048727  0.0  0.101329  0.116274  -5.6e-05  1.050797  0.0
H  H20  1  0.77883078  0.21121937  0.30754207  1  0.116318  6.9e-05  0.964179  0.0  0.120127  -1e-06  1.031573  0.0  0.124409  0.0  1.028397  0.0  0.104556  0.11703  -0.0  1.034008  0.0
H  H21  1  0.29791668  0.78868702  0.69256796  1  0.11654  7.5e-05  0.963746  0.0  0.119695  -0.0  1.031858  0.0  0.123992  1e-06  1.028687  0.0  0.104182  0.116598  2e-06  1.034276  0.0
H  H22  1  0.27883076  0.30754290  0.21121868  1  0.116333  7.2e-05  0.964149  0.0  0.120132  -1e-06  1.031562  0.0  0.124429  0.0  1.028368  0.0  0.104554  0.117037  -0.0  1.033998  0.0
H  H23  1  0.79791087  0.69257168  0.78868707  1  0.116536  7.3e-05  0.963778  0.0  0.119697  -0.0  1.031881  0.0  0.124017  1e-06  1.028682  0.0  0.104192  0.116602  2e-06  1.034292  0.0
H  H24  1  0.57358578  0.29053820  0.41291793  1  0.103824  -0.000699  0.948931  0.0  0.113298  -0.000584  1.009621  0.0  0.115561  -0.00061  1.00944  0.0  0.107369  0.11155  -0.000546  1.009916  0.0
H  H25  1  0.27740370  0.70946482  0.58715573  1  0.103977  -0.000703  0.947532  0.0  0.113019  -0.00059  1.0086  0.0  0.115287  -0.000614  1.008438  0.0  0.10742  0.111284  -0.000553  1.008868  0.0
H  H26  1  0.07359060  0.41291837  0.29053802  1  0.103852  -0.000701  0.948944  0.0  0.113298  -0.000584  1.009666  0.0  0.115559  -0.00061  1.00949  0.0  0.107367  0.111545  -0.000546  1.009976  0.0
H  H27  1  0.77740018  0.58715718  0.70946686  1  0.103976  -0.000699  0.947563  0.0  0.11302  -0.000589  1.008616  0.0  0.115288  -0.000614  1.008453  0.0  0.107422  0.111284  -0.000553  1.008885  0.0
H  H28  1  0.04297169  0.23684390  0.16736177  1  0.310504  6.7e-05  0.908263  0.0  0.287791  0.000107  0.97928  0.0  0.296148  7.4e-05  0.972275  0.0  0.318231  0.281874  0.000161  0.98425  0.0
H  H29  1  0.44695103  0.76308067  0.83275800  1  0.310618  7e-05  0.905135  0.0  0.288189  0.000111  0.975775  0.0  0.296537  7.9e-05  0.968727  0.0  0.318175  0.28228  0.000164  0.98074  0.0
H  H30  1  0.54297444  0.16735872  0.23684460  1  0.310495  6.7e-05  0.908325  0.0  0.287765  0.000107  0.979339  0.0  0.296124  7.4e-05  0.972329  0.0  0.318214  0.281849  0.000161  0.984304  0.0
H  H31  1  0.94695342  0.83275909  0.76307949  1  0.310605  7e-05  0.905099  0.0  0.288149  0.000111  0.975762  0.0  0.296498  7.9e-05  0.968708  0.0  0.318142  0.282246  0.000164  0.980717  0.0
C  C32  1  0.97639609  0.36089966  0.85872453  1  -0.077711  0.001889  3.762186  0.002  -0.057277  0.001407  4.006693  0.001  -0.072553  0.000738  4.0309  0.001  -0.019059  -0.047785  0.002188  3.990872  0.002
C  C33  1  0.19628734  0.63897468  0.14141443  1  -0.077309  0.001836  3.766284  0.002  -0.056647  0.001397  4.010267  0.001  -0.071886  0.000705  4.034509  0.001  -0.019267  -0.047146  0.002208  3.994405  0.002
C  C34  1  0.47639643  0.85872447  0.36089961  1  -0.077749  0.001913  3.762198  0.002  -0.057309  0.001407  4.006714  0.001  -0.072587  0.000736  4.03092  0.001  -0.019079  -0.047814  0.002188  3.990902  0.002
C  C35  1  0.69628836  0.14141482  0.63897306  1  -0.077308  0.001894  3.766283  0.002  -0.056674  0.001396  4.010296  0.001  -0.071915  0.000712  4.034539  0.001  -0.019279  -0.047174  0.002209  3.994435  0.002
C  C36  1  0.13231599  0.31702793  0.89924051  1  -0.044002  0.001409  3.690235  0.001  -0.086625  0.002317  3.949083  0.002  -0.077612  0.001779  3.964388  0.002  -0.054806  -0.092096  0.003066  3.938667  0.002
C  C37  1  0.34865657  0.68296185  0.10079348  1  -0.044481  0.001438  3.690437  0.001  -0.088111  0.002313  3.949511  0.002  -0.079132  0.001786  3.964854  0.002  -0.055477  -0.093585  0.003053  3.939098  0.002
C  C38  1  0.63231627  0.89924042  0.31702737  1  -0.04396  0.001382  3.690256  0.001  -0.086611  0.002317  3.949126  0.002  -0.077596  0.001782  3.964428  0.002  -0.054814  -0.092082  0.003066  3.938715  0.002
C  C39  1  0.84865675  0.10079347  0.68295992  1  -0.044325  0.001381  3.69045  0.001  -0.087968  0.002315  3.949515  0.002  -0.078986  0.00178  3.964864  0.002  -0.05542  -0.093438  0.003053  3.939094  0.002
C  C40  1  0.12169800  0.29313585  0.99217109  1  -0.027824  -0.000272  3.631298  0.0  -0.034178  9.7e-05  3.890119  0.0  -0.044826  -0.000131  3.911348  0.0  0.077031  -0.027523  0.000342  3.87592  0.0
C  C41  1  0.40688484  0.70684784  0.00785142  1  -0.026257  -0.000354  3.630771  0.0  -0.031925  2.8e-05  3.889346  0.0  -0.042598  -0.0002  3.910685  0.0  0.078312  -0.025274  0.000279  3.875088  0.0
C  C42  1  0.62169446  0.99217052  0.29313646  1  -0.027843  -0.000254  3.631366  0.0  -0.034196  9.8e-05  3.890196  0.0  -0.044843  -0.000139  3.911426  0.0  0.07702  -0.027543  0.000342  3.875997  0.0
C  C43  1  0.90688598  0.00785162  0.70684610  1  -0.026454  -0.000289  3.630967  0.0  -0.032073  2.5e-05  3.889495  0.0  -0.042765  -0.000196  3.910862  0.0  0.078263  -0.025423  0.000279  3.875244  0.0
C  C44  1  0.95244260  0.31257838  0.05116192  1  0.232412  0.001071  3.716048  0.001  0.203633  0.001625  3.978906  0.001  0.221506  0.001219  3.995777  0.001  0.143462  0.191933  0.002443  3.967192  0.002
C  C45  1  0.31613279  0.68727706  0.94895271  1  0.232865  0.001234  3.713924  0.001  0.203325  0.001788  3.977426  0.001  0.221128  0.001359  3.994349  0.001  0.143573  0.191719  0.002564  3.965629  0.002
C  C46  1  0.45244084  0.05116030  0.31257792  1  0.232423  0.001056  3.715986  0.001  0.20362  0.001625  3.978807  0.001  0.221491  0.001221  3.99568  0.001  0.143479  0.19193  0.002443  3.967079  0.002
C  C47  1  0.81613106  0.94895455  0.68727580  1  0.232961  0.001197  3.713926  0.001  0.203376  0.001788  3.977429  0.001  0.221184  0.001356  3.994352  0.001  0.143591  0.191765  0.002564  3.965643  0.002
C  C48  1  0.79790797  0.35897893  0.00570719  1  -0.020501  -0.000432  3.637335  0.0  -0.025028  -0.000146  3.899571  0.0  -0.034552  -0.000331  3.9189  0.0  0.0799  -0.019104  -1.1e-05  3.886722  0.0
C  C49  1  0.16276274  0.64075954  0.99452200  1  -0.020615  -0.000492  3.637303  0.0  -0.025094  -0.00018  3.899847  0.0  -0.03453  -0.000382  3.919121  0.0  0.079669  -0.019233  -3.5e-05  3.887013  0.0
C  C50  1  0.29790469  0.00570705  0.35897898  1  -0.020496  -0.0004  3.637282  0.0  -0.024989  -0.000145  3.899452  0.0  -0.034511  -0.000338  3.918783  0.0  0.079936  -0.019073  -1.1e-05  3.886615  0.0
C  C51  1  0.66276094  0.99452252  0.64075942  1  -0.020496  -0.000423  3.637358  0.0  -0.024994  -0.000179  3.899916  0.0  -0.034428  -0.000381  3.919186  0.0  0.07972  -0.019134  -3.5e-05  3.887081  0.0
C  C52  1  0.80953587  0.38302943  0.91322351  1  -0.030555  0.001167  3.669418  0.001  -0.074915  0.001863  3.924983  0.002  -0.064205  0.001465  3.937692  0.001  -0.052592  -0.081599  0.002394  3.916334  0.002
C  C53  1  0.10611131  0.61671442  0.08701971  1  -0.0315  0.001311  3.672773  0.001  -0.075468  0.002024  3.927757  0.002  -0.064882  0.001584  3.940473  0.001  -0.052703  -0.082066  0.00265  3.919101  0.002
C  C54  1  0.30953455  0.91322405  0.38302986  1  -0.030602  0.001125  3.669437  0.001  -0.07496  0.001863  3.924976  0.002  -0.064263  0.001468  3.937701  0.001  -0.05261  -0.081651  0.002394  3.916341  0.002
C  C55  1  0.60610883  0.08702130  0.61671313  1  -0.031542  0.001237  3.672838  0.001  -0.07549  0.002025  3.927818  0.002  -0.064904  0.001578  3.940538  0.001  -0.052715  -0.082082  0.00265  3.919156  0.002
C  C56  1  0.98322939  0.37949025  0.76027083  1  0.691642  0.010062  3.874178  0.011  0.642748  0.017469  4.159644  0.017  0.679818  0.01352  4.154365  0.014  0.236528  0.616929  0.021372  4.16179  0.02
C  C57  1  0.12349599  0.62036759  0.23989817  1  0.69227  0.010185  3.875987  0.011  0.643508  0.01764  4.160772  0.017  0.680537  0.01363  4.155511  0.014  0.23716  0.617689  0.021621  4.162949  0.02
C  C58  1  0.48322912  0.76027117  0.37949123  1  0.69179  0.010062  3.874099  0.011  0.642882  0.017467  4.159578  0.017  0.679955  0.013518  4.154297  0.014  0.236609  0.61705  0.02137  4.161743  0.02
C  C59  1  0.62349702  0.23989781  0.62036698  1  0.692303  0.010178  3.875998  0.011  0.64356  0.017641  4.160767  0.017  0.68059  0.01363  4.155503  0.014  0.237185  0.617735  0.021623  4.162951  0.02
C  C60  1  0.60283905  0.42316134  0.32033180  1  -0.080402  -0.005674  3.773785  -0.004  -0.059894  -0.003853  4.010768  -0.002  -0.0715  -0.004486  4.034483  -0.002  -0.018141  -0.052355  -0.003341  3.995542  -0.003
C  C61  1  0.34656401  0.57680358  0.67972006  1  -0.079925  -0.005804  3.774524  -0.004  -0.060679  -0.003983  4.012504  -0.003  -0.072182  -0.004584  4.036104  -0.003  -0.018149  -0.053176  -0.003546  3.997329  -0.003
C  C62  1  0.10284479  0.32033250  0.42316107  1  -0.080463  -0.005691  3.773828  -0.004  -0.059882  -0.003853  4.01075  -0.002  -0.07149  -0.004485  4.03447  -0.002  -0.018122  -0.052334  -0.003342  3.995511  -0.003
C  C63  1  0.84656274  0.67971969  0.57680518  1  -0.079924  -0.005763  3.774439  -0.004  -0.060677  -0.003982  4.012417  -0.003  -0.072177  -0.004581  4.036013  -0.003  -0.018156  -0.053166  -0.003546  3.997241  -0.003
C  C64  1  0.68030245  0.47292413  0.23383463  1  -0.040378  0.005181  3.725221  0.004  -0.066684  0.005282  3.980877  0.004  -0.064061  0.004415  4.001551  0.004  -0.076593  -0.068411  0.00673  3.967226  0.005
C  C65  1  0.38729973  0.52699648  0.76619904  1  -0.041323  0.005337  3.727436  0.005  -0.067748  0.005436  3.983333  0.004  -0.065213  0.004516  4.003982  0.004  -0.076921  -0.069437  0.006983  3.969683  0.005
C  C66  1  0.18030847  0.23383475  0.47292362  1  -0.040325  0.005197  3.72538  0.005  -0.066678  0.005281  3.98104  0.004  -0.064053  0.004416  4.001715  0.004  -0.076586  -0.068403  0.00673  3.967381  0.005
C  C67  1  0.88729820  0.76619806  0.52699680  1  -0.04129  0.005283  3.727329  0.005  -0.067707  0.005435  3.983225  0.004  -0.065174  0.004513  4.003876  0.004  -0.076908  -0.069397  0.006982  3.969574  0.005
C  C68  1  0.78769234  0.42909271  0.17341732  1  -0.176768  -0.004388  3.724601  -0.003  -0.198362  -0.002347  3.981024  -0.002  -0.206712  -0.002771  4.00405  -0.002  -0.100462  -0.192802  -0.00233  3.965589  -0.002
C  C69  1  0.39043557  0.57076676  0.82664580  1  -0.174346  -0.004463  3.724506  -0.003  -0.196237  -0.00234  3.980363  -0.002  -0.204629  -0.002791  4.003355  -0.002  -0.100044  -0.190658  -0.002292  3.964965  -0.002
C  C70  1  0.28769475  0.17341753  0.42909281  1  -0.176779  -0.004415  3.724707  -0.003  -0.198365  -0.002346  3.981121  -0.002  -0.206713  -0.002775  4.004146  -0.002  -0.100467  -0.192814  -0.00233  3.965692  -0.002
C  C71  1  0.89043538  0.82664482  0.57076604  1  -0.174313  -0.004392  3.724429  -0.003  -0.196175  -0.00234  3.980334  -0.002  -0.204568  -0.002789  4.003328  -0.002  -0.100001  -0.190597  -0.002291  3.964943  -0.002
C  C72  1  0.82374149  0.33443976  0.20021677  1  0.252457  0.004971  3.778362  0.004  0.244204  0.005248  4.033222  0.004  0.253839  0.004302  4.05535  0.004  0.097602  0.23767  0.006918  4.018045  0.006
C  C73  1  0.35860239  0.66541277  0.79987713  1  0.250922  0.005018  3.781881  0.005  0.243284  0.00526  4.035739  0.004  0.252907  0.00431  4.057902  0.004  0.09797  0.23676  0.006931  4.020515  0.006
C  C74  1  0.32374078  0.20021684  0.33443992  1  0.252468  0.004992  3.778398  0.004  0.244209  0.005248  4.033198  0.004  0.253843  0.004306  4.055334  0.004  0.097601  0.237686  0.006918  4.018006  0.006
C  C75  1  0.85860068  0.79987754  0.66541196  1  0.251001  0.004981  3.781875  0.004  0.243287  0.00526  4.035798  0.004  0.252909  0.00431  4.057968  0.004  0.097953  0.236759  0.006931  4.020576  0.006
C  C76  1  0.74820162  0.28442397  0.28710690  1  -0.141831  -0.004084  3.685143  -0.003  -0.165944  -0.001925  3.946688  -0.001  -0.172175  -0.002446  3.965891  -0.002  -0.090219  -0.161752  -0.001789  3.933869  -0.002
C  C77  1  0.32006200  0.71547918  0.71298405  1  -0.141336  -0.00413  3.686221  -0.003  -0.164975  -0.001897  3.947023  -0.001  -0.171202  -0.00243  3.966279  -0.002  -0.089599  -0.160755  -0.00177  3.934125  -0.002
C  C78  1  0.24820517  0.28710722  0.28442313  1  -0.141819  -0.004116  3.685117  -0.003  -0.165925  -0.001923  3.946653  -0.001  -0.172168  -0.002451  3.965848  -0.002  -0.090182  -0.161735  -0.001789  3.933836  -0.002
C  C79  1  0.82005807  0.71298626  0.71548040  1  -0.14134  -0.004078  3.686329  -0.003  -0.164978  -0.001896  3.947155  -0.001  -0.171221  -0.002429  3.966396  -0.002  -0.089636  -0.160755  -0.00177  3.93425  -0.002
C  C80  1  0.63570575  0.32872960  0.34593657  1  -0.029264  0.004956  3.701877  0.005  -0.052583  0.00484  3.94914  0.004  -0.049885  0.003926  3.969487  0.004  -0.07274  -0.054383  0.006459  3.935649  0.006
C  C81  1  0.31070797  0.67123348  0.65412827  1  -0.02963  0.004941  3.699561  0.005  -0.052256  0.004726  3.947129  0.004  -0.049618  0.003874  3.967474  0.004  -0.073064  -0.054014  0.006233  3.933648  0.005
C  C82  1  0.13571135  0.34593771  0.32872858  1  -0.029255  0.004977  3.701888  0.005  -0.052582  0.00484  3.949139  0.004  -0.049885  0.003928  3.969489  0.004  -0.072758  -0.054387  0.00646  3.935656  0.006
C  C83  1  0.81070560  0.65412907  0.67123582  1  -0.029708  0.004899  3.699714  0.005  -0.052321  0.004725  3.947269  0.004  -0.049685  0.003872  3.967619  0.004  -0.073077  -0.054074  0.006233  3.93378  0.005
C  C84  1  0.48649570  0.46979904  0.38374632  1  0.697384  0.018743  3.823749  0.018  0.641145  0.031335  4.11191  0.027  0.681277  0.023122  4.101246  0.021  0.237954  0.61195  0.040326  4.119202  0.034
C  C85  1  0.34009713  0.53018192  0.61634489  1  0.696074  0.018682  3.826378  0.018  0.641106  0.031254  4.11309  0.027  0.68113  0.023099  4.102582  0.021  0.23822  0.612013  0.040187  4.120221  0.034
C  C86  1  0.98649857  0.38374635  0.46979880  1  0.69744  0.018742  3.823653  0.018  0.641145  0.031334  4.111859  0.027  0.681275  0.023123  4.1012  0.021  0.23795  0.611945  0.040325  4.119152  0.034
C  C87  1  0.84009541  0.61634290  0.53018438  1  0.696098  0.018684  3.826409  0.018  0.641129  0.031252  4.113118  0.027  0.681149  0.023097  4.10261  0.021  0.238207  0.612017  0.040185  4.120273  0.034
N  N88  1  0.29358746  0.24892899  0.02675335  1  0.510171  0.000434  3.900641  0.0  0.538514  0.00054  4.199726  0.001  0.561044  0.000263  4.207659  0.0  0.049532  0.523328  0.00111  4.19453  0.001
N  N89  1  0.56889334  0.75121033  0.97313829  1  0.509215  0.00035  3.903689  0.0  0.536757  0.000435  4.203756  0.0  0.559276  0.00021  4.211763  0.0  0.048577  0.521603  0.000911  4.198475  0.001
N  N90  1  0.79358676  0.02675270  0.24892935  1  0.510079  0.000429  3.900729  0.0  0.538422  0.00054  4.199811  0.001  0.560952  0.000263  4.207745  0.0  0.0495  0.523239  0.00111  4.194609  0.001
N  N91  1  0.06889284  0.97313937  0.75120970  1  0.509223  0.000334  3.903703  0.0  0.536752  0.000435  4.203774  0.0  0.559276  0.000209  4.211783  0.0  0.048539  0.521589  0.000911  4.198503  0.001
N  N92  1  0.60962366  0.37141248  0.05597436  1  0.511957  0.00036  3.924688  0.0  0.533304  0.000397  4.235422  0.0  0.555574  0.000202  4.243446  0.0  0.05271  0.518244  0.000886  4.230143  0.001
N  N93  1  0.03727163  0.62816894  0.94431983  1  0.510699  0.000206  3.926285  0.0  0.531651  0.000206  4.237625  0.0  0.553945  0.000109  4.245588  0.0  0.051685  0.516668  0.000474  4.232272  0.0
N  N94  1  0.10961956  0.05597545  0.37141128  1  0.511938  0.000362  3.924627  0.0  0.533347  0.000397  4.235266  0.0  0.555617  0.000202  4.243288  0.0  0.052651  0.518291  0.000887  4.229984  0.001
N  N95  1  0.53726807  0.94432124  0.62816897  1  0.510642  0.000195  3.926396  0.0  0.531615  0.000205  4.237724  0.0  0.553908  0.000109  4.245687  0.0  0.051678  0.516643  0.000474  4.23236  0.0
N  N96  1  0.94317120  0.28949708  0.14166909  1  -0.377729  1e-06  3.388169  0.0  -0.331637  0.000775  3.640542  0.0  -0.355147  0.000597  3.652968  0.0  -0.388471  -0.315134  0.000898  3.631156  0.0
N  N97  1  0.37428283  0.71036568  0.85843265  1  -0.377336  -5.9e-05  3.384007  0.0  -0.331905  0.000669  3.636626  0.0  -0.355226  0.000487  3.648803  0.0  -0.388765  -0.315562  0.000798  3.627489  0.0
N  N98  1  0.44317042  0.14166822  0.28949623  1  -0.377703  -1e-06  3.388058  0.0  -0.331585  0.000774  3.640455  0.0  -0.355082  0.0006  3.652854  0.0  -0.388472  -0.315085  0.000899  3.631059  0.0
N  N99  1  0.87428222  0.85843355  0.71036415  1  -0.37754  -6.6e-05  3.384008  0.0  -0.332007  0.000669  3.636577  0.0  -0.355327  0.000488  3.64875  0.0  -0.388814  -0.315668  0.000798  3.627446  0.0
O  O100  1  0.44331872  0.25981075  0.97436424  1  -0.362842  0.00037  1.702838  0.0  -0.352424  0.00053  1.896433  0.001  -0.363746  0.00031  1.892416  0.0  -0.144119  -0.345008  0.001064  1.899435  0.001
O  O101  1  0.67727619  0.74038524  0.02540418  1  -0.361321  0.000296  1.703917  0.0  -0.350905  0.000426  1.897852  0.0  -0.36222  0.000256  1.893894  0.0  -0.143274  -0.343464  0.000873  1.900788  0.001
O  O102  1  0.94331746  0.97436420  0.25981099  1  -0.362777  0.00037  1.702881  0.0  -0.352379  0.00053  1.896488  0.001  -0.3637  0.00031  1.892473  0.0  -0.144103  -0.344964  0.001064  1.899489  0.001
O  O103  1  0.17727276  0.02540303  0.74038890  1  -0.361253  0.000323  1.70396  0.0  -0.350853  0.000424  1.897918  0.0  -0.362165  0.000262  1.893957  0.0  -0.143221  -0.34341  0.000873  1.900855  0.001
O  O104  1  0.28300605  0.20168374  0.10798487  1  -0.36372  6.1e-05  1.760378  0.0  -0.34815  0.000247  1.97015  0.0  -0.357658  2e-06  1.963326  0.0  -0.132707  -0.34189  0.000666  1.975085  0.001
O  O105  1  0.59196225  0.79852897  0.89192428  1  -0.36517  5.4e-05  1.761184  0.0  -0.348796  0.000209  1.970709  0.0  -0.358307  -9e-06  1.963842  0.0  -0.13314  -0.342487  0.000556  1.975621  0.001
O  O106  1  0.78300125  0.10798554  0.20168508  1  -0.363696  7.2e-05  1.760413  0.0  -0.3481  0.000248  1.970164  0.0  -0.357609  3e-06  1.96334  0.0  -0.132674  -0.341838  0.000666  1.975093  0.001
O  O107  1  0.09196092  0.89192400  0.79852879  1  -0.365184  3.7e-05  1.761068  0.0  -0.348812  0.000211  1.97061  0.0  -0.358322  -1.4e-05  1.963737  0.0  -0.133146  -0.342499  0.000556  1.975521  0.001
O  O108  1  0.56541285  0.30873947  0.12398395  1  -0.344958  -0.000265  1.836533  0.0  -0.323872  -8.6e-05  2.059142  0.0  -0.336007  -0.000291  2.055905  0.0  -0.104918  -0.315707  0.000157  2.061558  0.0
O  O109  1  0.99780669  0.69086889  0.87644767  1  -0.344381  -0.00011  1.83797  0.0  -0.322441  2.4e-05  2.059764  0.0  -0.334873  -0.000127  2.056839  0.0  -0.104224  -0.31421  0.000185  2.062087  0.0
O  O110  1  0.06541419  0.12398834  0.30873853  1  -0.344983  -0.000248  1.836427  0.0  -0.323996  -8.7e-05  2.059058  0.0  -0.336128  -0.00029  2.055814  0.0  -0.104956  -0.315828  0.000157  2.061466  0.0
O  O111  1  0.49780367  0.87644758  0.69087145  1  -0.344396  -0.000108  1.837965  0.0  -0.322463  2.4e-05  2.059745  0.0  -0.334894  -0.000124  2.056815  0.0  -0.104228  -0.31423  0.000185  2.062068  0.0
O  O112  1  0.50195537  0.44237974  0.02635870  1  -0.36922  0.000353  1.736345  0.0  -0.356681  0.00037  1.945718  0.0  -0.369242  0.000285  1.942386  0.0  -0.137052  -0.348454  0.000761  1.948187  0.001
O  O113  1  0.97167338  0.55702244  0.97390398  1  -0.368788  0.00014  1.735668  0.0  -0.356269  0.000154  1.94526  0.0  -0.368819  0.000125  1.941848  0.0  -0.136357  -0.347914  0.000371  1.94768  0.0
O  O114  1  0.00194645  0.02635901  0.44237444  1  -0.369184  0.000342  1.736385  0.0  -0.356626  0.000372  1.945694  0.0  -0.369186  0.000284  1.942362  0.0  -0.136993  -0.348403  0.000761  1.948172  0.001
O  O115  1  0.47167063  0.97390351  0.55702346  1  -0.368742  0.000151  1.735807  0.0  -0.35623  0.000154  1.945398  0.0  -0.368778  0.000125  1.941986  0.0  -0.136329  -0.34788  0.000371  1.94782  0.0
O  O116  1  0.82849014  0.41190371  0.73145247  1  -0.659955  0.043467  2.048646  0.03  -0.594654  0.051111  2.32416  0.032  -0.628327  0.044358  2.307372  0.026  -0.311531  -0.568886  0.058003  2.334594  0.039
O  O117  1  0.97213114  0.58815813  0.26881606  1  -0.660713  0.043575  2.051773  0.03  -0.594854  0.051282  2.326741  0.032  -0.628434  0.044462  2.309874  0.026  -0.311608  -0.569169  0.058287  2.337284  0.039
O  O118  1  0.32849277  0.73145158  0.41190398  1  -0.659991  0.04347  2.048691  0.03  -0.594663  0.051109  2.324182  0.032  -0.628335  0.044356  2.307378  0.026  -0.311524  -0.568881  0.058  2.334607  0.039
O  O119  1  0.47213130  0.26881670  0.58815776  1  -0.660674  0.043578  2.051716  0.03  -0.594844  0.051281  2.326695  0.032  -0.628424  0.044462  2.309827  0.026  -0.311597  -0.569157  0.058285  2.337245  0.039
O  O120  1  0.14015253  0.36140748  0.71349055  1  -0.646702  0.035103  2.04187  0.023  -0.583595  0.042744  2.306725  0.026  -0.616164  0.037396  2.29118  0.022  -0.304933  -0.558921  0.048226  2.31635  0.032
O  O121  1  0.21603641  0.63822069  0.28659697  1  -0.647185  0.035054  2.041261  0.023  -0.584622  0.042659  2.306545  0.026  -0.617192  0.037312  2.290975  0.021  -0.305558  -0.559964  0.048144  2.316221  0.032
O  O122  1  0.64015297  0.71349098  0.36140934  1  -0.646764  0.035101  2.041823  0.023  -0.583649  0.042744  2.306678  0.026  -0.61622  0.037397  2.291134  0.022  -0.304982  -0.558969  0.048225  2.316306  0.032
O  O123  1  0.71603714  0.28659625  0.63822092  1  -0.647236  0.035059  2.041302  0.023  -0.584672  0.042661  2.306577  0.026  -0.617236  0.037313  2.291004  0.021  -0.305575  -0.560011  0.048144  2.316253  0.032
O  O124  1  0.51769571  0.54763006  0.37916148  1  -0.7084  0.06295  2.137062  0.036  -0.630993  0.079154  2.438591  0.045  -0.6665  0.07127  2.415994  0.039  -0.303758  -0.60408  0.086823  2.453598  0.052
O  O125  1  0.44442110  0.45229300  0.62095843  1  -0.709431  0.063066  2.136641  0.036  -0.631609  0.079171  2.436539  0.045  -0.667217  0.071348  2.414179  0.038  -0.304623  -0.604684  0.08672  2.451546  0.052
O  O126  1  0.01769508  0.37916184  0.54763091  1  -0.708409  0.06295  2.136975  0.036  -0.630994  0.079154  2.438551  0.045  -0.666481  0.071268  2.41592  0.039  -0.303761  -0.604076  0.086823  2.453553  0.052
O  O127  1  0.94442074  0.62095432  0.45229619  1  -0.709492  0.063069  2.136533  0.036  -0.631624  0.079168  2.436399  0.045  -0.667227  0.071345  2.414031  0.038  -0.304654  -0.604696  0.086718  2.451415  0.052
O  O128  1  0.35109313  0.43623577  0.43940830  1  -0.672358  0.040935  2.09867  0.022  -0.60733  0.056457  2.384653  0.033  -0.639795  0.049741  2.368013  0.027  -0.29337  -0.582865  0.063316  2.395685  0.039
O  O129  1  0.22679406  0.56377215  0.56069368  1  -0.671072  0.04076  2.100212  0.022  -0.606549  0.056198  2.385348  0.032  -0.638911  0.049561  2.368685  0.027  -0.292693  -0.582229  0.062976  2.396517  0.038
O  O130  1  0.85109553  0.43940801  0.43623559  1  -0.672391  0.040936  2.098668  0.022  -0.607335  0.056458  2.384645  0.033  -0.639801  0.049741  2.368019  0.027  -0.29338  -0.582872  0.063318  2.39568  0.039
O  O131  1  0.72679333  0.56069253  0.56377521  1  -0.671009  0.040754  2.100296  0.022  -0.606543  0.056196  2.385473  0.032  -0.638898  0.049558  2.368813  0.027  -0.292658  -0.582219  0.062975  2.396653  0.038
