# generated using pymatgen
data_Al2H22C30N4O11
_symmetry_space_group_name_H-M   'P 1'
_cell_length_a   6.66488036
_cell_length_b   23.16704375
_cell_length_c   25.96673152
_cell_angle_alpha   100.94464500
_cell_angle_beta   90.00146072
_cell_angle_gamma   90.00071878
_symmetry_Int_Tables_number   1
_chemical_formula_structural   Al2H22C30N4O11
_chemical_formula_sum   'Al4 H44 C60 N8 O22'
_cell_volume   3936.48126829
_cell_formula_units_Z   2
loop_
 _symmetry_equiv_pos_site_id
 _symmetry_equiv_pos_as_xyz
  1  'x, y, z'
loop_
 _atom_site_type_symbol
 _atom_site_label
 _atom_site_symmetry_multiplicity
 _atom_site_fract_x
 _atom_site_fract_y
 _atom_site_fract_z
 _atom_site_occupancy
 _atom_site_pbe_bader_charge
 _atom_site_pbe_bader_spin_density
 _atom_site_pbe_cm5_charge
 _atom_site_pbe_ddec_charge
 _atom_site_pbe_ddec_spin_density
 _atom_site_pbe_ddec_sum_bond_order
 _atom_site_pbe_magmom
Al  Al0  1  0.88662318  0.49954290  0.49955960  1  2.502567  0  0.399695  1.639696  0  2.587413  0
Al  Al1  1  0.38662627  0.50046130  0.50044285  1  2.502486  0  0.400066  1.639817  0  2.586911  0
Al  Al2  1  0.32529163  0.00067037  0.99972340  1  2.501394  0  0.400255  1.643967  0  2.58302  0
Al  Al3  1  0.82529394  0.99933058  0.00027703  1  2.501463  0  0.400398  1.643534  0  2.583279  0
H  H4  1  0.93696197  0.72948868  0.82893420  1  0.064453  0  0.096379  0.096395  0  0.974458  0
H  H5  1  0.43660135  0.27044379  0.17108520  1  0.066124  0  0.096398  0.096309  0  0.973913  0
H  H6  1  0.95851896  0.65396995  0.75530143  1  0.045726  0  0.096925  0.097961  0  0.971713  0
H  H7  1  0.45829045  0.34598804  0.24469574  1  0.04516  0  0.096848  0.097811  0  0.972434  0
H  H8  1  0.44274622  0.71707072  0.71652731  1  0.028377  0  0.091601  0.086798  0  0.995887  0
H  H9  1  0.94274980  0.28300368  0.28342917  1  0.030897  0  0.091589  0.086796  0  0.995636  0
H  H10  1  0.33987335  0.66697253  0.75273196  1  0.041952  0  0.096414  0.095956  0  0.972029  0
H  H11  1  0.83963997  0.33308801  0.24724418  1  0.040993  0  0.096457  0.096197  0  0.971969  0
H  H12  1  0.31690900  0.74187386  0.82685128  1  0.026675  0  0.097031  0.096904  0  0.973202  0
H  H13  1  0.81662601  0.25818926  0.17312115  1  0.020482  0  0.097054  0.097289  0  0.973761  0
H  H14  1  0.42292973  0.79183274  0.79103369  1  0.012929  0  0.093414  0.088637  0  0.993252  0
H  H15  1  0.92295418  0.20825696  0.20891399  1  0.01444  0  0.093397  0.088654  0  0.993029  0
H  H16  1  0.95506616  0.76573215  0.66810427  1  0.030332  0  0.095366  0.093522  0  0.976771  0
H  H17  1  0.45526601  0.23423961  0.33189678  1  0.030821  0  0.095099  0.093237  0  0.976775  0
H  H18  1  0.21795628  0.77467677  0.66668110  1  0.041088  0  0.094674  0.093484  0  0.977256  0
H  H19  1  0.71817384  0.22536277  0.33332594  1  0.040085  0  0.094619  0.093376  0  0.977628  0
H  H20  1  0.93611537  0.84123266  0.74183320  1  0.042325  0  0.096283  0.094915  0  0.976382  0
H  H21  1  0.43653720  0.15869916  0.25819522  1  0.016775  0  0.096086  0.094574  0  0.975694  0
H  H22  1  0.80268634  0.69428405  0.72009989  1  0.035531  0  0.092653  0.088534  0  0.997781  0
H  H23  1  0.30261110  0.30567129  0.27993182  1  0.034337  0  0.0926  0.08839  0  0.997784  0
H  H24  1  0.78229217  0.77011916  0.79370439  1  0.037545  0  0.092896  0.090056  0  0.997466  0
H  H25  1  0.28221984  0.22978866  0.20636372  1  0.037533  0  0.092811  0.089827  0  0.997689  0
H  H26  1  0.19908201  0.84990966  0.74049867  1  0.041905  0  0.096857  0.097539  0  0.97257  0
H  H27  1  0.69955756  0.15013182  0.25949763  1  0.04011  0  0.096679  0.096928  0  0.972721  0
H  H28  1  0.40558523  0.90106399  0.10929312  1  0.120183  0  0.109926  0.115663  0  1.003184  0
H  H29  1  0.90558687  0.09893067  0.89070478  1  0.119942  0  0.109932  0.11577  0  1.003238  0
H  H30  1  0.42255503  0.83364216  0.17447496  1  0.100292  0  0.104808  0.10402  0  1.030347  0
H  H31  1  0.92256367  0.16635310  0.82552346  1  0.100238  0  0.104791  0.103933  0  1.030358  0
H  H32  1  0.77845313  0.82255645  0.17405470  1  0.107631  0  0.104945  0.101987  0  1.034919  0
H  H33  1  0.27846384  0.17743850  0.82594068  1  0.107634  0  0.104912  0.101951  0  1.034921  0
H  H34  1  0.76328229  0.88972783  0.10855029  1  0.088174  0  0.108868  0.113462  0  1.004919  0
H  H35  1  0.26328755  0.11026490  0.89144302  1  0.088051  0  0.108828  0.113374  0  1.00495  0
H  H36  1  0.44565497  0.62802818  0.41153547  1  0.115695  0  0.111539  0.129514  0  1.003695  0
H  H37  1  0.94564011  0.37197048  0.58846233  1  0.115857  0  0.11154  0.129533  0  1.003724  0
H  H38  1  0.82675441  0.58726311  0.37556585  1  0.090235  0  0.107663  0.118387  0  1.001383  0
H  H39  1  0.32675545  0.41273388  0.62443420  1  0.090246  0  0.107656  0.118411  0  1.00146  0
H  H40  1  0.83548334  0.65237767  0.30824531  1  0.139376  0  0.107619  0.106621  0  1.03033  0
H  H41  1  0.33548370  0.34761860  0.69175324  1  0.139593  0  0.107629  0.106593  0  1.030365  0
H  H42  1  0.58803501  0.69477755  0.36987241  1  0.613768  0  0.334441  0.362453  0  0.882799  0
H  H43  1  0.08802142  0.30522209  0.63012586  1  0.613827  0  0.334433  0.362539  0  0.882755  0
H  H44  1  0.63907940  0.57349164  0.52863831  1  0.627368  0  0.35547  0.433213  0  0.85064  0
H  H45  1  0.13907038  0.42651229  0.47136504  1  0.626314  0  0.355564  0.433399  0  0.85044  0
H  H46  1  0.57301344  0.92504967  0.97492159  1  0.634206  0  0.357458  0.436058  0  0.846336  0
H  H47  1  0.07302594  0.07495091  0.02507735  1  0.634187  0  0.35742  0.436073  0  0.846297  0
C  C48  1  0.63594373  0.43470173  0.56288276  1  1.563497  0  0.266375  0.637262  0  4.095242  0
C  C49  1  0.13599739  0.56530072  0.43711979  1  1.563842  0  0.266617  0.637743  0  4.094914  0
C  C50  1  0.63582698  0.42336608  0.42199216  1  1.654031  0  0.276341  0.730499  0  4.148419  0
C  C51  1  0.13589358  0.57664094  0.57800959  1  1.654935  0  0.276449  0.730635  0  4.148025  0
C  C52  1  0.94009289  0.69691298  0.74381078  1  -0.037966  0  -0.15173  -0.185719  0  3.843584  0
C  C53  1  0.43996567  0.30304971  0.25620861  1  -0.036715  0  -0.151632  -0.185526  0  3.843867  0
C  C54  1  0.31589281  0.70988073  0.74160033  1  -0.025405  0  -0.153761  -0.186851  0  3.847879  0
C  C55  1  0.81578920  0.29017038  0.25837249  1  -0.027422  0  -0.154092  -0.187576  0  3.848263  0
C  C56  1  0.30205961  0.75949169  0.79062888  1  -0.015733  0  -0.154018  -0.188594  0  3.848429  0
C  C57  1  0.80197299  0.24056412  0.20933991  1  -0.010432  0  -0.153929  -0.188968  0  3.849168  0
C  C58  1  0.07846900  0.87749108  0.87603242  1  0.105904  0  -0.056222  -0.235927  0  3.990376  0
C  C59  1  0.57850981  0.12250425  0.12397207  1  0.105094  0  -0.056257  -0.235848  0  3.990095  0
C  C60  1  0.12033925  0.70743191  0.70899825  1  0.164186  0  -0.000333  0.165963  0  3.90004  0
C  C61  1  0.62032299  0.29258007  0.29099868  1  0.164554  0  -0.000167  0.166716  0  3.898818  0
C  C62  1  0.92643073  0.74688786  0.79250534  1  -0.066829  0  -0.15335  -0.185519  0  3.844212  0
C  C63  1  0.42629051  0.25305415  0.20752652  1  -0.067586  0  -0.153367  -0.185156  0  3.843863  0
C  C64  1  0.09801770  0.79180259  0.79164067  1  0.152795  0  -0.000248  0.16615  0  3.899103  0
C  C65  1  0.59803159  0.20819351  0.20836514  1  0.152129  0  -8.5e-05  0.165935  0  3.900153  0
C  C66  1  0.07911068  0.81749870  0.74087710  1  -0.034439  0  -0.149519  -0.18244  0  3.839772  0
C  C67  1  0.57943006  0.18249443  0.25913328  1  -0.006708  0  -0.149121  -0.181232  0  3.838098  0
C  C68  1  0.09176756  0.76759406  0.69200078  1  -0.03114  0  -0.150862  -0.183497  0  3.843856  0
C  C69  1  0.59197542  0.23241037  0.30800772  1  -0.031075  0  -0.150569  -0.18324  0  3.842887  0
C  C70  1  0.08625333  0.83863857  0.83738812  1  -0.415234  0  -0.015066  -0.021961  0  4.027689  0
C  C71  1  0.58630566  0.16135550  0.16261642  1  -0.41495  0  -0.01504  -0.022025  0  4.027609  0
C  C72  1  0.12981399  0.66103923  0.66289041  1  -0.422899  0  -0.013366  -0.017427  0  4.025067  0
C  C73  1  0.62979082  0.33896953  0.33710541  1  -0.423268  0  -0.013383  -0.017647  0  4.025331  0
C  C74  1  0.13330117  0.62227680  0.62411062  1  0.107742  0  -0.056979  -0.239664  0  3.99249  0
C  C75  1  0.63327902  0.37773242  0.37588327  1  0.108057  0  -0.056945  -0.239564  0  3.99258  0
C  C76  1  0.26979769  0.88356605  0.12396123  1  -0.022768  0  -0.079087  -0.084949  0  3.963726  0
C  C77  1  0.76980915  0.11642645  0.87603291  1  -0.022206  0  -0.079191  -0.085417  0  3.963872  0
C  C78  1  0.27900664  0.84643753  0.16004785  1  -0.054218  0  -0.080034  -0.108385  0  3.96633  0
C  C79  1  0.77901014  0.15355845  0.83995028  1  -0.054229  0  -0.080022  -0.108144  0  3.966469  0
C  C80  1  0.10149147  0.82399867  0.17795222  1  0.022593  0  -0.001187  0.023774  0  3.990483  0
C  C81  1  0.60150618  0.17599793  0.82204576  1  0.022566  0  -0.001275  0.02367  0  3.990467  0
C  C82  1  0.91466832  0.84034162  0.15990686  1  -0.030786  0  -0.08003  -0.107096  0  3.95902  0
C  C83  1  0.41467065  0.15965299  0.84009071  1  -0.030802  0  -0.08001  -0.107097  0  3.958859  0
C  C84  1  0.90632510  0.87739161  0.12365124  1  -0.028191  0  -0.078875  -0.084097  0  3.965265  0
C  C85  1  0.40633540  0.12260039  0.87634235  1  -0.02788  0  -0.078903  -0.084071  0  3.965722  0
C  C86  1  0.08368722  0.89881286  0.10507985  1  -0.063206  0  -0.012125  -0.03904  0  3.959832  0
C  C87  1  0.58368188  0.10118082  0.89491487  1  -0.063828  0  -0.011982  -0.038751  0  3.959779  0
C  C88  1  0.13495470  0.71433149  0.28211523  1  0.944255  0  0.23915  0.258467  0  3.969822  0
C  C89  1  0.63495938  0.28566949  0.71788652  1  0.944313  0  0.239095  0.258588  0  3.969571  0
C  C90  1  0.11208969  0.78234363  0.21408998  1  0.959394  0  0.239647  0.241722  0  3.988089  0
C  C91  1  0.61209814  0.21765732  0.78591200  1  0.959331  0  0.239732  0.242035  0  3.987894  0
C  C92  1  0.31571370  0.67182516  0.35274894  1  0.46582  0  0.093634  0.295733  0  4.051854  0
C  C93  1  0.81570724  0.32817222  0.64724907  1  0.465892  0  0.093677  0.295913  0  4.051699  0
C  C94  1  0.31148954  0.63414729  0.38898533  1  -0.063268  0  -0.100567  -0.244771  0  3.968176  0
C  C95  1  0.81147064  0.36585109  0.61101343  1  -0.063267  0  -0.100611  -0.244885  0  3.968438  0
C  C96  1  0.13628436  0.60432275  0.39742888  1  0.072857  0  -0.011785  -0.001061  0  3.991023  0
C  C97  1  0.63628543  0.39567515  0.60257054  1  0.072982  0  -0.011766  -0.000819  0  3.990898  0
C  C98  1  0.96172628  0.61137575  0.36899734  1  -0.099516  0  -0.101505  -0.136534  0  4.017565  0
C  C99  1  0.46171491  0.38862265  0.63100097  1  -0.099721  0  -0.101533  -0.136722  0  4.017383  0
C  C100  1  0.96690162  0.64736927  0.33201183  1  -0.052579  0  -0.085097  -0.105232  0  4.012638  0
C  C101  1  0.46690134  0.35262708  0.66798692  1  -0.0532  0  -0.08506  -0.105023  0  4.01261  0
C  C102  1  0.14196580  0.67810861  0.32280217  1  0.033732  0  -0.011629  -0.080564  0  3.939505  0
C  C103  1  0.64195903  0.32188967  0.67719689  1  0.033993  0  -0.011694  -0.080812  0  3.939566  0
C  C104  1  0.57593784  0.07716667  0.07755910  1  1.673344  0  0.276587  0.731746  0  4.148291  0
C  C105  1  0.07587659  0.92283012  0.92244222  1  1.672245  0  0.276628  0.731664  0  4.148578  0
C  C106  1  0.57710531  0.06353396  0.93567859  1  1.573745  0  0.267731  0.636541  0  4.106383  0
C  C107  1  0.07706625  0.93646062  0.06431843  1  1.57359  0  0.267389  0.636166  0  4.106974  0
N  N108  1  0.93855834  0.76691354  0.23510879  1  -0.566401  0  -0.150905  -0.139308  0  3.209337  0
N  N109  1  0.43856244  0.23309787  0.76490228  1  -0.566354  0  -0.150926  -0.139329  0  3.209506  0
N  N110  1  0.95040499  0.73270503  0.26992268  1  -0.51737  0  -0.151136  -0.140176  0  3.210205  0
N  N111  1  0.45040263  0.26730549  0.73008809  1  -0.51745  0  -0.150991  -0.140201  0  3.210309  0
N  N112  1  0.30392583  0.72260260  0.25537421  1  -0.517066  0  -0.149969  -0.123932  0  3.187302  0
N  N113  1  0.80394180  0.27739249  0.74462136  1  -0.517265  0  -0.15003  -0.124005  0  3.187286  0
N  N114  1  0.29189617  0.75765524  0.22099236  1  -0.566159  0  -0.15545  -0.153503  0  3.207593  0
N  N115  1  0.79191551  0.24234090  0.77900430  1  -0.565864  0  -0.155429  -0.153624  0  3.207581  0
O  O116  1  0.46629340  0.44176561  0.44108494  1  -1.238379  0  -0.229234  -0.587534  0  2.281184  0
O  O117  1  0.96628824  0.55823575  0.55891301  1  -1.238285  0  -0.229457  -0.587807  0  2.279624  0
O  O118  1  0.80621182  0.44825544  0.54623823  1  -1.253295  0  -0.23769  -0.592918  0  2.344005  0
O  O119  1  0.30619302  0.55174929  0.45376205  1  -1.254049  0  -0.237655  -0.592657  0  2.344867  0
O  O120  1  0.80721169  0.44120206  0.44013472  1  -1.238326  0  -0.229771  -0.586579  0  2.282687  0
O  O121  1  0.30719920  0.55880869  0.55987145  1  -1.239163  0  -0.229609  -0.586324  0  2.283927  0
O  O122  1  0.96522946  0.54956449  0.45161142  1  -1.243363  0  -0.236048  -0.590863  0  2.347069  0
O  O123  1  0.46525462  0.45043716  0.54839397  1  -1.243746  0  -0.235764  -0.59022  0  2.348162  0
O  O124  1  0.63719739  0.53586699  0.50469345  1  -1.429369  0  -0.448157  -0.991334  0  2.195017  0
O  O125  1  0.13717738  0.46413822  0.49530988  1  -1.428631  0  -0.448191  -0.991477  0  2.194841  0
O  O126  1  0.74576750  0.04871268  0.95222248  1  -1.257175  0  -0.236893  -0.595088  0  2.364422  0
O  O127  1  0.24578447  0.95128821  0.04777501  1  -1.256854  0  -0.236851  -0.595139  0  2.363705  0
O  O128  1  0.40503774  0.06011622  0.05857665  1  -1.24158  0  -0.228562  -0.586903  0  2.278625  0
O  O129  1  0.90504057  0.93988144  0.94142320  1  -1.24111  0  -0.228522  -0.586573  0  2.279526  0
O  O130  1  0.40494367  0.05022568  0.95140428  1  -1.258903  0  -0.237413  -0.593658  0  2.339381  0
O  O131  1  0.90496660  0.94977180  0.04859675  1  -1.259146  0  -0.237195  -0.593249  0  2.340523  0
O  O132  1  0.24607151  0.94151970  0.94077315  1  -1.240308  0  -0.227844  -0.585836  0  2.284355  0
O  O133  1  0.74607461  0.05848090  0.05923101  1  -1.240433  0  -0.227721  -0.58554  0  2.284941  0
O  O134  1  0.57445423  0.96429352  0.99612292  1  -1.434551  0  -0.448435  -0.993721  0  2.199338  0
O  O135  1  0.07447042  0.03570689  0.00387721  1  -1.43458  0  -0.448313  -0.993672  0  2.199221  0
O  O136  1  0.48229322  0.70374851  0.34659706  1  -1.116008  0  -0.33845  -0.433913  0  2.32623  0
O  O137  1  0.98227848  0.29624906  0.65339905  1  -1.116105  0  -0.338417  -0.434048  0  2.326276  0
