# generated using pymatgen
data_Lu2CoH28(C8O9)2
_symmetry_space_group_name_H-M   'P 1'
_cell_length_a   8.81850138
_cell_length_b   9.08517094
_cell_length_c   10.51340143
_cell_angle_alpha   80.53654549
_cell_angle_beta   74.28121910
_cell_angle_gamma   76.92393764
_symmetry_Int_Tables_number   1
_chemical_formula_structural   Lu2CoH28(C8O9)2
_chemical_formula_sum   'Lu2 Co1 H28 C16 O18'
_cell_volume   784.99350309
_cell_formula_units_Z   1
loop_
 _symmetry_equiv_pos_site_id
 _symmetry_equiv_pos_as_xyz
  1  'x, y, z'
loop_
 _atom_site_type_symbol
 _atom_site_label
 _atom_site_symmetry_multiplicity
 _atom_site_fract_x
 _atom_site_fract_y
 _atom_site_fract_z
 _atom_site_occupancy
 _atom_site_pbe_cm5_charge
 _atom_site_pbe_ddec_charge
 _atom_site_pbe_ddec_spin_density
 _atom_site_pbe_ddec_sum_bond_order
 _atom_site_pbe_magmom
Lu  Lu0  1  0.90040672  0.06708933  0.69646316  1  1.324394  1.592885  -0.000657  2.847727  0.001
Lu  Lu1  1  0.09958345  0.93290385  0.30353824  1  1.324384  1.592815  -0.000658  2.847924  0.001
Co  Co2  1  0.00000316  0.00000011  0.99999822  1  0.676186  1.047098  2.799822  2.350231  2.584
H  H3  1  0.83857653  0.35550272  0.04652099  1  0.10394  0.166294  -0.000299  0.985967  0.0
H  H4  1  0.16143247  0.64450854  0.95347267  1  0.103982  0.166284  -0.000299  0.985999  0.0
H  H5  1  0.63531578  0.39677824  0.02903699  1  0.103139  0.155852  0.000161  0.995319  0.0
H  H6  1  0.36469474  0.60324324  0.97095485  1  0.103146  0.155875  0.000161  0.995311  0.0
H  H7  1  0.77546105  0.50566744  0.92786606  1  0.102887  0.152576  0.000186  1.017379  0.0
H  H8  1  0.22456375  0.49433005  0.07210895  1  0.102912  0.152644  0.000186  1.017411  0.0
H  H9  1  0.73995286  0.73303296  0.09316548  1  0.101684  0.162889  -0.000131  0.976789  0.0
H  H10  1  0.26008193  0.26696580  0.90685278  1  0.101751  0.162928  -0.000131  0.976957  0.0
H  H11  1  0.60381905  0.72516261  0.99521460  1  0.100691  0.151003  0.000172  1.004945  0.0
H  H12  1  0.39619271  0.27481579  0.00480600  1  0.100786  0.151141  0.000171  1.005122  0.0
H  H13  1  0.56220613  0.87697234  0.09081495  1  0.111125  0.184562  0.00048  1.00823  0.001
H  H14  1  0.43780282  0.12303221  0.90920346  1  0.111122  0.184645  0.000479  1.008392  0.001
H  H15  1  0.46910246  0.88188860  0.58331682  1  0.09513  0.147557  0.000511  1.015535  0.001
H  H16  1  0.53089370  0.11811593  0.41668446  1  0.095113  0.147462  0.000511  1.015388  0.001
H  H17  1  0.46544557  0.74678026  0.72793512  1  0.098854  0.147628  -0.000201  1.001118  0.0
H  H18  1  0.53454499  0.25322312  0.27205901  1  0.098853  0.14759  -0.000202  1.001051  0.0
H  H19  1  0.51387420  0.92459945  0.72891692  1  0.107423  0.179736  -5.3e-05  1.016266  0.0
H  H20  1  0.48611441  0.07540169  0.27108273  1  0.107424  0.1797  -5.3e-05  1.016258  0.0
H  H21  1  0.20297538  0.33885533  0.26321709  1  0.096369  0.146702  5.8e-05  1.018125  0.0
H  H22  1  0.79702939  0.66115937  0.73677891  1  0.096409  0.146751  5.8e-05  1.018288  0.0
H  H23  1  0.26717281  0.37538328  0.40014287  1  0.103246  0.156746  3.1e-05  0.987405  0.0
H  H24  1  0.73280718  0.62461910  0.59987468  1  0.103294  0.156818  3.1e-05  0.987225  0.0
H  H25  1  0.08299880  0.47916615  0.37176567  1  0.10479  0.171993  4e-06  1.013065  0.0
H  H26  1  0.91699240  0.52083954  0.62823845  1  0.104775  0.171988  4e-06  1.01301  0.0
H  H27  1  0.76362134  0.11398966  0.46855900  1  0.301445  0.381835  -8e-06  0.966427  0.0
H  H28  1  0.23636220  0.88600699  0.53144907  1  0.301449  0.38178  -8e-06  0.9665  0.0
H  H29  1  0.69247019  0.26199460  0.54836506  1  0.341666  0.414549  2e-06  0.853094  0.0
H  H30  1  0.30751635  0.73801109  0.45163344  1  0.3417  0.414583  2e-06  0.853038  0.0
C  C31  1  0.26375325  0.92928707  0.75066773  1  0.237434  0.722856  -0.002306  4.052009  -0.001
C  C32  1  0.73623707  0.07071745  0.24932820  1  0.237548  0.723105  -0.002304  4.052044  -0.001
C  C33  1  0.76193428  0.39114782  0.97641501  1  -0.235175  -0.523075  -0.000596  3.884939  0.0
C  C34  1  0.23807415  0.60885437  0.02358008  1  -0.235262  -0.52318  -0.000597  3.885139  0.0
C  C35  1  0.66089300  0.79998174  0.03168250  1  -0.241385  -0.532077  0.000526  3.883265  0.0
C  C36  1  0.33914745  0.20002487  0.96831625  1  -0.241621  -0.532336  0.000526  3.883316  0.0
C  C37  1  0.80633600  0.28486771  0.87136087  1  0.2199  0.708377  0.004044  4.05271  0.005
C  C38  1  0.19366410  0.71512884  0.12863783  1  0.219985  0.708537  0.004044  4.052472  0.005
C  C39  1  0.75090214  0.89125923  0.91624850  1  0.214098  0.69215  0.006962  4.090639  0.009
C  C40  1  0.24910457  0.10872142  0.08375958  1  0.214093  0.691964  0.006968  4.090175  0.009
C  C41  1  0.43880463  0.86840306  0.69218304  1  -0.24673  -0.543  0.002298  3.882038  0.003
C  C42  1  0.56120286  0.13159227  0.30780468  1  -0.246716  -0.542895  0.002296  3.881964  0.003
C  C43  1  0.16266122  0.36714929  0.36576459  1  -0.240018  -0.529663  6.4e-05  3.880624  0.0
C  C44  1  0.83733143  0.63286095  0.63423951  1  -0.240109  -0.529785  6.5e-05  3.880826  0.0
C  C45  1  0.08004350  0.24716898  0.45562807  1  0.234522  0.724161  6.5e-05  4.08792  0.0
C  C46  1  0.91994704  0.75282870  0.54436118  1  0.234497  0.723851  6.5e-05  4.088317  0.0
O  O47  1  0.16695046  0.96059957  0.67288865  1  -0.36515  -0.605379  0.000395  2.309117  0.002
O  O48  1  0.83303650  0.03939815  0.32710710  1  -0.365179  -0.605487  0.000395  2.309066  0.002
O  O49  1  0.01444001  0.26753366  0.57646039  1  -0.367625  -0.5936  0.000194  2.239276  0.0
O  O50  1  0.98554991  0.73244926  0.42353112  1  -0.367686  -0.593494  0.000194  2.239471  0.0
O  O51  1  0.90511121  0.87955960  0.89456551  1  -0.357821  -0.646699  0.022003  2.345688  0.032
O  O52  1  0.09488390  0.12043242  0.10543495  1  -0.357747  -0.64658  0.022002  2.34552  0.032
O  O53  1  0.93565431  0.17937193  0.86430695  1  -0.384292  -0.643629  0.024076  2.409312  0.036
O  O54  1  0.06434250  0.82062348  0.13568979  1  -0.384325  -0.643739  0.024075  2.409206  0.036
O  O55  1  0.67866597  0.98081877  0.83572579  1  -0.349629  -0.558606  0.007902  2.226838  0.014
O  O56  1  0.32134413  0.01915051  0.16428508  1  -0.34961  -0.558419  0.007904  2.226963  0.014
O  O57  1  0.72503790  0.29528152  0.78736941  1  -0.339898  -0.556555  0.00886  2.103734  0.015
O  O58  1  0.27495604  0.70471621  0.21263524  1  -0.339933  -0.556617  0.008861  2.103692  0.015
O  O59  1  0.07641005  0.12654309  0.40955467  1  -0.405776  -0.627053  0.000108  2.364609  0.0
O  O60  1  0.92358352  0.87346362  0.59042214  1  -0.405675  -0.626793  0.000108  2.364443  0.0
O  O61  1  0.72668955  0.15228043  0.55932744  1  -0.609026  -0.764141  8.7e-05  2.12506  0.0
O  O62  1  0.27330044  0.84772528  0.44067980  1  -0.609075  -0.764156  8.7e-05  2.125061  0.0
O  O63  1  0.22224294  0.94369714  0.87345564  1  -0.298297  -0.560408  0.025152  2.32324  0.044
O  O64  1  0.77775610  0.05631077  0.12654262  1  -0.298388  -0.560543  0.025149  2.323273  0.044
