# generated using pymatgen
data_La2Cu3H54C36(NO4)6
_symmetry_space_group_name_H-M   'P 1'
_cell_length_a   7.68583400
_cell_length_b   13.58498719
_cell_length_c   13.58484187
_cell_angle_alpha   120.00061636
_cell_angle_beta   90.00048581
_cell_angle_gamma   89.99944609
_symmetry_Int_Tables_number   1
_chemical_formula_structural   La2Cu3H54C36(NO4)6
_chemical_formula_sum   'La2 Cu3 H54 C36 N6 O24'
_cell_volume   1228.38005184
_cell_formula_units_Z   1
loop_
 _symmetry_equiv_pos_site_id
 _symmetry_equiv_pos_as_xyz
  1  'x, y, z'
loop_
 _atom_site_type_symbol
 _atom_site_label
 _atom_site_symmetry_multiplicity
 _atom_site_fract_x
 _atom_site_fract_y
 _atom_site_fract_z
 _atom_site_occupancy
 _atom_site_pbe_bader_charge
 _atom_site_pbe_bader_spin_density
 _atom_site_pbe_cm5_charge
 _atom_site_pbe_ddec_charge
 _atom_site_pbe_ddec_spin_density
 _atom_site_pbe_ddec_sum_bond_order
 _atom_site_pbe_magmom
La  La0  1  0.34383474  0.33333634  0.66666936  1  2.263756  0.000869  1.39376  1.884971  0.001134  2.370219  0.001
La  La1  1  0.65616625  0.66666450  0.33333092  1  2.263694  0.00087  1.393735  1.884912  0.001134  2.370117  0.001
Cu  Cu2  1  0.99999512  0.50000125  0.00000204  1  1.055482  0.578863  0.733718  0.767378  0.749964  2.19221  0.578
Cu  Cu3  1  0.00000986  0.50000248  0.49999840  1  1.057559  0.578885  0.733768  0.767552  0.749979  2.192119  0.578
Cu  Cu4  1  0.99999549  0.00000293  0.50000222  1  1.05663  -0.578751  0.733738  0.767462  -0.77236  2.192138  -0.578
H  H5  1  0.85916460  0.67971406  0.03541664  1  0.465215  -0.000183  0.296497  0.260505  0.000248  0.974412  0.0
H  H6  1  0.94014711  0.66302285  0.83797351  1  0.053078  0.004151  0.112678  0.067076  0.002135  1.021885  0.003
H  H7  1  0.76141910  0.53870345  0.80116226  1  0.097964  0.00017  0.124969  0.09159  7.3e-05  0.975815  0.0
H  H8  1  0.62317844  0.72489517  0.93266068  1  0.011266  0.000498  0.087552  0.12142  0.000251  0.995045  0.0
H  H9  1  0.54500608  0.66924169  0.01900172  1  0.074124  -1.3e-05  0.097901  0.147683  -1.6e-05  1.004832  0.0
H  H10  1  0.47117597  0.61199019  0.87559093  1  0.085893  0.001519  0.098702  0.135637  0.000749  1.054655  0.001
H  H11  1  0.04424055  0.82540120  0.01469743  1  0.029994  -0.000104  0.087731  0.119346  -6.4e-05  1.026265  0.0
H  H12  1  0.21618375  0.76376444  0.91459669  1  0.066891  5.4e-05  0.096447  0.135514  3.3e-05  1.00571  0.0
H  H13  1  0.20529617  0.73769716  0.03009512  1  0.086806  0.000208  0.096725  0.144694  0.00014  1.023872  0.0
H  H14  1  0.85916309  0.35570310  0.32028443  1  0.468066  -0.00011  0.296479  0.260518  0.000329  0.974366  0.0
H  H15  1  0.94016447  0.17494689  0.33696065  1  0.05525  0.004097  0.112582  0.067049  0.002122  1.021937  0.003
H  H16  1  0.76145015  0.26245979  0.46129845  1  0.096416  4.9e-05  0.125032  0.091763  -8.5e-05  0.975768  0.0
H  H17  1  0.62320526  0.20775169  0.27510489  1  0.01496  0.000488  0.08753  0.121353  0.000249  0.99504  0.0
H  H18  1  0.54500994  0.34974190  0.33076430  1  0.059361  -2.2e-05  0.097993  0.147741  -3.4e-05  1.004829  0.0
H  H19  1  0.47120261  0.26358132  0.38801619  1  0.081903  0.001536  0.098671  0.135576  0.000746  1.054487  0.001
H  H20  1  0.04424732  0.18929754  0.17458576  1  -0.016854  0.000143  0.087697  0.11928  7.9e-05  1.026252  0.0
H  H21  1  0.21619043  0.15082865  0.23621681  1  0.067977  0.00013  0.09647  0.135561  4.1e-05  1.00567  0.0
H  H22  1  0.20530833  0.29239803  0.26229254  1  0.084851  0.00037  0.09678  0.144845  0.000233  1.023866  0.0
H  H23  1  0.85917066  0.96458904  0.64430217  1  0.470122  0.000215  0.296432  0.260389  -0.000284  0.974476  0.0
H  H24  1  0.94017350  0.16202482  0.82505781  1  0.06703  -0.004083  0.112574  0.066988  -0.002183  1.021979  -0.003
H  H25  1  0.76142809  0.19883977  0.73755406  1  0.106067  -5.5e-05  0.125007  0.091741  8.1e-05  0.975803  0.0
H  H26  1  0.62319742  0.06734482  0.79224753  1  0.022869  -0.000487  0.087518  0.121359  -0.000261  0.99502  0.0
H  H27  1  0.54501728  0.98101183  0.65025303  1  0.083706  2e-05  0.097946  0.147692  1.9e-05  1.004818  0.0
H  H28  1  0.47119087  0.12442207  0.73641911  1  0.089215  -0.001528  0.09872  0.135656  -0.000771  1.054489  -0.001
H  H29  1  0.04426864  0.98530048  0.81070063  1  0.002245  0.000105  0.087743  0.119341  4.9e-05  1.026304  0.0
H  H30  1  0.21621779  0.08539375  0.84915666  1  0.071909  -3e-06  0.096465  0.135525  3e-06  1.005691  0.0
H  H31  1  0.20530452  0.96989721  0.70758500  1  0.070058  -0.00019  0.096814  0.144822  -0.000139  1.023937  0.0
H  H32  1  0.14083248  0.32028319  0.96458430  1  0.465174  -0.000182  0.29647  0.260473  0.000248  0.974425  0.0
H  H33  1  0.05984606  0.33697471  0.16202859  1  0.053088  0.00415  0.112668  0.067102  0.002135  1.021979  0.003
H  H34  1  0.23857798  0.46129338  0.19883910  1  0.097904  0.00017  0.124973  0.091633  7.3e-05  0.975721  0.0
H  H35  1  0.37681734  0.27510103  0.06733836  1  0.011225  0.000498  0.087533  0.121386  0.000251  0.995063  0.0
H  H36  1  0.45498840  0.33075630  0.98099995  1  0.074193  -1.3e-05  0.097913  0.147687  -1.6e-05  1.004873  0.0
H  H37  1  0.52882111  0.38800864  0.12440989  1  0.085981  0.001519  0.098704  0.135637  0.000749  1.054605  0.001
H  H38  1  0.95575783  0.17459415  0.98530246  1  0.029921  -0.000105  0.087718  0.119327  -6.4e-05  1.026246  0.0
H  H39  1  0.78381594  0.23622901  0.08540216  1  0.066714  5.4e-05  0.096479  0.135555  3.3e-05  1.00561  0.0
H  H40  1  0.79469700  0.26229513  0.96990341  1  0.086896  0.000208  0.096714  0.144715  0.00014  1.02384  0.0
H  H41  1  0.14083919  0.64430262  0.67971392  1  0.468146  -0.000109  0.296466  0.260414  0.00033  0.97447  0.0
H  H42  1  0.05984172  0.82505725  0.66303782  1  0.055194  0.004097  0.11258  0.067035  0.002122  1.021923  0.003
H  H43  1  0.23855994  0.73754369  0.53870362  1  0.096089  4.9e-05  0.125005  0.091733  -8.5e-05  0.975755  0.0
H  H44  1  0.37680483  0.79225063  0.72489686  1  0.015003  0.000488  0.087504  0.121351  0.000249  0.995094  0.0
H  H45  1  0.45499495  0.65026220  0.66924009  1  0.059344  -2.2e-05  0.097997  0.147747  -3.4e-05  1.004827  0.0
H  H46  1  0.52880748  0.73642340  0.61199053  1  0.081931  0.001535  0.098681  0.135628  0.000746  1.05454  0.001
H  H47  1  0.95575627  0.81070058  0.82540841  1  -0.016774  0.000143  0.087712  0.119263  7.9e-05  1.026258  0.0
H  H48  1  0.78381316  0.84917053  0.76377925  1  0.067966  0.00013  0.096493  0.135584  4.1e-05  1.00556  0.0
H  H49  1  0.79469916  0.70760137  0.73770035  1  0.084881  0.00037  0.096732  0.144706  0.000233  1.023891  0.0
H  H50  1  0.14082902  0.03541254  0.35569885  1  0.470114  0.000215  0.296459  0.260418  -0.000284  0.974406  0.0
H  H51  1  0.05982618  0.83797835  0.17494310  1  0.067021  -0.004083  0.112575  0.067004  -0.002183  1.021993  -0.003
H  H52  1  0.23856379  0.80116000  0.26245024  1  0.106038  -5.5e-05  0.125004  0.091731  8.1e-05  0.975787  0.0
H  H53  1  0.37680747  0.93265293  0.20775731  1  0.023006  -0.000487  0.087534  0.121386  -0.000261  0.994952  0.0
H  H54  1  0.45498631  0.01898403  0.34975077  1  0.08379  2e-05  0.097961  0.14771  1.9e-05  1.004841  0.0
H  H55  1  0.52880621  0.87557252  0.26358597  1  0.089266  -0.001528  0.098681  0.135633  -0.000771  1.054458  -0.001
H  H56  1  0.95573494  0.01470427  0.18930017  1  0.002591  0.000105  0.087766  0.119376  4.9e-05  1.02625  0.0
H  H57  1  0.78378319  0.91460880  0.15084192  1  0.071916  -3e-06  0.096448  0.135522  4e-06  1.005689  0.0
H  H58  1  0.79469256  0.03010766  0.29241421  1  0.070131  -0.00019  0.09679  0.144798  -0.000139  1.023913  0.0
C  C59  1  0.13291353  0.54423005  0.81569241  1  1.569573  0.002848  0.203637  0.566871  0.001836  4.165947  0.002
C  C60  1  0.01739684  0.64488676  0.89522386  1  0.301787  0.000791  -0.00225  0.049772  0.00126  3.858087  -0.001
C  C61  1  0.73282151  0.56191220  0.88973514  1  0.26062  0.000587  0.002617  0.034109  0.000801  3.843054  -0.001
C  C62  1  0.68656070  0.44859828  0.88104609  1  1.577897  -0.00026  0.234039  0.612977  0.000943  4.093998  0.0
C  C63  1  0.58313922  0.64706072  0.93251612  1  -0.081223  0.002467  -0.24227  -0.407475  0.001916  3.897696  0.002
C  C64  1  0.12704887  0.74982526  0.96951632  1  -0.127135  0.000191  -0.245335  -0.4155  4.4e-05  3.920125  0.0
C  C65  1  0.13293138  0.27146455  0.45575958  1  1.585564  0.002924  0.203612  0.566919  0.001918  4.165939  0.002
C  C66  1  0.01741438  0.25033344  0.35510222  1  0.28372  0.000861  -0.002033  0.04996  0.001286  3.857769  -0.001
C  C67  1  0.73284483  0.32781676  0.43808622  1  0.272276  0.000518  0.002527  0.033922  0.00076  3.843114  -0.001
C  C68  1  0.68658695  0.43244719  0.55140411  1  1.582137  -0.000197  0.234049  0.613068  0.001004  4.093902  0.0
C  C69  1  0.58315487  0.28543752  0.35294158  1  -0.079658  0.002465  -0.242271  -0.407359  0.001893  3.897504  0.002
C  C70  1  0.12705972  0.21969123  0.25016103  1  -0.078207  0.000751  -0.245432  -0.41566  0.000479  3.919997  0.0
C  C71  1  0.13291730  0.18430315  0.72852655  1  1.581523  -0.002919  0.20363  0.566995  -0.001976  4.165519  -0.002
C  C72  1  0.01741736  0.10477880  0.74966615  1  0.28839  -0.000773  -0.002077  0.049982  -0.001358  3.857887  0.001
C  C73  1  0.73283290  0.11027147  0.67219310  1  0.255603  -0.000474  0.002564  0.033813  -0.00081  3.843243  0.001
C  C74  1  0.68656379  0.11896391  0.56756423  1  1.583972  0.000221  0.234003  0.612981  -0.00108  4.094045  0.0
C  C75  1  0.58314782  0.06749556  0.71456221  1  -0.109116  -0.002482  -0.242295  -0.40738  -0.001968  3.897621  -0.002
C  C76  1  0.12707452  0.03048013  0.78030086  1  -0.083601  -0.000158  -0.24549  -0.415678  -2.1e-05  3.920154  0.0
C  C77  1  0.86708876  0.45577326  0.18430099  1  1.569543  0.002848  0.203602  0.566956  0.001835  4.165875  0.002
C  C78  1  0.98259764  0.35511080  0.10477824  1  0.301675  0.000791  -0.002167  0.049753  0.001261  3.858161  -0.001
C  C79  1  0.26717427  0.43808621  0.11026611  1  0.260523  0.000587  0.002632  0.034161  0.000801  3.842905  -0.001
C  C80  1  0.31342727  0.55140078  0.11895156  1  1.577882  -0.000261  0.233999  0.612887  0.000943  4.094025  0.0
C  C81  1  0.41685786  0.35293843  0.06748586  1  -0.081323  0.002467  -0.242261  -0.407452  0.001916  3.897728  0.002
C  C82  1  0.87295081  0.25017082  0.03048431  1  -0.127041  0.000191  -0.245354  -0.415513  4.4e-05  3.920022  0.0
C  C83  1  0.86707611  0.72854159  0.54423835  1  1.58545  0.002925  0.203665  0.567052  0.001919  4.165863  0.002
C  C84  1  0.98259441  0.74966732  0.64489373  1  0.283853  0.000861  -0.002042  0.049847  0.001287  3.857999  -0.001
C  C85  1  0.26716266  0.67218850  0.56191848  1  0.272914  0.000515  0.002591  0.033973  0.000757  3.843082  -0.001
C  C86  1  0.31344526  0.56756043  0.44859529  1  1.581782  -0.000198  0.23397  0.612937  0.001004  4.094146  0.0
C  C87  1  0.41685262  0.71456627  0.64706164  1  -0.079848  0.002464  -0.242283  -0.407449  0.001893  3.897638  0.002
C  C88  1  0.87294647  0.78030818  0.74983186  1  -0.078164  0.000751  -0.245421  -0.41547  0.000479  3.919917  0.0
C  C89  1  0.86706937  0.81569544  0.27146127  1  1.581003  -0.002919  0.203714  0.56709  -0.001976  4.165691  -0.002
C  C90  1  0.98258102  0.89522448  0.25033317  1  0.288769  -0.000773  -0.002095  0.049851  -0.001358  3.857922  0.001
C  C91  1  0.26716288  0.88972734  0.32781364  1  0.255601  -0.000474  0.002569  0.033966  -0.00081  3.842929  0.001
C  C92  1  0.31341898  0.88103753  0.43244429  1  1.58244  0.000218  0.234005  0.612914  -0.00108  4.094034  0.0
C  C93  1  0.41684926  0.93250166  0.28544465  1  -0.109304  -0.002481  -0.242278  -0.407412  -0.001967  3.897452  -0.002
C  C94  1  0.87292646  0.96952431  0.21969877  1  -0.084108  -0.000158  -0.245476  -0.415673  -2.1e-05  3.920183  0.0
N  N95  1  0.89440848  0.61177692  0.95759924  1  -1.043757  0.093245  -0.485769  -0.358407  0.061807  3.450459  0.078
N  N96  1  0.89442207  0.34582114  0.38821890  1  -1.039153  0.093336  -0.485855  -0.358663  0.061879  3.450491  0.078
N  N97  1  0.89441764  0.04240653  0.65418595  1  -1.05853  -0.093287  -0.48577  -0.358425  -0.063663  3.450576  -0.078
N  N98  1  0.10558470  0.38821959  0.04240096  1  -1.043685  0.093239  -0.485792  -0.358463  0.061803  3.450374  0.078
N  N99  1  0.10558542  0.65418078  0.61177736  1  -1.039149  0.093326  -0.485835  -0.358584  0.061873  3.450732  0.078
N  N100  1  0.10557424  0.95759653  0.34581654  1  -1.059042  -0.093276  -0.485803  -0.358444  -0.063656  3.450299  -0.078
O  O101  1  0.24012185  0.55828022  0.75289565  1  -1.193753  0.0014  -0.329475  -0.576548  0.000728  2.208008  0.001
O  O102  1  0.11661162  0.45034506  0.81487100  1  -1.183114  -0.001266  -0.373083  -0.6139  -0.000922  2.317906  0.0
O  O103  1  0.78804681  0.40785551  0.92635953  1  -1.117255  0.086369  -0.312568  -0.517888  0.056788  2.315738  0.079
O  O104  1  0.55232675  0.39717749  0.82515865  1  -1.217284  0.014617  -0.380204  -0.609405  0.009401  2.257866  0.012
O  O105  1  0.24012525  0.19459331  0.44169883  1  -1.19494  0.001869  -0.329493  -0.57681  0.001246  2.20776  0.001
O  O106  1  0.11666369  0.36452374  0.54963451  1  -1.191453  -0.001207  -0.373014  -0.613775  -0.000892  2.318371  0.0
O  O107  1  0.78805891  0.51850036  0.59214369  1  -1.117577  0.086415  -0.312631  -0.518045  0.056798  2.316106  0.079
O  O108  1  0.55235081  0.42797482  0.60283410  1  -1.217404  0.015003  -0.380175  -0.609427  0.009678  2.257468  0.013
O  O109  1  0.24012497  0.24711369  0.80539585  1  -1.200831  -0.001695  -0.329516  -0.576789  -0.00118  2.20749  -0.001
O  O110  1  0.11663208  0.18512398  0.63547215  1  -1.184687  0.001369  -0.373034  -0.613836  0.000949  2.318234  0.0
O  O111  1  0.78805284  0.07365029  0.48150393  1  -1.120295  -0.086323  -0.31258  -0.517926  -0.058518  2.315699  -0.079
O  O112  1  0.55233587  0.17484798  0.57203250  1  -1.218908  -0.014593  -0.38015  -0.609319  -0.009726  2.258001  -0.012
O  O113  1  0.75987523  0.44171521  0.24710857  1  -1.193635  0.0014  -0.329499  -0.576747  0.000728  2.207445  0.001
O  O114  1  0.88337895  0.54964556  0.18512331  1  -1.183115  -0.001267  -0.373012  -0.613796  -0.000923  2.31846  0.0
O  O115  1  0.21194377  0.59214596  0.07364307  1  -1.117451  0.086354  -0.312582  -0.517934  0.056777  2.315936  0.079
O  O116  1  0.44766773  0.60282157  0.17483900  1  -1.21707  0.014616  -0.380153  -0.609347  0.0094  2.25772  0.012
O  O117  1  0.75988484  0.80541009  0.55829890  1  -1.195004  0.001869  -0.329422  -0.576711  0.001246  2.207878  0.001
O  O118  1  0.88335681  0.63548244  0.45035751  1  -1.191406  -0.001207  -0.373127  -0.613874  -0.000892  2.318106  0.0
O  O119  1  0.21194728  0.48149627  0.40785493  1  -1.117506  0.08649  -0.312594  -0.517971  0.056845  2.3156  0.079
O  O120  1  0.44765408  0.57202387  0.39717423  1  -1.217409  0.015004  -0.380064  -0.609232  0.009679  2.258193  0.013
O  O121  1  0.75987862  0.75288582  0.19459545  1  -1.200326  -0.001694  -0.329447  -0.576742  -0.00118  2.208005  -0.001
O  O122  1  0.88334808  0.81487837  0.36452369  1  -1.184637  0.001368  -0.373164  -0.613932  0.000948  2.318056  0.0
O  O123  1  0.21193514  0.92635021  0.51850111  1  -1.119167  -0.086288  -0.312584  -0.517959  -0.058498  2.315967  -0.079
O  O124  1  0.44764950  0.82514239  0.42797091  1  -1.218478  -0.014587  -0.380136  -0.609322  -0.009721  2.257738  -0.012
