# generated using pymatgen
data_ZnH10C9O7
_symmetry_space_group_name_H-M   'P 1'
_cell_length_a   7.28958659
_cell_length_b   8.58206076
_cell_length_c   9.53092033
_cell_angle_alpha   110.48658392
_cell_angle_beta   85.38630588
_cell_angle_gamma   100.63719068
_symmetry_Int_Tables_number   1
_chemical_formula_structural   ZnH10C9O7
_chemical_formula_sum   'Zn2 H20 C18 O14'
_cell_volume   548.86157425
_cell_formula_units_Z   2
loop_
 _symmetry_equiv_pos_site_id
 _symmetry_equiv_pos_as_xyz
  1  'x, y, z'
loop_
 _atom_site_type_symbol
 _atom_site_label
 _atom_site_symmetry_multiplicity
 _atom_site_fract_x
 _atom_site_fract_y
 _atom_site_fract_z
 _atom_site_occupancy
 _atom_site_pbe_bader_spin_density
 _atom_site_pbe_cm5_charge
 _atom_site_pbe_ddec_charge
 _atom_site_pbe_ddec_spin_density
 _atom_site_pbe_ddec_sum_bond_order
 _atom_site_pbe_magmom
Zn  Zn0  1  0.05241755  0.36992085  0.09224609  1  0  0.695261  0.972058  0  2.240143  0
Zn  Zn1  1  0.94757849  0.63007990  0.90775392  1  0  0.695281  0.97212  0  2.240148  0
H  H2  1  0.11854785  0.36220105  0.52313758  1  0  0.109824  0.117383  0  1.028225  0
H  H3  1  0.88144994  0.63780332  0.47686986  1  0  0.109818  0.117401  0  1.028227  0
H  H4  1  0.24564810  0.01743296  0.72354933  1  0  0.114611  0.13529  0  0.997316  0
H  H5  1  0.75435667  0.98257129  0.27645579  1  0  0.114661  0.135306  0  0.997297  0
H  H6  1  0.31042580  0.90537366  0.24581512  1  0  0.109104  0.110064  0  1.061658  0
H  H7  1  0.68956902  0.09462201  0.75418537  1  0  0.109109  0.110151  0  1.061578  0
H  H8  1  0.39961883  0.79608867  0.66476128  1  0  0.095812  0.100271  0  1.021389  0
H  H9  1  0.60037956  0.20390438  0.33523827  1  0  0.09582  0.100246  0  1.021491  0
H  H10  1  0.34891100  0.59281583  0.52164840  1  0  0.106685  0.11844  0  0.992983  0
H  H11  1  0.65108307  0.40718125  0.47834732  1  0  0.106711  0.118475  0  0.992888  0
H  H12  1  0.16228035  0.70446739  0.61052224  1  0  0.098999  0.107828  0  1.027643  0
H  H13  1  0.83771486  0.29553477  0.38947404  1  0  0.09901  0.107819  0  1.027716  0
H  H14  1  0.71824996  0.28887622  0.97741349  1  0  0.289158  0.397797  0  0.934563  0
H  H15  1  0.28174491  0.71112465  0.02258343  1  0  0.28919  0.397832  0  0.934519  0
H  H16  1  0.78635212  0.11943630  0.97748374  1  0  0.289229  0.399005  0  0.938805  0
H  H17  1  0.21364125  0.88056455  0.02251532  1  0  0.289274  0.398995  0  0.938827  0
H  H18  1  0.54054290  0.65586433  0.10879149  1  0  0.294922  0.393633  0  0.930459  0
H  H19  1  0.45946378  0.34414125  0.89120981  1  0  0.294915  0.393627  0  0.93046  0
H  H20  1  0.38348989  0.67419905  0.23468680  1  0  0.299407  0.374744  0  0.959391  0
H  H21  1  0.61651156  0.32580040  0.76530950  1  0  0.299414  0.374702  0  0.95943  0
C  C22  1  0.19099112  0.18070679  0.23212177  1  0  0.21158  0.579298  0  4.19676  0
C  C23  1  0.80900648  0.81928247  0.76787657  1  0  0.211606  0.579437  0  4.196722  0
C  C24  1  0.21700549  0.14016599  0.36938297  1  0  -0.021221  -0.027831  0  4.020058  0
C  C25  1  0.78299314  0.85983466  0.63061904  1  0  -0.021189  -0.027764  0  4.019982  0
C  C26  1  0.16975704  0.24692190  0.51087743  1  0  -0.088074  -0.136032  0  3.953872  0
C  C27  1  0.83024554  0.75308377  0.48912401  1  0  -0.088147  -0.136131  0  3.95402  0
C  C28  1  0.18327814  0.20196403  0.63640228  1  0  -0.017634  -0.016841  0  4.006238  0
C  C29  1  0.81673025  0.79804280  0.36359833  1  0  -0.017605  -0.01697  0  4.006354  0
C  C30  1  0.12378944  0.31404195  0.78454798  1  0  0.229098  0.599156  0  4.148871  0
C  C31  1  0.87621958  0.68596225  0.21545491  1  0  0.229138  0.599384  0  4.148696  0
C  C32  1  0.24001153  0.04973400  0.62343605  1  0  -0.092391  -0.214078  0  3.918295  0
C  C33  1  0.75999093  0.95026930  0.37655832  1  0  -0.092386  -0.213788  0  3.918213  0
C  C34  1  0.28206066  0.94161710  0.48083417  1  0  0.086828  0.258365  0  4.04476  0
C  C35  1  0.71793498  0.05838118  0.51916295  1  0  0.086819  0.258202  0  4.044847  0
C  C36  1  0.27474298  0.98950801  0.35547534  1  0  -0.088911  -0.197804  0  3.939554  0
C  C37  1  0.72525305  0.01049391  0.64452925  1  0  -0.088974  -0.19795  0  3.939514  0
C  C38  1  0.30825893  0.71749463  0.57099462  1  0  -0.140447  -0.172263  0  3.854767  0
C  C39  1  0.69173418  0.28250379  0.42899945  1  0  -0.140496  -0.172277  0  3.85486  0
O  O40  1  0.14134082  0.32601900  0.25910014  1  0  -0.326424  -0.558441  0  2.333836  0
O  O41  1  0.85866346  0.67397406  0.74089296  1  0  -0.326435  -0.558499  0  2.334019  0
O  O42  1  0.21084223  0.07847145  0.10242579  1  0  -0.312267  -0.539093  0  2.174802  0
O  O43  1  0.78915126  0.92151390  0.89757980  1  0  -0.312305  -0.539221  0  2.174708  0
O  O44  1  0.79168708  0.24419841  0.03514169  1  0  -0.576422  -0.769476  0  2.104507  0
O  O45  1  0.20831197  0.75580238  0.96485405  1  0  -0.576475  -0.769487  0  2.104489  0
O  O46  1  0.00113999  0.40183754  0.78567226  1  0  -0.306972  -0.544354  0  2.400984  0
O  O47  1  0.99886922  0.59816907  0.21433666  1  0  -0.306969  -0.544439  0  2.400961  0
O  O48  1  0.40417337  0.63880607  0.12572942  1  0  -0.574335  -0.751995  0  2.029214  0
O  O49  1  0.59583259  0.36119458  0.87426506  1  0  -0.574322  -0.751944  0  2.029246  0
O  O50  1  0.19736476  0.31253981  0.90212623  1  0  -0.304496  -0.561779  0  2.413333  0
O  O51  1  0.80263676  0.68745565  0.09787612  1  0  -0.304496  -0.561891  0  2.413283  0
O  O52  1  0.32963571  0.78638524  0.45178849  1  0  -0.180964  -0.173375  0  2.60775  0
O  O53  1  0.67036169  0.21361549  0.54821148  1  0  -0.180927  -0.173304  0  2.607694  0
