# generated using pymatgen
data_K2H14C16N6O5
_symmetry_space_group_name_H-M   'P 1'
_cell_length_a   4.47430912
_cell_length_b   6.52112026
_cell_length_c   17.41799627
_cell_angle_alpha   81.00588114
_cell_angle_beta   82.63056042
_cell_angle_gamma   68.79132386
_symmetry_Int_Tables_number   1
_chemical_formula_structural   K2H14C16N6O5
_chemical_formula_sum   'K2 H14 C16 N6 O5'
_cell_volume   466.54508725
_cell_formula_units_Z   1
loop_
 _symmetry_equiv_pos_site_id
 _symmetry_equiv_pos_as_xyz
  1  'x, y, z'
loop_
 _atom_site_type_symbol
 _atom_site_label
 _atom_site_symmetry_multiplicity
 _atom_site_fract_x
 _atom_site_fract_y
 _atom_site_fract_z
 _atom_site_occupancy
 _atom_site_hle17_bader_spin_density
 _atom_site_hle17_ddec_charge
 _atom_site_hle17_ddec_spin_density
 _atom_site_hle17_ddec_sum_bond_order
 _atom_site_hle17_magmom
 _atom_site_hse06_10hf_bader_spin_density
 _atom_site_hse06_10hf_ddec_charge
 _atom_site_hse06_10hf_ddec_spin_density
 _atom_site_hse06_10hf_ddec_sum_bond_order
 _atom_site_hse06_10hf_magmom
 _atom_site_hse06_bader_spin_density
 _atom_site_hse06_ddec_charge
 _atom_site_hse06_ddec_spin_density
 _atom_site_hse06_ddec_sum_bond_order
 _atom_site_hse06_magmom
 _atom_site_pbe_bader_spin_density
 _atom_site_pbe_cm5_charge
 _atom_site_pbe_ddec_charge
 _atom_site_pbe_ddec_spin_density
 _atom_site_pbe_ddec_sum_bond_order
 _atom_site_pbe_magmom
K  K0  1  0.88649354  0.32205869  0.92897133  1  0  0.918555  0  0.46337  0  0  0.862981  0  0.652858  0  0  0.877877  0  0.629403  0  0  0.787549  0.85163  0  0.669808  0
K  K1  1  0.12674699  0.68057614  0.07046909  1  0  0.917342  0  0.455514  0  0  0.862604  0  0.640864  0  0  0.877546  0  0.617552  0  0  0.777364  0.851234  0  0.657696  0
H  H2  1  0.54288403  0.95173771  0.95920885  1  0  0.411464  0  0.903351  0  0  0.382668  0  0.96579  0  0  0.393826  0  0.949197  0  0  0.28772  0.374746  0  0.977564  0
H  H3  1  0.44678495  0.05490824  0.03844114  1  0  0.408674  0  0.907829  0  0  0.379631  0  0.970719  0  0  0.390946  0  0.953915  0  0  0.286379  0.371613  0  0.982618  0
H  H4  1  0.12476332  0.69751756  0.76367483  1  0  0.119657  0  0.93267  0  0  0.128111  0  1.002894  0  0  0.130354  0  1.00014  0  0  0.123917  0.126385  0  1.00433  0
H  H5  1  0.57428087  0.30844356  0.23408871  1  0  0.11887  0  0.933225  0  0  0.127777  0  1.002552  0  0  0.130094  0  0.999756  0  0  0.123943  0.126033  0  1.004  0
H  H6  1  0.79032428  0.87308728  0.81693344  1  0  0.131822  0  0.947134  0  0  0.141686  0  1.012293  0  0  0.144612  0  1.009636  0  0  0.130069  0.139468  0  1.013707  0
H  H7  1  0.47704343  0.13532333  0.17989708  1  0  0.130453  0  0.948099  0  0  0.140773  0  1.012675  0  0  0.143619  0  1.010138  0  0  0.130835  0.13864  0  1.013994  0
H  H8  1  0.35328925  0.53480735  0.59298149  1  0  0.097651  0  0.965283  0  0  0.109147  0  1.027735  0  0  0.111636  0  1.026766  0  0  0.102752  0.107178  0  1.028886  0
H  H9  1  0.45910598  0.46137098  0.41322153  1  0  0.097389  0  0.966431  0  0  0.10869  0  1.028877  0  0  0.1112  0  1.027986  0  0  0.102337  0.10682  0  1.02974  0
H  H10  1  0.79008366  0.25753867  0.51883167  1  0  0.082348  0  0.970026  0  0  0.096084  0  1.029011  0  0  0.098254  0  1.029241  0  0  0.096616  0.09455  0  1.02893  0
H  H11  1  0.55583477  0.73478303  0.48419594  1  0  0.081778  0  0.970515  0  0  0.094902  0  1.030513  0  0  0.097034  0  1.030729  0  0  0.096295  0.093394  0  1.030432  0
H  H12  1  0.90608096  0.85819435  0.55351252  1  0  0.078824  0  0.975024  0  0  0.090397  0  1.038274  0  0  0.092503  0  1.038221  0  0  0.094779  0.088898  0  1.038388  0
H  H13  1  0.32359087  0.13465149  0.44421560  1  0  0.079205  0  0.970976  0  0  0.091256  0  1.033488  0  0  0.093386  0  1.033291  0  0  0.095339  0.089626  0  1.033872  0
H  H14  1  0.60320371  0.71108999  0.66539539  1  0  0.109535  0  0.991998  0  0  0.110964  0  1.066791  0  0  0.114858  0  1.064405  0  0  0.102219  0.107933  0  1.069035  0
H  H15  1  0.98878471  0.28656652  0.33056205  1  0  0.110499  0  0.992931  0  0  0.110752  0  1.069289  0  0  0.114934  0  1.066704  0  0  0.102028  0.107565  0  1.071551  0
C  C16  1  0.23064708  0.77326470  0.87260557  1  0  0.700261  0  3.906694  0  0  0.656057  0  4.211981  0  0  0.687999  0  4.203409  0  0  0.199339  0.634331  0  4.216303  0
C  C17  1  0.87840095  0.22544930  0.12681488  1  0  0.698401  0  3.908355  0  0  0.654048  0  4.213948  0  0  0.685961  0  4.205473  0  0  0.19956  0.632362  0  4.218217  0
C  C18  1  0.04691835  0.83705198  0.79836985  1  0  -0.191822  0  3.61431  0  0  -0.262318  0  3.861628  0  0  -0.253783  0  3.87054  0  0  -0.050518  -0.261295  0  3.85807  0
C  C19  1  0.67748415  0.16757493  0.19995112  1  0  -0.191616  0  3.619277  0  0  -0.262163  0  3.865794  0  0  -0.25367  0  3.875022  0  0  -0.050585  -0.261144  0  3.862177  0
C  C20  1  0.29593198  0.04570419  0.68873983  1  0  0.099878  0  3.780503  0  0  0.074589  0  4.022043  0  0  0.088589  0  4.046858  0  0  0.106293  0.071974  0  4.00678  0
C  C21  1  0.02458345  0.95421217  0.31122639  1  0  0.100097  0  3.782042  0  0  0.074642  0  4.024642  0  0  0.088651  0  4.049572  0  0  0.106487  0.072012  0  4.00943  0
C  C22  1  0.22787466  0.27618416  0.66958298  1  0  0.105389  0  3.853608  0  0  0.107291  0  4.109278  0  0  0.107042  0  4.129446  0  0  0.089544  0.107521  0  4.093814  0
C  C23  1  0.16061053  0.72319926  0.33302441  1  0  0.108347  0  3.849281  0  0  0.108501  0  4.106712  0  0  0.108321  0  4.126833  0  0  0.089824  0.108706  0  4.091305  0
C  C24  1  0.40308957  0.35750933  0.60748250  1  0  -0.119764  0  3.737633  0  0  -0.139813  0  3.984402  0  0  -0.140759  0  4.004918  0  0  -0.088151  -0.139179  0  3.971025  0
C  C25  1  0.35283120  0.63906775  0.39635493  1  0  -0.121395  0  3.738043  0  0  -0.140735  0  3.984978  0  0  -0.141737  0  4.005378  0  0  -0.087568  -0.139998  0  3.971466  0
C  C26  1  0.64374508  0.20283024  0.56670970  1  0  -0.087888  0  3.791753  0  0  -0.105678  0  4.048924  0  0  -0.109447  0  4.072475  0  0  -0.100655  -0.103133  0  4.03305  0
C  C27  1  0.40450647  0.79161633  0.43536427  1  0  -0.085465  0  3.792531  0  0  -0.102572  0  4.048825  0  0  -0.106345  0  4.072413  0  0  -0.099708  -0.100037  0  4.032928  0
C  C28  1  0.71090992  0.97235676  0.58687041  1  0  -0.058519  0  3.76532  0  0  -0.075227  0  4.018288  0  0  -0.075788  0  4.040442  0  0  -0.093023  -0.074636  0  4.003329  0
C  C29  1  0.27059501  0.02244640  0.41216796  1  0  -0.057923  0  3.76431  0  0  -0.075071  0  4.017528  0  0  -0.075555  0  4.039691  0  0  -0.092551  -0.074497  0  4.002618  0
C  C30  1  0.53997301  0.88862457  0.64801557  1  0  -0.146431  0  3.738834  0  0  -0.162748  0  3.997768  0  0  -0.166796  0  4.01495  0  0  -0.094247  -0.160136  0  3.98536  0
C  C31  1  0.07848901  0.10913452  0.34991650  1  0  -0.146069  0  3.735591  0  0  -0.161897  0  3.994518  0  0  -0.166131  0  4.011652  0  0  -0.09457  -0.159181  0  3.98202  0
N  N32  1  0.07940722  0.03086279  0.75031118  1  0  0.034218  0  3.547334  0  0  0.142909  0  3.738926  0  0  0.102689  0  3.799328  0  0  -0.131527  0.150037  0  3.722668  0
N  N33  1  0.85359584  0.97220466  0.24939669  1  0  0.032027  0  3.548442  0  0  0.140689  0  3.740526  0  0  0.100193  0  3.801261  0  0  -0.132085  0.147862  0  3.724277  0
N  N34  1  0.89583951  0.23654816  0.76864248  1  0  -0.109751  0  2.923179  0  0  -0.125946  0  3.219484  0  0  -0.109533  0  3.230883  0  0  -0.132125  -0.130268  0  3.21532  0
N  N35  1  0.88747738  0.76741182  0.23312653  1  0  -0.109515  0  2.913662  0  0  -0.126659  0  3.209473  0  0  -0.11007  0  3.220871  0  0  -0.12624  -0.131013  0  3.205393  0
N  N36  1  0.98094611  0.38513265  0.72074360  1  0  -0.249986  0  2.99816  0  0  -0.233018  0  3.295653  0  0  -0.237786  0  3.302087  0  0  -0.200517  -0.229236  0  3.28894  0
N  N37  1  0.06973848  0.61686574  0.28277120  1  0  -0.24877  0  2.999228  0  0  -0.230048  0  3.296246  0  0  -0.234916  0  3.302725  0  0  -0.198004  -0.22625  0  3.289614  0
O  O38  1  0.24303745  0.59032901  0.91192917  1  0  -0.763552  0  1.940716  0  0  -0.714448  0  2.180208  0  0  -0.738965  0  2.169128  0  0  -0.497138  -0.697156  0  2.187485  0
O  O39  1  0.75097343  0.41179538  0.08784814  1  0  -0.761843  0  1.935246  0  0  -0.712008  0  2.1726  0  0  -0.736499  0  2.161501  0  0  -0.495538  -0.694736  0  2.179891  0
O  O40  1  0.62863016  0.00912672  0.99788271  1  0  -0.934267  0  1.772372  0  0  -0.887772  0  1.937363  0  0  -0.906799  0  1.906001  0  0  -0.732564  -0.874225  0  1.959411  0
O  O41  1  0.34682611  0.91070602  0.88898162  1  0  -0.696077  0  2.001279  0  0  -0.641256  0  2.231007  0  0  -0.665547  0  2.219814  0  0  -0.366859  -0.623909  0  2.237599  0
O  O42  1  0.14919279  0.08013636  0.11056881  1  0  -0.692033  0  1.999536  0  0  -0.637772  0  2.229345  0  0  -0.661996  0  2.217944  0  0  -0.367015  -0.620489  0  2.236066  0
