# generated using pymatgen
data_Cu2H14C19Br2N4O
_symmetry_space_group_name_H-M   'P 1'
_cell_length_a   7.03844210
_cell_length_b   11.64867961
_cell_length_c   11.64868871
_cell_angle_alpha   83.86459709
_cell_angle_beta   75.00056329
_cell_angle_gamma   75.00061104
_symmetry_Int_Tables_number   1
_chemical_formula_structural   Cu2H14C19Br2N4O
_chemical_formula_sum   'Cu4 H28 C38 Br4 N8 O2'
_cell_volume   890.27220733
_cell_formula_units_Z   2
loop_
 _symmetry_equiv_pos_site_id
 _symmetry_equiv_pos_as_xyz
  1  'x, y, z'
loop_
 _atom_site_type_symbol
 _atom_site_label
 _atom_site_symmetry_multiplicity
 _atom_site_fract_x
 _atom_site_fract_y
 _atom_site_fract_z
 _atom_site_occupancy
 _atom_site_hle17_bader_spin_density
 _atom_site_hle17_ddec_charge
 _atom_site_hle17_ddec_spin_density
 _atom_site_hle17_ddec_sum_bond_order
 _atom_site_hle17_magmom
 _atom_site_hse06_10hf_bader_spin_density
 _atom_site_hse06_10hf_ddec_charge
 _atom_site_hse06_10hf_ddec_spin_density
 _atom_site_hse06_10hf_ddec_sum_bond_order
 _atom_site_hse06_10hf_magmom
 _atom_site_hse06_bader_spin_density
 _atom_site_hse06_ddec_charge
 _atom_site_hse06_ddec_spin_density
 _atom_site_hse06_ddec_sum_bond_order
 _atom_site_hse06_magmom
 _atom_site_pbe_bader_spin_density
 _atom_site_pbe_cm5_charge
 _atom_site_pbe_ddec_charge
 _atom_site_pbe_ddec_spin_density
 _atom_site_pbe_ddec_sum_bond_order
 _atom_site_pbe_magmom
Cu  Cu0  1  0.75000052  0.68638787  0.31361164  1  0  0.418188  0  1.802315  0  0  0.304338  0  2.253746  0  0  0.317297  0  2.204126  0  0  0.440711  0.299801  0  2.285044  0
Cu  Cu1  1  0.24999919  0.31361190  0.68638904  1  0  0.418121  0  1.802374  0  0  0.304289  0  2.253853  0  0  0.31725  0  2.20422  0  0  0.440686  0.299725  0  2.285097  0
Cu  Cu2  1  0.74999722  0.50832662  0.49167330  1  0  0.353554  0  1.896612  0  0  0.270425  0  2.375405  0  0  0.290924  0  2.313805  0  0  0.18817  0.257264  0  2.417399  0
Cu  Cu3  1  0.24999997  0.49167224  0.50833046  1  0  0.353608  0  1.896481  0  0  0.270475  0  2.375259  0  0  0.290971  0  2.313651  0  0  0.188186  0.257319  0  2.417255  0
H  H4  1  0.09856508  0.45185972  0.27902143  1  0  0.089092  0  1.001196  0  0  0.091183  0  1.082113  0  0  0.0952  0  1.075704  0  0  0.11252  0.087971  0  1.087119  0
H  H5  1  0.40143999  0.72097874  0.54813908  1  0  0.089095  0  1.001247  0  0  0.091169  0  1.082174  0  0  0.095186  0  1.075767  0  0  0.112525  0.08796  0  1.087182  0
H  H6  1  0.90143794  0.54813918  0.72097881  1  0  0.089111  0  1.001251  0  0  0.091173  0  1.082192  0  0  0.09519  0  1.075783  0  0  0.112527  0.087965  0  1.087199  0
H  H7  1  0.59856003  0.27902372  0.45186040  1  0  0.089104  0  1.001168  0  0  0.091199  0  1.082125  0  0  0.09523  0  1.075677  0  0  0.112515  0.087985  0  1.087129  0
H  H8  1  0.95217888  0.74823373  0.04799932  1  0  0.110394  0  0.982008  0  0  0.114647  0  1.05222  0  0  0.118322  0  1.049304  0  0  0.114234  0.112105  0  1.054181  0
H  H9  1  0.54781847  0.95200241  0.25176525  1  0  0.110396  0  0.981973  0  0  0.114668  0  1.052164  0  0  0.118344  0  1.049247  0  0  0.114251  0.11213  0  1.054123  0
H  H10  1  0.04782522  0.25176608  0.95199979  1  0  0.11038  0  0.98205  0  0  0.114657  0  1.052227  0  0  0.118333  0  1.049311  0  0  0.114241  0.112117  0  1.054192  0
H  H11  1  0.45217382  0.04800088  0.74823453  1  0  0.110353  0  0.982097  0  0  0.114623  0  1.052291  0  0  0.118301  0  1.049373  0  0  0.114226  0.112084  0  1.054251  0
H  H12  1  0.25642112  0.57394589  0.91689876  1  0  0.117634  0  0.96891  0  0  0.126001  0  1.032989  0  0  0.128443  0  1.032497  0  0  0.11556  0.124142  0  1.033515  0
H  H13  1  0.24357685  0.08309980  0.42605507  1  0  0.117675  0  0.968901  0  0  0.126045  0  1.032968  0  0  0.128484  0  1.032482  0  0  0.115571  0.124184  0  1.033494  0
H  H14  1  0.74358409  0.42605482  0.08310179  1  0  0.117664  0  0.968972  0  0  0.126046  0  1.033009  0  0  0.128487  0  1.032528  0  0  0.115583  0.124188  0  1.033533  0
H  H15  1  0.75641551  0.91689992  0.57394595  1  0  0.117688  0  0.96888  0  0  0.126039  0  1.032966  0  0  0.12848  0  1.032473  0  0  0.11556  0.12418  0  1.033493  0
H  H16  1  0.39470193  0.32106803  0.24203075  1  0  0.109002  0  0.974582  0  0  0.115235  0  1.043437  0  0  0.118195  0  1.042449  0  0  0.093989  0.112867  0  1.04451  0
H  H17  1  0.10530249  0.75796756  0.67892833  1  0  0.108984  0  0.974602  0  0  0.115214  0  1.043471  0  0  0.118175  0  1.042481  0  0  0.093983  0.112845  0  1.044537  0
H  H18  1  0.60530511  0.67893180  0.75796874  1  0  0.108968  0  0.974581  0  0  0.115185  0  1.043467  0  0  0.118146  0  1.042476  0  0  0.093964  0.112813  0  1.044553  0
H  H19  1  0.89469424  0.24203219  0.32106940  1  0  0.108953  0  0.974604  0  0  0.115176  0  1.043488  0  0  0.118134  0  1.042501  0  0  0.093949  0.112803  0  1.044573  0
H  H20  1  0.62389487  0.12360800  0.18914420  1  0  0.095151  0  0.967993  0  0  0.105731  0  1.028937  0  0  0.108018  0  1.028537  0  0  0.10277  0.104062  0  1.029282  0
H  H21  1  0.87610325  0.81085521  0.87639002  1  0  0.095188  0  0.967921  0  0  0.105795  0  1.028842  0  0  0.108079  0  1.028447  0  0  0.102787  0.104125  0  1.029188  0
H  H22  1  0.37610777  0.87639180  0.81085600  1  0  0.095113  0  0.968054  0  0  0.105751  0  1.028932  0  0  0.108028  0  1.028554  0  0  0.10276  0.104082  0  1.029277  0
H  H23  1  0.12389094  0.18914363  0.12360908  1  0  0.095162  0  0.968017  0  0  0.105741  0  1.028961  0  0  0.108028  0  1.02856  0  0  0.102781  0.104073  0  1.029307  0
H  H24  1  0.58525646  0.19648162  0.82425186  1  0  0.093845  0  0.976802  0  0  0.10332  0  1.041951  0  0  0.106053  0  1.040204  0  0  0.102843  0.101202  0  1.04338  0
H  H25  1  0.91474942  0.17574841  0.80351652  1  0  0.093869  0  0.97675  0  0  0.103355  0  1.041885  0  0  0.106083  0  1.040143  0  0  0.102837  0.101234  0  1.043322  0
H  H26  1  0.41474365  0.80351727  0.17574972  1  0  0.093846  0  0.976772  0  0  0.103328  0  1.041913  0  0  0.106057  0  1.04017  0  0  0.10284  0.101209  0  1.043351  0
H  H27  1  0.08525509  0.82425051  0.19648434  1  0  0.093868  0  0.976757  0  0  0.103351  0  1.041895  0  0  0.106081  0  1.040152  0  0  0.102852  0.101232  0  1.043336  0
H  H28  1  0.36360727  0.39105034  0.87379182  1  0  0.101123  0  1.005323  0  0  0.105737  0  1.079647  0  0  0.110324  0  1.075423  0  0  0.090186  0.102188  0  1.083084  0
H  H29  1  0.13640377  0.12620494  0.60894824  1  0  0.101113  0  1.005243  0  0  0.105707  0  1.079596  0  0  0.110293  0  1.075371  0  0  0.090201  0.102161  0  1.083023  0
H  H30  1  0.63639646  0.60895036  0.12620812  1  0  0.101129  0  1.005291  0  0  0.105735  0  1.079625  0  0  0.110324  0  1.075399  0  0  0.090192  0.102184  0  1.083067  0
H  H31  1  0.86359776  0.87379395  0.39105053  1  0  0.101103  0  1.005264  0  0  0.105699  0  1.079607  0  0  0.110286  0  1.075383  0  0  0.090189  0.102151  0  1.083044  0
C  C32  1  0.10034888  0.50970695  0.19933315  1  0  0.177146  0  3.606815  0  0  0.118476  0  3.864911  0  0  0.133131  0  3.875303  0  0  0.136714  0.108248  0  3.85895  0
C  C33  1  0.39965287  0.80066468  0.49029191  1  0  0.177142  0  3.606849  0  0  0.1185  0  3.864941  0  0  0.133161  0  3.875333  0  0  0.136697  0.108267  0  3.858984  0
C  C34  1  0.89965149  0.49029461  0.80066465  1  0  0.177077  0  3.606731  0  0  0.118434  0  3.864853  0  0  0.133097  0  3.875246  0  0  0.136674  0.1082  0  3.858888  0
C  C35  1  0.60034133  0.19933416  0.50970804  1  0  0.177063  0  3.606894  0  0  0.118379  0  3.864998  0  0  0.133042  0  3.875401  0  0  0.136669  0.108151  0  3.859026  0
C  C36  1  0.02815835  0.65990222  0.07513916  1  0  -0.008948  0  3.721013  0  0  -0.039007  0  3.985122  0  0  -0.038733  0  4.004971  0  0  -0.006187  -0.038742  0  3.971369  0
C  C37  1  0.47184397  0.92486094  0.34009686  1  0  -0.008903  0  3.720981  0  0  -0.038963  0  3.985088  0  0  -0.038687  0  4.004942  0  0  -0.006187  -0.038703  0  3.97134  0
C  C38  1  0.97184538  0.34009848  0.92486077  1  0  -0.008885  0  3.721046  0  0  -0.038949  0  3.985145  0  0  -0.038668  0  4.004995  0  0  -0.006146  -0.038692  0  3.971392  0
C  C39  1  0.52815202  0.07514059  0.65990252  1  0  -0.008767  0  3.721195  0  0  -0.038815  0  3.985253  0  0  -0.038529  0  4.00509  0  0  -0.006098  -0.038561  0  3.971507  0
C  C40  1  0.17764070  0.57483942  0.01009993  1  0  -0.044831  0  3.644343  0  0  -0.08522  0  3.90195  0  0  -0.084195  0  3.92291  0  0  0.001206  -0.085543  0  3.887512  0
C  C41  1  0.32236251  0.98989865  0.42516144  1  0  -0.044905  0  3.644479  0  0  -0.085292  0  3.902079  0  0  -0.084269  0  3.923043  0  0  0.00121  -0.085615  0  3.887643  0
C  C42  1  0.82236263  0.42516217  0.98989911  1  0  -0.044908  0  3.64449  0  0  -0.085287  0  3.902067  0  0  -0.084268  0  3.923029  0  0  0.001204  -0.085615  0  3.887635  0
C  C43  1  0.67763388  0.01010199  0.57483968  1  0  -0.045101  0  3.64449  0  0  -0.085466  0  3.902085  0  0  -0.084441  0  3.923045  0  0  0.001112  -0.085793  0  3.887652  0
C  C44  1  0.36204922  0.36874910  0.06144571  1  0  0.195359  0  3.764628  0  0  0.187286  0  4.009235  0  0  0.195192  0  4.030082  0  0  0.102897  0.181792  0  3.995437  0
C  C45  1  0.13795399  0.93855308  0.63124981  1  0  0.195261  0  3.764767  0  0  0.187196  0  4.009356  0  0  0.195101  0  4.030202  0  0  0.102864  0.181702  0  3.995557  0
C  C46  1  0.63795453  0.63125160  0.93855594  1  0  0.195262  0  3.764947  0  0  0.187194  0  4.00954  0  0  0.195098  0  4.030388  0  0  0.102839  0.181702  0  3.995738  0
C  C47  1  0.86204422  0.06144668  0.36874940  1  0  0.195129  0  3.764938  0  0  0.187067  0  4.009534  0  0  0.194969  0  4.030384  0  0  0.10279  0.181575  0  3.995732  0
C  C48  1  0.43577965  0.29313308  0.15066252  1  0  -0.159217  0  3.726385  0  0  -0.177428  0  3.97864  0  0  -0.183298  0  3.998718  0  0  -0.094172  -0.173622  0  3.965457  0
C  C49  1  0.06422072  0.84933517  0.70686508  1  0  -0.159235  0  3.72647  0  0  -0.177457  0  3.978757  0  0  -0.183323  0  3.998829  0  0  -0.094186  -0.173646  0  3.965568  0
C  C50  1  0.56422738  0.70686675  0.84933612  1  0  -0.159201  0  3.726377  0  0  -0.177408  0  3.978664  0  0  -0.183274  0  3.998736  0  0  -0.094186  -0.173605  0  3.965477  0
C  C51  1  0.93577310  0.15066456  0.29313484  1  0  -0.159136  0  3.726421  0  0  -0.177346  0  3.978681  0  0  -0.183214  0  3.99876  0  0  -0.09414  -0.173541  0  3.965493  0
C  C52  1  0.56427017  0.18242054  0.12090274  1  0  -0.047445  0  3.714945  0  0  -0.068384  0  3.959269  0  0  -0.066566  0  3.979483  0  0  -0.077391  -0.06944  0  3.945507  0
C  C53  1  0.93573038  0.87909620  0.81757782  1  0  -0.047473  0  3.71488  0  0  -0.06843  0  3.95921  0  0  -0.066614  0  3.979425  0  0  -0.077404  -0.069483  0  3.945444  0
C  C54  1  0.43573504  0.81758017  0.87909781  1  0  -0.047438  0  3.714986  0  0  -0.068407  0  3.959311  0  0  -0.066594  0  3.979526  0  0  -0.077371  -0.069462  0  3.945546  0
C  C55  1  0.06426822  0.12090268  0.18242142  1  0  -0.047449  0  3.714915  0  0  -0.06838  0  3.959245  0  0  -0.066563  0  3.979463  0  0  -0.077381  -0.069434  0  3.94548  0
C  C56  1  0.62315460  0.14544497  0.00317708  1  0  -0.048684  0  3.759889  0  0  -0.031733  0  3.994127  0  0  -0.040225  0  4.019055  0  0  -0.020364  -0.025968  0  3.977176  0
C  C57  1  0.87684892  0.99682294  0.85455157  1  0  -0.048617  0  3.759724  0  0  -0.031668  0  3.993971  0  0  -0.040164  0  4.018901  0  0  -0.020342  -0.025907  0  3.977019  0
C  C58  1  0.37684882  0.85455305  0.99682405  1  0  -0.048592  0  3.759761  0  0  -0.031654  0  3.994013  0  0  -0.040147  0  4.018941  0  0  -0.020337  -0.025887  0  3.97706  0
C  C59  1  0.12314971  0.00317593  0.14544939  1  0  -0.048665  0  3.759897  0  0  -0.031718  0  3.994138  0  0  -0.040213  0  4.01907  0  0  -0.020361  -0.025954  0  3.977186  0
C  C60  1  0.54933683  0.22328552  0.91545819  1  0  -0.042093  0  3.721686  0  0  -0.064089  0  3.968795  0  0  -0.061906  0  3.987275  0  0  -0.074487  -0.065522  0  3.956789  0
C  C61  1  0.95066673  0.08454273  0.77671138  1  0  -0.042215  0  3.721831  0  0  -0.064222  0  3.968942  0  0  -0.062036  0  3.98743  0  0  -0.074539  -0.065656  0  3.956938  0
C  C62  1  0.45066369  0.77671248  0.08454513  1  0  -0.042107  0  3.721683  0  0  -0.064113  0  3.968799  0  0  -0.061925  0  3.987281  0  0  -0.074477  -0.06555  0  3.956801  0
C  C63  1  0.04933481  0.91545617  0.22328824  1  0  -0.042143  0  3.721794  0  0  -0.064152  0  3.968908  0  0  -0.061967  0  3.987394  0  0  -0.074509  -0.065589  0  3.95691  0
C  C64  1  0.42066213  0.33392653  0.94383996  1  0  -0.150808  0  3.735884  0  0  -0.17366  0  3.994657  0  0  -0.178449  0  4.01226  0  0  -0.095758  -0.170931  0  3.983824  0
C  C65  1  0.07934582  0.05615756  0.66607241  1  0  -0.150689  0  3.735942  0  0  -0.173533  0  3.994735  0  0  -0.17832  0  4.012338  0  0  -0.09572  -0.170805  0  3.983899  0
C  C66  1  0.57934197  0.66607328  0.05616001  1  0  -0.150816  0  3.736107  0  0  -0.173653  0  3.994857  0  0  -0.178441  0  4.012459  0  0  -0.095752  -0.170923  0  3.984028  0
C  C67  1  0.92065426  0.94384133  0.33392745  1  0  -0.150732  0  3.7359  0  0  -0.173566  0  3.994672  0  0  -0.178351  0  4.012273  0  0  -0.09574  -0.170839  0  3.983844  0
C  C68  1  0.74999970  0.02327050  0.97673043  1  0  0.389801  0  3.713376  0  0  0.36645  0  3.978318  0  0  0.390018  0  3.980548  0  0  0.158815  0.350069  0  3.977099  0
C  C69  1  0.25000296  0.97672930  0.02327063  1  0  0.389835  0  3.713269  0  0  0.366503  0  3.978193  0  0  0.390069  0  3.980427  0  0  0.158834  0.35012  0  3.976978  0
Br  Br70  1  0.56712573  0.48796563  0.34179601  1  0  -0.501202  0  1.400997  0  0  -0.428453  0  1.799683  0  0  -0.447312  0  1.757144  0  0  -0.243799  -0.414485  0  1.828446  0
Br  Br71  1  0.93287424  0.65820440  0.51203423  1  0  -0.50122  0  1.400998  0  0  -0.42847  0  1.799665  0  0  -0.447326  0  1.757128  0  0  -0.243806  -0.414505  0  1.828431  0
Br  Br72  1  0.43288382  0.51203153  0.65819650  1  0  -0.501174  0  1.4011  0  0  -0.428422  0  1.799792  0  0  -0.447287  0  1.757268  0  0  -0.243793  -0.414451  0  1.828549  0
Br  Br73  1  0.06711620  0.34180334  0.48796964  1  0  -0.501182  0  1.401042  0  0  -0.428442  0  1.79974  0  0  -0.447292  0  1.757196  0  0  -0.2438  -0.414468  0  1.828492  0
N  N74  1  0.97953919  0.61761850  0.19277785  1  0  -0.335888  0  3.426515  0  0  -0.255212  0  3.73116  0  0  -0.270802  0  3.738646  0  0  -0.401323  -0.245745  0  3.726318  0
N  N75  1  0.52046262  0.80722142  0.38237931  1  0  -0.335959  0  3.426527  0  0  -0.255306  0  3.731189  0  0  -0.270908  0  3.738685  0  0  -0.401326  -0.245837  0  3.726351  0
N  N76  1  0.02046344  0.38238130  0.80722150  1  0  -0.335883  0  3.426402  0  0  -0.25523  0  3.731072  0  0  -0.270835  0  3.73857  0  0  -0.401326  -0.245751  0  3.72619  0
N  N77  1  0.47953335  0.19278011  0.61761921  1  0  -0.335867  0  3.426575  0  0  -0.25523  0  3.731259  0  0  -0.27084  0  3.738767  0  0  -0.401299  -0.245749  0  3.726374  0
N  N78  1  0.22350163  0.47982920  0.08973180  1  0  -0.094013  0  3.585193  0  0  -0.003529  0  3.79353  0  0  -0.019688  0  3.820034  0  0  -0.225054  0.007374  0  3.775542  0
N  N79  1  0.27650335  0.91026660  0.52016959  1  0  -0.093928  0  3.585274  0  0  -0.003448  0  3.79358  0  0  -0.019607  0  3.820083  0  0  -0.225068  0.007453  0  3.775593  0
N  N80  1  0.77650210  0.52017149  0.91026813  1  0  -0.093913  0  3.585255  0  0  -0.003433  0  3.793574  0  0  -0.019592  0  3.820078  0  0  -0.225048  0.007469  0  3.775583  0
N  N81  1  0.72349192  0.08973314  0.47982924  1  0  -0.093799  0  3.585204  0  0  -0.003317  0  3.793508  0  0  -0.019478  0  3.820014  0  0  -0.224988  0.007583  0  3.775518  0
O  O82  1  0.75000392  0.94335575  0.05664229  1  0  -0.472762  0  1.952737  0  0  -0.423002  0  2.170931  0  0  -0.441621  0  2.168652  0  0  -0.25642  -0.411004  0  2.172685  0
O  O83  1  0.24999912  0.05664316  0.94335881  1  0  -0.472754  0  1.952727  0  0  -0.42303  0  2.170942  0  0  -0.441654  0  2.168675  0  0  -0.256427  -0.411032  0  2.1727  0
