# generated using pymatgen
data_CdH16(C9O2)3
_symmetry_space_group_name_H-M   'P 1'
_cell_length_a   8.03655262
_cell_length_b   28.32924905
_cell_length_c   28.32203497
_cell_angle_alpha   119.99122153
_cell_angle_beta   90.00111782
_cell_angle_gamma   90.00059280
_symmetry_Int_Tables_number   1
_chemical_formula_structural   CdH16(C9O2)3
_chemical_formula_sum   'Cd6 H96 C162 O36'
_cell_volume   5584.68074558
_cell_formula_units_Z   6
loop_
 _symmetry_equiv_pos_site_id
 _symmetry_equiv_pos_as_xyz
  1  'x, y, z'
loop_
 _atom_site_type_symbol
 _atom_site_label
 _atom_site_symmetry_multiplicity
 _atom_site_fract_x
 _atom_site_fract_y
 _atom_site_fract_z
 _atom_site_occupancy
 _atom_site_pbe_bader_charge
 _atom_site_pbe_bader_spin_density
 _atom_site_pbe_cm5_charge
 _atom_site_pbe_ddec_charge
 _atom_site_pbe_ddec_spin_density
 _atom_site_pbe_ddec_sum_bond_order
 _atom_site_pbe_magmom
Cd  Cd0  1  0.83340963  0.39068421  0.39076886  1  1.244207  0  0.784185  0.960869  0  1.893255  0
Cd  Cd1  1  0.49998823  0.00000385  0.60929531  1  1.245796  0  0.784192  0.960834  0  1.893395  0
Cd  Cd2  1  0.16657598  0.60931608  0.00009638  1  1.24549  0  0.784133  0.960844  0  1.893168  0
Cd  Cd3  1  0.50000603  0.00000419  0.37467068  1  1.241113  0  0.785068  0.958916  0  1.878868  0
Cd  Cd4  1  0.16671282  0.37466430  0.99999498  1  1.240964  0  0.78515  0.959084  0  1.878148  0
Cd  Cd5  1  0.83326284  0.62532410  0.62531996  1  1.239928  0  0.785102  0.95896  0  1.878201  0
H  H6  1  0.64047461  0.22323527  0.35947153  1  0.081005  0  0.105892  0.10858  0  1.030332  0
H  H7  1  0.30725480  0.13624972  0.77678699  1  0.09446  0  0.105883  0.108636  0  1.030222  0
H  H8  1  0.97383231  0.64049445  0.86375855  1  0.093947  0  0.105922  0.108556  0  1.03035  0
H  H9  1  0.35952760  0.77677123  0.13624373  1  0.095413  0  0.105876  0.108475  0  1.030357  0
H  H10  1  0.69271266  0.86374528  0.64052754  1  0.092711  0  0.105976  0.108881  0  1.030011  0
H  H11  1  0.02615675  0.35951824  0.22326905  1  0.081888  0  0.105971  0.108694  0  1.030204  0
H  H12  1  0.42761270  0.15654433  0.35409200  1  0.061275  0  0.1054  0.111536  0  1.010914  0
H  H13  1  0.09442590  0.19759518  0.84347389  1  0.108201  0  0.105359  0.111652  0  1.010517  0
H  H14  1  0.76097195  0.64582829  0.80239547  1  0.066164  0  0.105505  0.11203  0  1.010811  0
H  H15  1  0.57240109  0.84346093  0.19755249  1  0.111831  0  0.105389  0.111503  0  1.0108  0
H  H16  1  0.90554899  0.80239622  0.64586605  1  0.065663  0  0.105347  0.111666  0  1.010606  0
H  H17  1  0.23901052  0.35418538  0.15657332  1  0.061497  0  0.105523  0.11207  0  1.010729  0
H  H18  1  0.06245775  0.28544055  0.41990580  1  0.098864  0  0.099314  0.104834  0  1.035048  0
H  H19  1  0.72920981  0.13444782  0.71455038  1  0.096906  0  0.099342  0.105053  0  1.034826  0
H  H20  1  0.39583189  0.58005087  0.86555761  1  0.093857  0  0.099519  0.10501  0  1.034716  0
H  H21  1  0.93755867  0.71456476  0.13445860  1  0.092018  0  0.099286  0.104892  0  1.034871  0
H  H22  1  0.27075632  0.86555206  0.58010041  1  0.076632  0  0.09944  0.105146  0  1.034712  0
H  H23  1  0.60415796  0.41996300  0.28551433  1  0.099032  0  0.099549  0.104954  0  1.034696  0
H  H24  1  0.27715247  0.35115108  0.42494075  1  0.111388  0  0.105408  0.11683  0  0.994778  0
H  H25  1  0.94385673  0.07374564  0.64884897  1  0.122847  0  0.105374  0.116486  0  0.994663  0
H  H26  1  0.61051017  0.57505560  0.92627553  1  0.101788  0  0.105314  0.116504  0  0.995204  0
H  H27  1  0.72285113  0.64885679  0.07378684  1  0.119898  0  0.105433  0.116757  0  0.994726  0
H  H28  1  0.05611323  0.92625673  0.57510362  1  0.103132  0  0.105403  0.116524  0  0.994548  0
H  H29  1  0.38948494  0.42495748  0.35122742  1  0.1096  0  0.105326  0.116521  0  0.995177  0
H  H30  1  0.27972979  0.13006554  0.40408461  1  0.099655  0  0.099516  0.106284  0  1.031377  0
H  H31  1  0.94653481  0.27402924  0.86992247  1  0.099233  0  0.099489  0.106283  0  1.031153  0
H  H32  1  0.61297822  0.59583633  0.72594524  1  0.093556  0  0.099416  0.106  0  1.031464  0
H  H33  1  0.72028303  0.86993486  0.27401333  1  0.099488  0  0.099476  0.106261  0  1.031427  0
H  H34  1  0.05346624  0.72596208  0.59587279  1  0.091652  0  0.099452  0.106246  0  1.031267  0
H  H35  1  0.38699522  0.40417787  0.13011283  1  0.099563  0  0.099511  0.106193  0  1.03125  0
H  H36  1  0.06467079  0.06639867  0.40328683  1  0.111078  0  0.104434  0.117611  0  1.003208  0
H  H37  1  0.73150090  0.33689847  0.93359439  1  0.123845  0  0.104443  0.11758  0  1.003324  0
H  H38  1  0.39785916  0.59665544  0.66308110  1  0.10942  0  0.104656  0.117735  0  1.003195  0
H  H39  1  0.93533029  0.93360356  0.33688968  1  0.123578  0  0.104421  0.117598  0  1.003143  0
H  H40  1  0.26851218  0.66309564  0.59667573  1  0.110033  0  0.10446  0.117493  0  1.003365  0
H  H41  1  0.60210031  0.40334270  0.06642229  1  0.111493  0  0.104626  0.117634  0  1.003124  0
H  H42  1  0.68956992  0.15069436  0.36630039  1  0.100789  0  0.103085  0.103665  0  1.045507  0
H  H43  1  0.35636892  0.21564078  0.84932447  1  0.076529  0  0.103014  0.10355  0  1.045972  0
H  H44  1  0.02295629  0.63376776  0.78446156  1  0.123647  0  0.103015  0.103519  0  1.046013  0
H  H45  1  0.31045041  0.84930847  0.21562129  1  0.117799  0  0.103084  0.103646  0  1.045509  0
H  H46  1  0.64361436  0.78436722  0.63368970  1  0.079149  0  0.103028  0.103582  0  1.045965  0
H  H47  1  0.97701376  0.36623373  0.15069644  1  0.099685  0  0.102926  0.103393  0  1.046044  0
H  H48  1  0.90274750  0.21478975  0.36643858  1  0.094266  0  0.104075  0.110561  0  1.02036  0
H  H49  1  0.56952758  0.15168202  0.78523918  1  0.124076  0  0.104096  0.110641  0  1.020273  0
H  H50  1  0.23619403  0.63359281  0.84840421  1  0.091068  0  0.104052  0.110804  0  1.0202  0
H  H51  1  0.09728199  0.78521605  0.15165493  1  0.122886  0  0.104113  0.110599  0  1.020368  0
H  H52  1  0.43043871  0.84832149  0.63355816  1  0.091192  0  0.104068  0.110652  0  1.020225  0
H  H53  1  0.76378633  0.36642509  0.21482062  1  0.094424  0  0.10405  0.110733  0  1.020206  0
H  H54  1  0.06487062  0.34509374  0.54079211  1  0.020076  0  0.099245  0.097867  0  1.014222  0
H  H55  1  0.73158983  0.19565259  0.65491988  1  0.021535  0  0.099257  0.097792  0  1.014345  0
H  H56  1  0.39810796  0.45920691  0.80428075  1  0.043068  0  0.099292  0.097922  0  1.014565  0
H  H57  1  0.93510539  0.65490577  0.19570330  1  0.02129  0  0.099319  0.097941  0  1.01421  0
H  H58  1  0.26847030  0.80434799  0.45926439  1  0.043796  0  0.0993  0.09793  0  1.01422  0
H  H59  1  0.60191540  0.54079789  0.34506320  1  0.019888  0  0.099206  0.097776  0  1.014651  0
H  H60  1  0.97133103  0.25100764  0.49299709  1  0.063067  0  0.099411  0.096422  0  1.027213  0
H  H61  1  0.63795955  0.24196059  0.74902352  1  0.068694  0  0.099486  0.096618  0  1.026833  0
H  H62  1  0.30448173  0.50707400  0.75804378  1  0.063763  0  0.099447  0.096417  0  1.026712  0
H  H63  1  0.02863370  0.74899109  0.24200001  1  0.065521  0  0.099443  0.09649  0  1.027308  0
H  H64  1  0.36209170  0.75804175  0.50706376  1  0.063239  0  0.099548  0.09661  0  1.026791  0
H  H65  1  0.69553690  0.49294057  0.25096168  1  0.061685  0  0.099403  0.096394  0  1.026709  0
H  H66  1  0.46206637  0.30571479  0.51306273  1  0.045381  0  0.099621  0.096702  0  1.02141  0
H  H67  1  0.12872939  0.20732481  0.69424362  1  0.031835  0  0.099721  0.096806  0  1.021344  0
H  H68  1  0.79524653  0.48683836  0.79259464  1  0.033503  0  0.099673  0.096942  0  1.021486  0
H  H69  1  0.53789139  0.69429273  0.20732379  1  0.033238  0  0.099591  0.096672  0  1.021461  0
H  H70  1  0.87132671  0.79265095  0.48689899  1  0.034189  0  0.099677  0.096793  0  1.021563  0
H  H71  1  0.20477048  0.51316035  0.30575259  1  0.044938  0  0.099633  0.09692  0  1.021372  0
H  H72  1  0.55573240  0.39985199  0.55786012  1  0.044029  0  0.099079  0.099938  0  1.004477  0
H  H73  1  0.22249392  0.15797531  0.60009128  1  0.040273  0  0.099069  0.099905  0  1.004583  0
H  H74  1  0.88900618  0.44197634  0.84188951  1  0.045757  0  0.099087  0.099739  0  1.004549  0
H  H75  1  0.44423384  0.60015537  0.15797210  1  0.042389  0  0.099161  0.100003  0  1.004591  0
H  H76  1  0.77757246  0.84199486  0.44208819  1  0.041  0  0.099068  0.09976  0  1.004657  0
H  H77  1  0.11101073  0.55801043  0.39990531  1  0.042199  0  0.098959  0.099588  0  1.004737  0
H  H78  1  0.89491282  0.19689335  0.51794275  1  0.041934  0  0.101013  0.100186  0  1.015488  0
H  H79  1  0.56147407  0.32102876  0.80307711  1  0.042143  0  0.10081  0.099714  0  1.015461  0
H  H80  1  0.22807564  0.48207518  0.67895075  1  0.044217  0  0.100581  0.099292  0  1.015533  0
H  H81  1  0.10510081  0.80310924  0.32105234  1  0.041357  0  0.10094  0.100065  0  1.015474  0
H  H82  1  0.43855005  0.67896431  0.48203944  1  0.043306  0  0.100819  0.099748  0  1.015353  0
H  H83  1  0.77193863  0.51791075  0.19685110  1  0.043261  0  0.100464  0.099163  0  1.015541  0
H  H84  1  0.79760697  0.15484381  0.56964761  1  0.03922  0  0.100282  0.10285  0  1.001958  0
H  H85  1  0.46414262  0.41475568  0.84508241  1  0.03664  0  0.100334  0.102836  0  1.002203  0
H  H86  1  0.13080668  0.43035121  0.58519848  1  0.035482  0  0.100251  0.102781  0  1.002151  0
H  H87  1  0.20244026  0.84514928  0.41480223  1  0.033846  0  0.100247  0.102775  0  1.002041  0
H  H88  1  0.53588847  0.58523791  0.43031886  1  0.03636  0  0.100373  0.102934  0  1.002128  0
H  H89  1  0.86919688  0.56963873  0.15482508  1  0.040657  0  0.100245  0.102778  0  1.002141  0
H  H90  1  0.62370112  0.45397137  0.64262369  1  0.055565  0  0.099617  0.098767  0  1.011625  0
H  H91  1  0.29051544  0.18864021  0.54598778  1  0.058671  0  0.099837  0.099132  0  1.011493  0
H  H92  1  0.95706487  0.35727758  0.81126917  1  0.056065  0  0.09978  0.099056  0  1.011615  0
H  H93  1  0.37631460  0.54604851  0.18865601  1  0.056729  0  0.099687  0.098893  0  1.011533  0
H  H94  1  0.70950896  0.81133738  0.35732920  1  0.057156  0  0.099801  0.098982  0  1.011556  0
H  H95  1  0.04295450  0.64271487  0.45399481  1  0.055454  0  0.09971  0.09896  0  1.011871  0
H  H96  1  0.38769651  0.22683632  0.49071938  1  0.055401  0  0.099933  0.098117  0  1.025298  0
H  H97  1  0.05430727  0.26384636  0.77312414  1  0.057189  0  0.099947  0.097883  0  1.025885  0
H  H98  1  0.72081220  0.50926442  0.73608964  1  0.050671  0  0.099963  0.097866  0  1.025584  0
H  H99  1  0.61229287  0.77314999  0.26386936  1  0.057539  0  0.099976  0.098034  0  1.025386  0
H  H100  1  0.94572418  0.73614695  0.50928422  1  0.051023  0  0.099959  0.09791  0  1.025871  0
H  H101  1  0.27921776  0.49075531  0.22683228  1  0.056944  0  0.099922  0.097945  0  1.025144  0
C  C102  1  0.60754301  0.32896256  0.39792272  1  1.494458  0  0.19151  0.557338  0  4.199092  0
C  C103  1  0.27424343  0.06890732  0.67104377  1  1.489234  0  0.19148  0.557434  0  4.199533  0
C  C104  1  0.94089582  0.60212638  0.93112680  1  1.491478  0  0.192048  0.557952  0  4.198952  0
C  C105  1  0.39245522  0.67104105  0.06896679  1  1.487796  0  0.191426  0.557231  0  4.19919  0
C  C106  1  0.72572035  0.93109321  0.60213547  1  1.485312  0  0.191351  0.557285  0  4.199235  0
C  C107  1  0.05909218  0.39788673  0.32900353  1  1.494431  0  0.191853  0.55797  0  4.199047  0
C  C108  1  0.47354836  0.29114891  0.39398962  1  -0.010655  0  -0.018273  -0.030505  0  3.98494  0
C  C109  1  0.14029516  0.10281405  0.70885602  1  -0.05064  0  -0.018327  -0.031305  0  3.985597  0
C  C110  1  0.80691516  0.60600390  0.89720018  1  -0.005301  0  -0.01819  -0.030701  0  3.985543  0
C  C111  1  0.52645017  0.70885767  0.10284122  1  -0.052163  0  -0.018253  -0.030669  0  3.985207  0
C  C112  1  0.85967325  0.89718476  0.60603951  1  0.001162  0  -0.018434  -0.031416  0  3.985371  0
C  C113  1  0.19307662  0.39400752  0.29120236  1  -0.010962  0  -0.018229  -0.03094  0  3.985622  0
C  C114  1  0.51380466  0.23612146  0.37331798  1  -0.017073  0  -0.08064  -0.084169  0  3.97386  0
C  C115  1  0.18058420  0.13720329  0.76389384  1  0.02784  0  -0.080599  -0.083941  0  3.973633  0
C  C116  1  0.84715793  0.62665009  0.86280503  1  -0.013247  0  -0.080685  -0.08406  0  3.974225  0
C  C117  1  0.48620328  0.76388397  0.13720067  1  0.029839  0  -0.080528  -0.083795  0  3.973715  0
C  C118  1  0.81939309  0.86279307  0.62668505  1  -0.020787  0  -0.080662  -0.084234  0  3.97361  0
C  C119  1  0.15283049  0.37336222  0.23616126  1  -0.011967  0  -0.080663  -0.084106  0  3.974098  0
C  C120  1  0.39492231  0.19930281  0.37046410  1  -0.005348  0  -0.087392  -0.131539  0  3.96788  0
C  C121  1  0.06173190  0.17118510  0.80070810  1  -0.023642  0  -0.087191  -0.131494  0  3.967649  0
C  C122  1  0.72828071  0.62947955  0.82881477  1  0.00985  0  -0.087368  -0.132016  0  3.968508  0
C  C123  1  0.60509470  0.80070125  0.17116250  1  -0.033217  0  -0.087452  -0.131659  0  3.967994  0
C  C124  1  0.93824368  0.82880940  0.62951616  1  0.015666  0  -0.087247  -0.131403  0  3.96771  0
C  C125  1  0.27170283  0.37053548  0.19934223  1  0.014558  0  -0.087421  -0.13212  0  3.968285  0
C  C126  1  0.23099795  0.21650417  0.38785274  1  -0.024448  0  -0.001691  0.073512  0  3.993513  0
C  C127  1  0.89778229  0.17136050  0.78349815  1  -0.011135  0  -0.001823  0.0731  0  3.993929  0
C  C128  1  0.56436387  0.61209616  0.82864563  1  -0.0531  0  -0.001814  0.073432  0  3.993805  0
C  C129  1  0.76901871  0.78350091  0.17134527  1  -0.009002  0  -0.001732  0.073299  0  3.993712  0
C  C130  1  0.10219152  0.82863809  0.61213290  1  -0.05257  0  -0.001902  0.072782  0  3.994043  0
C  C131  1  0.43561805  0.38791876  0.21655856  1  0.015157  0  -0.001852  0.073555  0  3.993649  0
C  C132  1  0.18955076  0.27154328  0.40687665  1  -0.090882  0  -0.090116  -0.136795  0  3.957787  0
C  C133  1  0.85631606  0.13532815  0.72845669  1  -0.157927  0  -0.090082  -0.137128  0  3.957628  0
C  C134  1  0.52293916  0.59307424  0.86467884  1  -0.043217  0  -0.090506  -0.137231  0  3.957597  0
C  C135  1  0.81046130  0.72846244  0.13532731  1  -0.154669  0  -0.08994  -0.136623  0  3.957523  0
C  C136  1  0.14365021  0.86467163  0.59312549  1  -0.078443  0  -0.09021  -0.13719  0  3.957683  0
C  C137  1  0.47704744  0.40694058  0.27161241  1  -0.15362  0  -0.090607  -0.137404  0  3.958009  0
C  C138  1  0.30936886  0.30860150  0.41010307  1  -0.05069  0  -0.081799  -0.08736  0  3.962616  0
C  C139  1  0.97612025  0.10147811  0.69140117  1  -0.048133  0  -0.081688  -0.086217  0  3.961859  0
C  C140  1  0.64275457  0.58987255  0.89853449  1  -0.100327  0  -0.081429  -0.086432  0  3.962345  0
C  C141  1  0.69063167  0.69140525  0.10149816  1  -0.040584  0  -0.081971  -0.087313  0  3.962701  0
C  C142  1  0.02384644  0.89852338  0.58992147  1  -0.045191  0  -0.081582  -0.086092  0  3.961658  0
C  C143  1  0.35724315  0.41014014  0.30866856  1  -0.052023  0  -0.081394  -0.086253  0  3.962213  0
C  C144  1  0.10591762  0.17744874  0.38598172  1  -0.044367  0  -0.002548  0.072557  0  3.994831  0
C  C145  1  0.77271366  0.20854817  0.82255510  1  -0.048879  0  -0.002779  0.072388  0  3.994227  0
C  C146  1  0.43925990  0.61397757  0.79146592  1  -0.039779  0  -0.00278  0.072523  0  3.995025  0
C  C147  1  0.89409961  0.82255630  0.20853276  1  -0.050657  0  -0.002473  0.072569  0  3.994958  0
C  C148  1  0.22726723  0.79144987  0.61399877  1  -0.038386  0  -0.002658  0.072731  0  3.993959  0
C  C149  1  0.56071935  0.38603858  0.17749759  1  -0.044789  0  -0.002693  0.07275  0  3.994508  0
C  C150  1  0.15017029  0.13482688  0.39569885  1  -0.06935  0  -0.090866  -0.139397  0  3.957984  0
C  C151  1  0.81697595  0.26088775  0.86516877  1  -0.090717  0  -0.091055  -0.1396  0  3.957429  0
C  C152  1  0.48344114  0.60423797  0.73910567  1  -0.062469  0  -0.090786  -0.13935  0  3.958018  0
C  C153  1  0.84983770  0.86517735  0.26087282  1  -0.088939  0  -0.090776  -0.139197  0  3.957907  0
C  C154  1  0.18302281  0.73910730  0.60426702  1  -0.063375  0  -0.091028  -0.139665  0  3.957687  0
C  C155  1  0.51653198  0.39577382  0.13487183  1  -0.070278  0  -0.090859  -0.139659  0  3.958022  0
C  C156  1  0.03018319  0.09927615  0.39569956  1  -0.049766  0  -0.081902  -0.085709  0  3.957653  0
C  C157  1  0.69700004  0.29643830  0.90072297  1  -0.036439  0  -0.081872  -0.085863  0  3.957649  0
C  C158  1  0.36341895  0.60425262  0.70355903  1  -0.039133  0  -0.082102  -0.085755  0  3.957072  0
C  C159  1  0.96982413  0.90072706  0.29642610  1  -0.036774  0  -0.081974  -0.085803  0  3.957742  0
C  C160  1  0.30300303  0.70355771  0.60426839  1  -0.040546  0  -0.08186  -0.085685  0  3.957664  0
C  C161  1  0.63654305  0.39575053  0.09930632  1  -0.048263  0  -0.082112  -0.085603  0  3.956795  0
C  C162  1  0.86303882  0.10560786  0.38561227  1  0.010067  0  -0.019485  -0.033381  0  3.985571  0
C  C163  1  0.52985519  0.28002966  0.89440073  1  -0.013701  0  -0.019501  -0.032702  0  3.98503  0
C  C164  1  0.19630754  0.61437855  0.72000928  1  -0.000871  0  -0.019613  -0.033381  0  3.985214  0
C  C165  1  0.13696839  0.89439666  0.28001295  1  -0.016646  0  -0.019467  -0.033313  0  3.985769  0
C  C166  1  0.47014435  0.71997172  0.61436368  1  -0.004371  0  -0.019547  -0.03287  0  3.985229  0
C  C167  1  0.80365438  0.38561839  0.10562960  1  0.009923  0  -0.019707  -0.033393  0  3.985149  0
C  C168  1  0.81939824  0.14707425  0.37463261  1  -0.037424  0  -0.081996  -0.084991  0  3.978951  0
C  C169  1  0.48619396  0.22758957  0.85294679  1  -0.022729  0  -0.081547  -0.085005  0  3.97961  0
C  C170  1  0.15274354  0.62539198  0.77247919  1  -0.061626  0  -0.081783  -0.084571  0  3.978775  0
C  C171  1  0.18062064  0.85292966  0.22756979  1  -0.065214  0  -0.082025  -0.085089  0  3.978938  0
C  C172  1  0.51379032  0.77241438  0.62535670  1  -0.038247  0  -0.081574  -0.084995  0  3.979818  0
C  C173  1  0.84722321  0.37461092  0.14708845  1  -0.037418  0  -0.081669  -0.084352  0  3.979026  0
C  C174  1  0.93850064  0.18260893  0.37491062  1  -0.061036  0  -0.087691  -0.132397  0  3.970926  0
C  C175  1  0.60529139  0.19233401  0.81741242  1  -0.069614  0  -0.087605  -0.1322  0  3.970663  0
C  C176  1  0.27187727  0.62509272  0.80772730  1  -0.059779  0  -0.087483  -0.132705  0  3.970695  0
C  C177  1  0.06151768  0.81739607  0.19230825  1  -0.065855  0  -0.087721  -0.132373  0  3.970903  0
C  C178  1  0.39468358  0.80766796  0.62507598  1  -0.036095  0  -0.087572  -0.132312  0  3.970508  0
C  C179  1  0.72810184  0.37491968  0.18264024  1  -0.059649  0  -0.087478  -0.132839  0  3.97069  0
C  C180  1  0.72927467  0.06969426  0.38594844  1  1.471497  0  0.192621  0.559539  0  4.196103  0
C  C181  1  0.39607988  0.31628002  0.93031118  1  1.495545  0  0.192373  0.558955  0  4.19593  0
C  C182  1  0.06250949  0.61405329  0.68376466  1  1.471529  0  0.192298  0.559037  0  4.197103  0
C  C183  1  0.27072446  0.93031166  0.31626635  1  1.49394  0  0.192367  0.559169  0  4.196613  0
C  C184  1  0.60392397  0.68371924  0.61402529  1  1.476895  0  0.192351  0.558938  0  4.195861  0
C  C185  1  0.93745370  0.38593534  0.06970397  1  1.47065  0  0.192355  0.559063  0  4.196108  0
C  C186  1  0.83426217  0.47810465  0.53698280  1  2.117527  0  0.369329  0.707436  0  4.159231  0
C  C187  1  0.50079266  0.05888763  0.52194566  1  2.113146  0  0.368922  0.706823  0  4.160606  0
C  C188  1  0.16698746  0.46315161  0.94106539  1  2.120565  0  0.36938  0.706751  0  4.159003  0
C  C189  1  0.16563319  0.52185609  0.05888867  1  2.111097  0  0.369929  0.708329  0  4.158172  0
C  C190  1  0.49928073  0.94110785  0.46306880  1  2.119063  0  0.368834  0.706518  0  4.160592  0
C  C191  1  0.83294525  0.53685401  0.47793179  1  2.120282  0  0.369328  0.706956  0  4.158541  0
C  C192  1  0.81743209  0.38055973  0.55845238  1  -0.009117  0  -0.019143  0.051051  0  4.020181  0
C  C193  1  0.48417018  0.17786190  0.61942996  1  0.012234  0  -0.018991  0.051634  0  4.020389  0
C  C194  1  0.15069728  0.44147481  0.82204334  1  -0.061575  0  -0.019214  0.050939  0  4.021026  0
C  C195  1  0.18254888  0.61944525  0.17787726  1  0.011854  0  -0.01915  0.051015  0  4.020447  0
C  C196  1  0.51588845  0.82212771  0.44155514  1  -0.063817  0  -0.019061  0.051356  0  4.020228  0
C  C197  1  0.84932882  0.55852068  0.38056104  1  -0.012955  0  -0.019336  0.050492  0  4.020956  0
C  C198  1  0.93183990  0.33703578  0.53380999  1  -0.083813  0  -0.091653  -0.121438  0  3.980706  0
C  C199  1  0.59854817  0.19673078  0.66297327  1  -0.073137  0  -0.091611  -0.121605  0  3.981167  0
C  C200  1  0.26506982  0.46617774  0.80320380  1  -0.031254  0  -0.091348  -0.121582  0  3.981504  0
C  C201  1  0.06812834  0.66296729  0.19677306  1  -0.073961  0  -0.091694  -0.121499  0  3.980767  0
C  C202  1  0.40151149  0.80326591  0.46623540  1  -0.03373  0  -0.09158  -0.121635  0  3.981095  0
C  C203  1  0.73494809  0.53382567  0.33701781  1  -0.077038  0  -0.091321  -0.121345  0  3.981316  0
C  C204  1  0.87836422  0.28327389  0.50721037  1  -0.023374  0  -0.088355  -0.119939  0  3.988032  0
C  C205  1  0.54501550  0.22390875  0.71674101  1  -0.072362  0  -0.088632  -0.120291  0  3.988268  0
C  C206  1  0.21153421  0.49281155  0.77606744  1  -0.059366  0  -0.088827  -0.119913  0  3.986911  0
C  C207  1  0.12160156  0.71673064  0.22393965  1  -0.067198  0  -0.088454  -0.120037  0  3.988525  0
C  C208  1  0.45503087  0.77609278  0.49283234  1  -0.053292  0  -0.088792  -0.120287  0  3.98764  0
C  C209  1  0.78847581  0.50719863  0.28325112  1  -0.022069  0  -0.088793  -0.119883  0  3.986845  0
C  C210  1  0.70784265  0.27059016  0.50467416  1  -0.009428  0  -0.006237  0.066493  0  3.964936  0
C  C211  1  0.37448203  0.23405617  0.72939981  1  0.031826  0  -0.00612  0.066847  0  3.965084  0
C  C212  1  0.04098928  0.49532473  0.76591001  1  0.018614  0  -0.005899  0.066866  0  3.964226  0
C  C213  1  0.29211979  0.72941027  0.23408131  1  0.030916  0  -0.00626  0.066553  0  3.965205  0
C  C214  1  0.62557134  0.76593729  0.49534054  1  0.018162  0  -0.006025  0.066802  0  3.964275  0
C  C215  1  0.95902579  0.50468140  0.27058031  1  -0.013675  0  -0.005793  0.066924  0  3.963885  0
C  C216  1  0.59536791  0.31375409  0.51802649  1  0.032002  0  -0.086401  -0.110484  0  3.977223  0
C  C217  1  0.26204098  0.20424265  0.68621502  1  0.042653  0  -0.086631  -0.110959  0  3.978255  0
C  C218  1  0.92854989  0.48190583  0.79569197  1  0.03861  0  -0.08673  -0.111451  0  3.978656  0
C  C219  1  0.40459865  0.68625102  0.20425553  1  0.040931  0  -0.086415  -0.110442  0  3.977178  0
C  C220  1  0.73801943  0.79574189  0.48195804  1  0.033752  0  -0.086689  -0.111131  0  3.978518  0
C  C221  1  0.07146395  0.51809283  0.31378089  1  0.033579  0  -0.086696  -0.111525  0  3.9785  0
C  C222  1  0.64876642  0.36756560  0.54416692  1  -0.060462  0  -0.09805  -0.138401  0  4.003687  0
C  C223  1  0.31549275  0.17656498  0.63239923  1  -0.072537  0  -0.097961  -0.13828  0  4.0045  0
C  C224  1  0.98201089  0.45572516  0.82332968  1  -0.063431  0  -0.097872  -0.137476  0  4.003904  0
C  C225  1  0.35120629  0.63244008  0.17658226  1  -0.074003  0  -0.097991  -0.13838  0  4.004214  0
C  C226  1  0.68456978  0.82341529  0.45581460  1  -0.056038  0  -0.097947  -0.137819  0  4.004195  0
C  C227  1  0.01800590  0.54426665  0.36759779  1  -0.056653  0  -0.097728  -0.137033  0  4.003901  0
C  C228  1  0.65016785  0.22201667  0.50629899  1  0.005708  0  -0.002954  0.074059  0  3.960463  0
C  C229  1  0.31676175  0.28426050  0.77795606  1  0.039257  0  -0.00296  0.073727  0  3.961105  0
C  C230  1  0.98330237  0.49370607  0.71570389  1  -0.012079  0  -0.002704  0.073865  0  3.96066  0
C  C231  1  0.34982338  0.77798182  0.28427894  1  0.035492  0  -0.003041  0.073616  0  3.960779  0
C  C232  1  0.68328283  0.71573090  0.49369368  1  -0.014313  0  -0.002858  0.074032  0  3.960923  0
C  C233  1  0.01671385  0.50629810  0.22199275  1  -0.017446  0  -0.002875  0.073663  0  3.96064  0
C  C234  1  0.76130222  0.19469981  0.52315345  1  -0.04854  0  -0.088452  -0.115191  0  3.975265  0
C  C235  1  0.42786001  0.32842924  0.80526757  1  -0.163412  0  -0.088245  -0.114439  0  3.975136  0
C  C236  1  0.09446053  0.47685999  0.67153956  1  -0.01321  0  -0.088278  -0.114152  0  3.975102  0
C  C237  1  0.23871330  0.80530053  0.32845159  1  -0.15958  0  -0.088398  -0.114959  0  3.975175  0
C  C238  1  0.57216769  0.67156451  0.47683176  1  -0.011568  0  -0.088222  -0.11453  0  3.975079  0
C  C239  1  0.90554704  0.52313542  0.19466727  1  -0.023862  0  -0.088115  -0.113834  0  3.974923  0
C  C240  1  0.70606138  0.17128441  0.55322662  1  -0.042962  0  -0.097631  -0.138201  0  4.005087  0
C  C241  1  0.37259361  0.38190168  0.82866484  1  0.038669  0  -0.097645  -0.138309  0  4.004316  0
C  C242  1  0.03924869  0.44677361  0.61805302  1  -0.058256  0  -0.097322  -0.138128  0  4.00418  0
C  C243  1  0.29397585  0.82871177  0.38193952  1  0.039273  0  -0.097511  -0.138096  0  4.005087  0
C  C244  1  0.62742877  0.61809296  0.44675868  1  -0.039921  0  -0.097707  -0.138362  0  4.003997  0
C  C245  1  0.96075865  0.55322058  0.17126526  1  -0.044294  0  -0.097391  -0.138321  0  4.004164  0
C  C246  1  0.87014725  0.43196801  0.60659314  1  0.001391  0  -0.023589  0.035923  0  4.029779  0
C  C247  1  0.53695122  0.17461322  0.56801876  1  -0.039187  0  -0.023625  0.035848  0  4.03065  0
C  C248  1  0.20348412  0.39332825  0.82529321  1  -0.028612  0  -0.02352  0.036014  0  4.030454  0
C  C249  1  0.12985345  0.56803807  0.17461620  1  -0.042717  0  -0.023469  0.036284  0  4.029242  0
C  C250  1  0.46309110  0.82537544  0.39339209  1  -0.025729  0  -0.023549  0.035785  0  4.030839  0
C  C251  1  0.79654479  0.60666184  0.43196012  1  -0.020455  0  -0.023424  0.036032  0  4.030115  0
C  C252  1  0.75712592  0.46062291  0.64998338  1  -0.123853  0  -0.092801  -0.11946  0  3.985104  0
C  C253  1  0.42395295  0.18935706  0.53935430  1  -0.076898  0  -0.092829  -0.119581  0  3.985594  0
C  C254  1  0.09050389  0.34993365  0.81056417  1  -0.065583  0  -0.092997  -0.120039  0  3.985862  0
C  C255  1  0.24288897  0.53938958  0.18935838  1  -0.062805  0  -0.09284  -0.119719  0  3.985122  0
C  C256  1  0.57607945  0.81062680  0.34998235  1  -0.068937  0  -0.092964  -0.11949  0  3.98512  0
C  C257  1  0.90952200  0.65005497  0.46062656  1  -0.119847  0  -0.092964  -0.119893  0  3.986165  0
C  C258  1  0.47924845  0.21186777  0.50851691  1  0.013091  0  -0.089665  -0.122443  0  3.978983  0
C  C259  1  0.14583007  0.29660962  0.78808185  1  -0.012559  0  -0.089708  -0.121813  0  3.979171  0
C  C260  1  0.81237760  0.49147575  0.70333020  1  0.034662  0  -0.089588  -0.121744  0  3.977768  0
C  C261  1  0.52075348  0.78812247  0.29663787  1  -0.011015  0  -0.089527  -0.122004  0  3.978276  0
C  C262  1  0.85420621  0.70338077  0.49147530  1  0.032466  0  -0.089702  -0.121943  0  3.979041  0
C  C263  1  0.18763746  0.50853898  0.21185617  1  0.001532  0  -0.08958  -0.121869  0  3.977903  0
O  O264  1  0.57387611  0.37912559  0.41330531  1  -1.122512  0  -0.336289  -0.549325  0  2.128811  0
O  O265  1  0.24050719  0.03411049  0.62088061  1  -1.128093  0  -0.336195  -0.549111  0  2.128742  0
O  O266  1  0.90719342  0.58677224  0.96594459  1  -1.120256  0  -0.336609  -0.549593  0  2.128785  0
O  O267  1  0.42612237  0.62087941  0.03418579  1  -1.12808  0  -0.336338  -0.549374  0  2.128797  0
O  O268  1  0.75945571  0.96589172  0.58676860  1  -1.120545  0  -0.336105  -0.549072  0  2.128508  0
O  O269  1  0.09280018  0.41323269  0.37917227  1  -1.121891  0  -0.336508  -0.549601  0  2.128833  0
O  O270  1  0.75633915  0.31059492  0.38478441  1  -1.139244  0  -0.33081  -0.548224  0  2.162939  0
O  O271  1  0.42303601  0.07412482  0.68941091  1  -1.137368  0  -0.330873  -0.548324  0  2.163176  0
O  O272  1  0.08966547  0.61528848  0.92591694  1  -1.137633  0  -0.331029  -0.548456  0  2.162785  0
O  O273  1  0.24365743  0.68940804  0.07419725  1  -1.135073  0  -0.330683  -0.548051  0  2.162859  0
O  O274  1  0.57693436  0.92587678  0.61528480  1  -1.138177  0  -0.330787  -0.54818  0  2.163334  0
O  O275  1  0.91032131  0.38472906  0.31062959  1  -1.140258  0  -0.330978  -0.548453  0  2.162843  0
O  O276  1  0.57985336  0.07675694  0.37457195  1  -1.13555  0  -0.332166  -0.552195  0  2.169126  0
O  O277  1  0.24662780  0.29785718  0.92321338  1  -1.137359  0  -0.332147  -0.552126  0  2.169097  0
O  O278  1  0.91311945  0.62545734  0.70222202  1  -1.132811  0  -0.33209  -0.552137  0  2.168763  0
O  O279  1  0.42015668  0.92323740  0.29783722  1  -1.135676  0  -0.332108  -0.551961  0  2.169141  0
O  O280  1  0.75337129  0.70214319  0.62535586  1  -1.135636  0  -0.332147  -0.552099  0  2.169034  0
O  O281  1  0.08684257  0.37452238  0.07675482  1  -1.134413  0  -0.332131  -0.552146  0  2.168406  0
O  O282  1  0.76302059  0.03155159  0.39665280  1  -1.123927  0  -0.334125  -0.546826  0  2.134602  0
O  O283  1  0.42981986  0.36510740  0.96847904  1  -1.132138  0  -0.334001  -0.546653  0  2.134536  0
O  O284  1  0.09621748  0.60333544  0.63490386  1  -1.12406  0  -0.333838  -0.546458  0  2.135748  0
O  O285  1  0.23696045  0.96846664  0.36510569  1  -1.131578  0  -0.333941  -0.546713  0  2.134814  0
O  O286  1  0.57017794  0.63489037  0.60335863  1  -1.124665  0  -0.333991  -0.546596  0  2.134564  0
O  O287  1  0.90375493  0.39665528  0.03156131  1  -1.123862  0  -0.333892  -0.54657  0  2.135391  0
O  O288  1  0.92297615  0.44615528  0.50291568  1  -1.068388  0  -0.160677  -0.352588  0  2.259326  0
O  O289  1  0.58957357  0.05675441  0.55387939  1  -1.069373  0  -0.160719  -0.352415  0  2.259205  0
O  O290  1  0.25597748  0.49717885  0.94321431  1  -1.075157  0  -0.160965  -0.352781  0  2.257922  0
O  O291  1  0.07703556  0.55382607  0.05676293  1  -1.067352  0  -0.161014  -0.352966  0  2.25807  0
O  O292  1  0.41046340  0.94324068  0.49712915  1  -1.074716  0  -0.160671  -0.352339  0  2.258847  0
O  O293  1  0.74400845  0.50282732  0.44603219  1  -1.069242  0  -0.16098  -0.352929  0  2.257569  0
O  O294  1  0.74447182  0.51153798  0.56911348  1  -1.077132  0  -0.16029  -0.347993  0  2.243489  0
O  O295  1  0.41094266  0.05760595  0.48852276  1  -1.070999  0  -0.159857  -0.347552  0  2.244296  0
O  O296  1  0.07696865  0.43104488  0.94231085  1  -1.072105  0  -0.160254  -0.347254  0  2.242479  0
O  O297  1  0.25531313  0.48840009  0.05759349  1  -1.071036  0  -0.160524  -0.348571  0  2.24458  0
O  O298  1  0.58915350  0.94238598  0.43093442  1  -1.071256  0  -0.159839  -0.347379  0  2.244419  0
O  O299  1  0.92291607  0.56896228  0.51130923  1  -1.078349  0  -0.160124  -0.347274  0  2.242711  0
