# generated using pymatgen
data_CuH4(C3N)2
_symmetry_space_group_name_H-M   'P 1'
_cell_length_a   8.48278392
_cell_length_b   11.36970213
_cell_length_c   12.45987197
_cell_angle_alpha   90.00007767
_cell_angle_beta   100.78013257
_cell_angle_gamma   89.99994971
_symmetry_Int_Tables_number   1
_chemical_formula_structural   CuH4(C3N)2
_chemical_formula_sum   'Cu8 H32 C48 N16'
_cell_volume   1180.50621722
_cell_formula_units_Z   8
loop_
 _symmetry_equiv_pos_site_id
 _symmetry_equiv_pos_as_xyz
  1  'x, y, z'
loop_
 _atom_site_type_symbol
 _atom_site_label
 _atom_site_symmetry_multiplicity
 _atom_site_fract_x
 _atom_site_fract_y
 _atom_site_fract_z
 _atom_site_occupancy
 _atom_site_hle17_bader_spin_density
 _atom_site_hle17_ddec_charge
 _atom_site_hle17_ddec_spin_density
 _atom_site_hle17_ddec_sum_bond_order
 _atom_site_hle17_magmom
 _atom_site_hse06_10hf_bader_spin_density
 _atom_site_hse06_10hf_ddec_charge
 _atom_site_hse06_10hf_ddec_spin_density
 _atom_site_hse06_10hf_ddec_sum_bond_order
 _atom_site_hse06_10hf_magmom
 _atom_site_hse06_bader_spin_density
 _atom_site_hse06_ddec_charge
 _atom_site_hse06_ddec_spin_density
 _atom_site_hse06_ddec_sum_bond_order
 _atom_site_hse06_magmom
 _atom_site_pbe_bader_spin_density
 _atom_site_pbe_cm5_charge
 _atom_site_pbe_ddec_charge
 _atom_site_pbe_ddec_spin_density
 _atom_site_pbe_ddec_sum_bond_order
 _atom_site_pbe_magmom
Cu  Cu0  1  0.01840347  0.90489921  0.54755028  1  0  0.254748  0  2.609285  0  0  0.193517  0  3.104414  0  0  0.17428  0  3.068272  0  0  0.420834  0.210309  0  3.125478  0
Cu  Cu1  1  0.48159120  0.40490297  0.95245412  1  0  0.254802  0  2.608952  0  0  0.193582  0  3.104057  0  0  0.174339  0  3.067911  0  0  0.420864  0.210359  0  3.125137  0
Cu  Cu2  1  0.98159254  0.09509660  0.45245509  1  0  0.254799  0  2.608919  0  0  0.193561  0  3.104024  0  0  0.174327  0  3.067884  0  0  0.42086  0.210346  0  3.125106  0
Cu  Cu3  1  0.51840241  0.59509900  0.04754934  1  0  0.25475  0  2.609252  0  0  0.193503  0  3.104391  0  0  0.174264  0  3.068244  0  0  0.420821  0.210287  0  3.125444  0
Cu  Cu4  1  0.86259785  0.14937801  0.81576544  1  0  0.528128  0  2.039352  0  0  0.421169  0  2.523882  0  0  0.417933  0  2.48665  0  0  0.589918  0.427414  0  2.54604  0
Cu  Cu5  1  0.63740307  0.64936998  0.68423785  1  0  0.528119  0  2.039247  0  0  0.42116  0  2.523731  0  0  0.417928  0  2.486474  0  0  0.589895  0.42742  0  2.545898  0
Cu  Cu6  1  0.13740417  0.85063011  0.18423910  1  0  0.528139  0  2.039303  0  0  0.421158  0  2.523788  0  0  0.417927  0  2.48655  0  0  0.589899  0.427431  0  2.545958  0
Cu  Cu7  1  0.36259535  0.35062231  0.31576462  1  0  0.528124  0  2.0394  0  0  0.421148  0  2.523913  0  0  0.417905  0  2.486651  0  0  0.58993  0.4274  0  2.546068  0
H  H8  1  0.78837266  0.88620074  0.17883469  1  0  0.078807  0  0.936574  0  0  0.089294  0  0.996337  0  0  0.090713  0  0.996726  0  0  0.113883  0.088153  0  0.996299  0
H  H9  1  0.71163286  0.38619569  0.32116825  1  0  0.078785  0  0.936476  0  0  0.089254  0  0.996284  0  0  0.09067  0  0.996676  0  0  0.113848  0.088114  0  0.996246  0
H  H10  1  0.21163056  0.11380211  0.82116599  1  0  0.078794  0  0.936551  0  0  0.089283  0  0.996318  0  0  0.090701  0  0.996708  0  0  0.113874  0.088147  0  0.996281  0
H  H11  1  0.28836556  0.61379924  0.67883261  1  0  0.078828  0  0.936516  0  0  0.0893  0  0.996314  0  0  0.090719  0  0.996705  0  0  0.113886  0.088163  0  0.996276  0
H  H12  1  0.53730371  0.90030751  0.03979099  1  0  0.10724  0  0.968945  0  0  0.119717  0  1.026934  0  0  0.121332  0  1.028429  0  0  0.105391  0.118549  0  1.026076  0
H  H13  1  0.96269940  0.40030689  0.46020845  1  0  0.107219  0  0.968977  0  0  0.119733  0  1.026911  0  0  0.121348  0  1.028407  0  0  0.105406  0.118566  0  1.026054  0
H  H14  1  0.46270071  0.09969445  0.96020743  1  0  0.107203  0  0.96898  0  0  0.119713  0  1.026927  0  0  0.121329  0  1.028422  0  0  0.105397  0.118547  0  1.026069  0
H  H15  1  0.03729903  0.59969420  0.53978841  1  0  0.107196  0  0.969015  0  0  0.1197  0  1.026967  0  0  0.121315  0  1.028462  0  0  0.105404  0.118534  0  1.026109  0
H  H16  1  0.82868728  0.87240134  0.79044546  1  0  0.111987  0  0.974454  0  0  0.121859  0  1.037119  0  0  0.124166  0  1.036425  0  0  0.106132  0.120033  0  1.038097  0
H  H17  1  0.67131466  0.37240407  0.70955261  1  0  0.111921  0  0.974397  0  0  0.121776  0  1.037089  0  0  0.124082  0  1.036397  0  0  0.106122  0.11995  0  1.03807  0
H  H18  1  0.17131715  0.12759711  0.20955376  1  0  0.111939  0  0.974393  0  0  0.121795  0  1.037089  0  0  0.124101  0  1.036395  0  0  0.106119  0.119968  0  1.038071  0
H  H19  1  0.32868616  0.62759526  0.29044535  1  0  0.111958  0  0.97446  0  0  0.121852  0  1.037096  0  0  0.124163  0  1.036405  0  0  0.10615  0.120023  0  1.038076  0
H  H20  1  0.06665955  0.85098603  0.94157614  1  0  0.073833  0  0.94426  0  0  0.083968  0  1.006649  0  0  0.085664  0  1.006158  0  0  0.112232  0.082665  0  1.007142  0
H  H21  1  0.43334358  0.35098571  0.55842365  1  0  0.073828  0  0.944306  0  0  0.084014  0  1.006655  0  0  0.085713  0  1.006162  0  0  0.11223  0.082711  0  1.007149  0
H  H22  1  0.93334367  0.14901331  0.05842454  1  0  0.073871  0  0.944237  0  0  0.08403  0  1.006601  0  0  0.085728  0  1.006108  0  0  0.112243  0.082728  0  1.007095  0
H  H23  1  0.56665604  0.64901010  0.44157736  1  0  0.07383  0  0.944289  0  0  0.083988  0  1.006658  0  0  0.085686  0  1.006167  0  0  0.112235  0.082685  0  1.007152  0
H  H24  1  0.36741439  0.79922289  0.91215015  1  0  0.103799  0  0.991466  0  0  0.111709  0  1.059146  0  0  0.114636  0  1.058166  0  0  0.100857  0.10956  0  1.059976  0
H  H25  1  0.13258878  0.29922722  0.58784638  1  0  0.103767  0  0.991499  0  0  0.111633  0  1.059236  0  0  0.11456  0  1.058255  0  0  0.100839  0.109485  0  1.060067  0
H  H26  1  0.63259123  0.20077468  0.08784843  1  0  0.10384  0  0.991478  0  0  0.11171  0  1.059196  0  0  0.114636  0  1.058217  0  0  0.100854  0.10956  0  1.060028  0
H  H27  1  0.86741445  0.70077738  0.41214868  1  0  0.103848  0  0.991456  0  0  0.111756  0  1.059135  0  0  0.114682  0  1.058154  0  0  0.10087  0.109608  0  1.059966  0
H  H28  1  0.62004892  0.99207818  0.69703267  1  0  0.110711  0  0.968159  0  0  0.118082  0  1.034331  0  0  0.121935  0  1.03218  0  0  0.104836  0.115251  0  1.036024  0
H  H29  1  0.87994692  0.49208179  0.80296478  1  0  0.110688  0  0.968185  0  0  0.118067  0  1.034338  0  0  0.121925  0  1.032188  0  0  0.104808  0.115236  0  1.036029  0
H  H30  1  0.37994471  0.00792115  0.30296357  1  0  0.110675  0  0.968201  0  0  0.118055  0  1.034352  0  0  0.121911  0  1.032202  0  0  0.104815  0.115221  0  1.036046  0
H  H31  1  0.12004671  0.50792194  0.19703066  1  0  0.110747  0  0.968174  0  0  0.118113  0  1.034334  0  0  0.121968  0  1.032182  0  0  0.104824  0.115281  0  1.036026  0
H  H32  1  0.12334416  0.80902260  0.76503714  1  0  0.076516  0  0.941697  0  0  0.088935  0  1.000006  0  0  0.09086  0  0.998745  0  0  0.113957  0.087458  0  1.001032  0
H  H33  1  0.37665900  0.30902698  0.73496421  1  0  0.076494  0  0.941676  0  0  0.088862  0  1.000034  0  0  0.090833  0  0.998723  0  0  0.113955  0.087387  0  1.001061  0
H  H34  1  0.87666026  0.19097234  0.23496610  1  0  0.076489  0  0.941683  0  0  0.088859  0  1.000041  0  0  0.09083  0  0.99873  0  0  0.113953  0.087387  0  1.001056  0
H  H35  1  0.62334302  0.69097763  0.26503631  1  0  0.076584  0  0.941682  0  0  0.088965  0  1.000035  0  0  0.090915  0  0.998746  0  0  0.113978  0.087489  0  1.001052  0
H  H36  1  0.36306887  0.99487420  0.56003297  1  0  0.080464  0  0.92778  0  0  0.091257  0  0.986007  0  0  0.093649  0  0.984197  0  0  0.116794  0.089381  0  0.987499  0
H  H37  1  0.13692694  0.49487729  0.93996606  1  0  0.080538  0  0.927758  0  0  0.091298  0  0.986009  0  0  0.093686  0  0.984197  0  0  0.11681  0.089422  0  0.987496  0
H  H38  1  0.63692595  0.00512513  0.43996583  1  0  0.080541  0  0.927806  0  0  0.091329  0  0.986031  0  0  0.093715  0  0.984217  0  0  0.116846  0.089454  0  0.987519  0
H  H39  1  0.86306789  0.50512732  0.06003033  1  0  0.08056  0  0.927686  0  0  0.091342  0  0.985916  0  0  0.093736  0  0.984107  0  0  0.116831  0.089465  0  0.987408  0
C  C40  1  0.93511523  0.07324127  0.59780408  1  0  -0.070107  0  3.596532  0  0  -0.08384  0  3.983159  0  0  -0.058598  0  3.96723  0  0  -0.079327  -0.102051  0  3.993619  0
C  C41  1  0.56488814  0.57326087  0.90220504  1  0  -0.070108  0  3.596575  0  0  -0.083849  0  3.983206  0  0  -0.058602  0  3.967273  0  0  -0.079317  -0.102052  0  3.993649  0
C  C42  1  0.06489157  0.92673783  0.40221230  1  0  -0.070104  0  3.59645  0  0  -0.083845  0  3.983089  0  0  -0.058594  0  3.967157  0  0  -0.079342  -0.10206  0  3.993539  0
C  C43  1  0.43510907  0.42675781  0.09779968  1  0  -0.070101  0  3.596379  0  0  -0.083848  0  3.983025  0  0  -0.058593  0  3.967076  0  0  -0.079359  -0.102059  0  3.993474  0
C  C44  1  0.87762176  0.79473864  0.59085270  1  0  -0.067371  0  3.507481  0  0  -0.074636  0  3.866835  0  0  -0.057306  0  3.861553  0  0  -0.05197  -0.086834  0  3.869554  0
C  C45  1  0.62237305  0.29474345  0.90914276  1  0  -0.067508  0  3.507638  0  0  -0.074774  0  3.867003  0  0  -0.057445  0  3.86172  0  0  -0.052049  -0.086967  0  3.869719  0
C  C46  1  0.12237067  0.20525630  0.40914418  1  0  -0.067532  0  3.507523  0  0  -0.0748  0  3.866895  0  0  -0.057477  0  3.861622  0  0  -0.052064  -0.086996  0  3.86961  0
C  C47  1  0.37762778  0.70526292  0.09085520  1  0  -0.067408  0  3.507693  0  0  -0.074673  0  3.867042  0  0  -0.057346  0  3.861764  0  0  -0.051976  -0.086871  0  3.869752  0
C  C48  1  0.79126467  0.88193232  0.09172014  1  0  0.128872  0  3.708368  0  0  0.099411  0  3.961572  0  0  0.10532  0  3.979238  0  0  0.041617  0.095447  0  3.950091  0
C  C49  1  0.70873486  0.38192827  0.40828203  1  0  0.128926  0  3.70826  0  0  0.099441  0  3.961477  0  0  0.105353  0  3.97914  0  0  0.0416  0.09548  0  3.949997  0
C  C50  1  0.20873495  0.11807229  0.90828088  1  0  0.128924  0  3.70836  0  0  0.099442  0  3.961583  0  0  0.105354  0  3.979248  0  0  0.041601  0.095475  0  3.950106  0
C  C51  1  0.29126116  0.61806842  0.59171773  1  0  0.128864  0  3.708289  0  0  0.099395  0  3.961522  0  0  0.105304  0  3.979189  0  0  0.041591  0.09543  0  3.950045  0
C  C52  1  0.65196264  0.89114363  0.01347244  1  0  -0.154202  0  3.702544  0  0  -0.173469  0  3.950766  0  0  -0.180247  0  3.971771  0  0  -0.081667  -0.169375  0  3.937119  0
C  C53  1  0.84803928  0.39114312  0.48652604  1  0  -0.154194  0  3.702607  0  0  -0.173436  0  3.950858  0  0  -0.180218  0  3.971863  0  0  -0.081631  -0.169345  0  3.937214  0
C  C54  1  0.34803938  0.10885746  0.98652648  1  0  -0.154162  0  3.702589  0  0  -0.173393  0  3.950854  0  0  -0.180172  0  3.97186  0  0  -0.081629  -0.1693  0  3.937207  0
C  C55  1  0.15195915  0.60885621  0.51347081  1  0  -0.154148  0  3.702537  0  0  -0.173413  0  3.950757  0  0  -0.180193  0  3.971762  0  0  -0.081628  -0.169322  0  3.937114  0
C  C56  1  0.66129004  0.88939753  0.90220545  1  0  0.098871  0  3.747513  0  0  0.111713  0  3.975867  0  0  0.115833  0  3.994775  0  0  0.013558  0.108828  0  3.963624  0
C  C57  1  0.83871308  0.38939822  0.59779360  1  0  0.098986  0  3.747455  0  0  0.111708  0  3.975958  0  0  0.11583  0  3.994865  0  0  0.013572  0.108825  0  3.963717  0
C  C58  1  0.33871438  0.11060180  0.09779377  1  0  0.09894  0  3.747451  0  0  0.11162  0  3.976014  0  0  0.115738  0  3.994923  0  0  0.013548  0.108735  0  3.963767  0
C  C59  1  0.16128774  0.61060023  0.40220436  1  0  0.098977  0  3.74728  0  0  0.111802  0  3.975669  0  0  0.115923  0  3.994575  0  0  0.013607  0.108918  0  3.963427  0
C  C60  1  0.81402050  0.87729864  0.87532176  1  0  -0.159572  0  3.709039  0  0  -0.180438  0  3.962697  0  0  -0.183736  0  3.977347  0  0  -0.082694  -0.179061  0  3.95394  0
C  C61  1  0.68598023  0.37730123  0.62467537  1  0  -0.159514  0  3.708897  0  0  -0.180314  0  3.962602  0  0  -0.183611  0  3.977251  0  0  -0.082705  -0.17894  0  3.953852  0
C  C62  1  0.18598152  0.12270157  0.12467555  1  0  -0.159494  0  3.708901  0  0  -0.180289  0  3.962598  0  0  -0.183584  0  3.977246  0  0  -0.082651  -0.178915  0  3.953847  0
C  C63  1  0.31401820  0.62269722  0.37532068  1  0  -0.159637  0  3.708967  0  0  -0.180495  0  3.962605  0  0  -0.183803  0  3.977264  0  0  -0.082796  -0.179118  0  3.953852  0
C  C64  1  0.94650242  0.86404501  0.95881972  1  0  0.128862  0  3.70575  0  0  0.101865  0  3.951984  0  0  0.107339  0  3.968793  0  0  0.042435  0.098246  0  3.941154  0
C  C65  1  0.55349952  0.36404669  0.54117915  1  0  0.128838  0  3.705848  0  0  0.101761  0  3.95209  0  0  0.107228  0  3.968903  0  0  0.042448  0.098143  0  3.941261  0
C  C66  1  0.05349960  0.13595520  0.04118000  1  0  0.128804  0  3.705773  0  0  0.101782  0  3.951993  0  0  0.107255  0  3.968802  0  0  0.042407  0.098163  0  3.941162  0
C  C67  1  0.44649890  0.63595088  0.45881851  1  0  0.128919  0  3.705688  0  0  0.101889  0  3.951937  0  0  0.107358  0  3.968751  0  0  0.042489  0.098272  0  3.941104  0
C  C68  1  0.51499972  0.89600543  0.81743193  1  0  0.093084  0  3.752444  0  0  0.103813  0  3.982265  0  0  0.108834  0  4.00113  0  0  0.012011  0.100307  0  3.969935  0
C  C69  1  0.98500340  0.39600878  0.68256713  1  0  0.093118  0  3.752463  0  0  0.103869  0  3.982308  0  0  0.108891  0  4.001173  0  0  0.012047  0.100363  0  3.969979  0
C  C70  1  0.48500470  0.10399214  0.18256730  1  0  0.093163  0  3.752432  0  0  0.103926  0  3.982271  0  0  0.108946  0  4.001134  0  0  0.012057  0.100418  0  3.969937  0
C  C71  1  0.01499743  0.60399494  0.31743003  1  0  0.093197  0  3.752362  0  0  0.103886  0  3.982237  0  0  0.108909  0  4.001098  0  0  0.012018  0.100377  0  3.969908  0
C  C72  1  0.37155952  0.84548526  0.83613283  1  0  -0.148675  0  3.709666  0  0  -0.165507  0  3.953248  0  0  -0.173007  0  3.975378  0  0  -0.080409  -0.160776  0  3.93878  0
C  C73  1  0.12844481  0.34549059  0.66386631  1  0  -0.14867  0  3.709703  0  0  -0.165468  0  3.953308  0  0  -0.172971  0  3.97545  0  0  -0.080414  -0.160739  0  3.938846  0
C  C74  1  0.62844730  0.15451055  0.16386751  1  0  -0.148786  0  3.709813  0  0  -0.16556  0  3.953364  0  0  -0.173063  0  3.97551  0  0  -0.080419  -0.16083  0  3.9389  0
C  C75  1  0.87155602  0.65451402  0.33613165  1  0  -0.148834  0  3.709834  0  0  -0.165652  0  3.953417  0  0  -0.173153  0  3.975552  0  0  -0.080443  -0.160923  0  3.93895  0
C  C76  1  0.51274665  0.95017300  0.71587507  1  0  -0.152897  0  3.692623  0  0  -0.169622  0  3.936956  0  0  -0.175112  0  3.954556  0  0  -0.078454  -0.166393  0  3.925778  0
C  C77  1  0.98725163  0.45017738  0.78412263  1  0  -0.152953  0  3.692566  0  0  -0.169667  0  3.93688  0  0  -0.175165  0  3.954481  0  0  -0.078464  -0.166439  0  3.925704  0
C  C78  1  0.48725058  0.04982545  0.28412243  1  0  -0.152876  0  3.692707  0  0  -0.169595  0  3.937024  0  0  -0.175089  0  3.954622  0  0  -0.078445  -0.166368  0  3.925848  0
C  C79  1  0.01274560  0.54982634  0.21587326  1  0  -0.153005  0  3.692716  0  0  -0.1697  0  3.937036  0  0  -0.175192  0  3.954634  0  0  -0.078459  -0.166473  0  3.925858  0
C  C80  1  0.23592958  0.84994183  0.75466512  1  0  0.109444  0  3.711717  0  0  0.080954  0  3.963229  0  0  0.086256  0  3.980561  0  0  0.03888  0.077474  0  3.951948  0
C  C81  1  0.26407474  0.34994894  0.74533562  1  0  0.109435  0  3.711804  0  0  0.081  0  3.963326  0  0  0.086265  0  3.980647  0  0  0.03887  0.077514  0  3.952048  0
C  C82  1  0.76407604  0.15005135  0.24533746  1  0  0.109434  0  3.711856  0  0  0.080982  0  3.963377  0  0  0.086248  0  3.980698  0  0  0.038874  0.077499  0  3.952098  0
C  C83  1  0.73592728  0.65005655  0.25466570  1  0  0.109442  0  3.711915  0  0  0.080962  0  3.963405  0  0  0.086246  0  3.980734  0  0  0.03887  0.077485  0  3.952123  0
C  C84  1  0.37031274  0.95222230  0.63932743  1  0  0.122032  0  3.690728  0  0  0.095993  0  3.935903  0  0  0.101367  0  3.952879  0  0  0.045861  0.092408  0  3.924961  0
C  C85  1  0.12968791  0.45222704  0.86067137  1  0  0.121928  0  3.690662  0  0  0.095934  0  3.935837  0  0  0.101315  0  3.952803  0  0  0.045823  0.092349  0  3.924891  0
C  C86  1  0.62968569  0.04777439  0.36067183  1  0  0.121843  0  3.690828  0  0  0.09582  0  3.936016  0  0  0.101202  0  3.95298  0  0  0.045755  0.092231  0  3.925074  0
C  C87  1  0.87031052  0.54777669  0.13932549  1  0  0.121962  0  3.690724  0  0  0.095919  0  3.935863  0  0  0.101287  0  3.952843  0  0  0.045826  0.092332  0  3.924921  0
N  N88  1  0.89780769  0.09815844  0.68181148  1  0  -0.435047  0  3.346162  0  0  -0.366376  0  3.701042  0  0  -0.380512  0  3.69788  0  0  -0.455793  -0.3572  0  3.70233  0
N  N89  1  0.60219686  0.59815591  0.81819542  1  0  -0.435041  0  3.346094  0  0  -0.366367  0  3.700942  0  0  -0.380507  0  3.697776  0  0  -0.455785  -0.357197  0  3.702232  0
N  N90  1  0.10219672  0.90184441  0.31819336  1  0  -0.435096  0  3.345936  0  0  -0.36642  0  3.700791  0  0  -0.380563  0  3.697626  0  0  -0.455796  -0.35725  0  3.702084  0
N  N91  1  0.39780034  0.40184254  0.18181332  1  0  -0.43507  0  3.34592  0  0  -0.366386  0  3.700787  0  0  -0.380522  0  3.697608  0  0  -0.45577  -0.357213  0  3.702066  0
N  N92  1  0.79257250  0.72776860  0.62469428  1  0  -0.455909  0  3.369026  0  0  -0.390985  0  3.72427  0  0  -0.40376  0  3.722784  0  0  -0.463405  -0.382827  0  3.724277  0
N  N93  1  0.70742476  0.22777506  0.87530302  1  0  -0.455781  0  3.369255  0  0  -0.390858  0  3.724502  0  0  -0.403633  0  3.723033  0  0  -0.463326  -0.382694  0  3.7245  0
N  N94  1  0.20742352  0.27222458  0.37530307  1  0  -0.455735  0  3.369133  0  0  -0.390807  0  3.72437  0  0  -0.403578  0  3.722882  0  0  -0.463306  -0.382641  0  3.724359  0
N  N95  1  0.29257607  0.77223131  0.12469575  1  0  -0.455895  0  3.369212  0  0  -0.390967  0  3.724441  0  0  -0.403744  0  3.722961  0  0  -0.463412  -0.382814  0  3.724449  0
N  N96  1  0.23349653  0.90262651  0.65751464  1  0  -0.256633  0  3.343144  0  0  -0.19147  0  3.624434  0  0  -0.200835  0  3.636006  0  0  -0.348244  -0.186015  0  3.616921  0
N  N97  1  0.26650655  0.40263201  0.84248681  1  0  -0.256542  0  3.343208  0  0  -0.191415  0  3.6245  0  0  -0.200779  0  3.636081  0  0  -0.348204  -0.185952  0  3.616985  0
N  N98  1  0.76650548  0.09736930  0.34248909  1  0  -0.256505  0  3.34318  0  0  -0.191365  0  3.624475  0  0  -0.200732  0  3.63606  0  0  -0.348216  -0.185907  0  3.616961  0
N  N99  1  0.73349427  0.59737172  0.15751516  1  0  -0.256677  0  3.343256  0  0  -0.191461  0  3.624469  0  0  -0.200826  0  3.636048  0  0  -0.348249  -0.186009  0  3.616955  0
N  N100  1  0.93707426  0.86702332  0.06559703  1  0  -0.306983  0  3.35708  0  0  -0.236897  0  3.647576  0  0  -0.246993  0  3.655787  0  0  -0.35722  -0.230944  0  3.642301  0
N  N101  1  0.56292768  0.36702030  0.43440222  1  0  -0.307042  0  3.357089  0  0  -0.236893  0  3.647564  0  0  -0.246982  0  3.655768  0  0  -0.357219  -0.230933  0  3.642281  0
N  N102  1  0.06292776  0.13298216  0.93440189  1  0  -0.307085  0  3.357162  0  0  -0.236985  0  3.647676  0  0  -0.24708  0  3.655892  0  0  -0.357248  -0.231024  0  3.642391  0
N  N103  1  0.43707314  0.63297551  0.56559735  1  0  -0.307078  0  3.356963  0  0  -0.236997  0  3.64749  0  0  -0.247089  0  3.655696  0  0  -0.357257  -0.231039  0  3.642213  0
