# generated using pymatgen
data_Co3P2H6C8S2(BrO4)2
_symmetry_space_group_name_H-M   'P 1'
_cell_length_a   5.31953352
_cell_length_b   10.54550920
_cell_length_c   15.05760469
_cell_angle_alpha   106.91674211
_cell_angle_beta   89.99634072
_cell_angle_gamma   90.01212072
_symmetry_Int_Tables_number   1
_chemical_formula_structural   Co3P2H6C8S2(BrO4)2
_chemical_formula_sum   'Co6 P4 H12 C16 S4 Br4 O16'
_cell_volume   808.13839774
_cell_formula_units_Z   2
loop_
 _symmetry_equiv_pos_site_id
 _symmetry_equiv_pos_as_xyz
  1  'x, y, z'
loop_
 _atom_site_type_symbol
 _atom_site_label
 _atom_site_symmetry_multiplicity
 _atom_site_fract_x
 _atom_site_fract_y
 _atom_site_fract_z
 _atom_site_occupancy
 _atom_site_hle17_ddec_charge
 _atom_site_hle17_ddec_spin_density
 _atom_site_hle17_ddec_sum_bond_order
 _atom_site_hle17_magmom
 _atom_site_hse06_10hf_ddec_charge
 _atom_site_hse06_10hf_ddec_spin_density
 _atom_site_hse06_10hf_ddec_sum_bond_order
 _atom_site_hse06_10hf_magmom
 _atom_site_hse06_ddec_charge
 _atom_site_hse06_ddec_spin_density
 _atom_site_hse06_ddec_sum_bond_order
 _atom_site_hse06_magmom
 _atom_site_pbe_cm5_charge
 _atom_site_pbe_ddec_charge
 _atom_site_pbe_ddec_spin_density
 _atom_site_pbe_ddec_sum_bond_order
 _atom_site_pbe_magmom
Co  Co0  1  0.50251920  0.50179141  0.50024640  1  1.198601  2.818561  1.934279  2.61  1.183151  2.803133  2.316605  2.662  1.250068  2.859674  2.249458  2.734  0.649514  1.132448  2.731076  2.363079  2.576
Co  Co1  1  0.00055628  0.00048750  0.49928570  1  1.199716  -2.854035  1.938377  -2.628  1.185453  -2.852235  2.317446  -2.681  1.250376  -2.8819  2.250258  -2.739  0.652373  1.137239  -2.829881  2.365024  -2.631
Co  Co2  1  0.70516666  0.28877978  0.57048958  1  1.201124  -2.771555  1.796288  -2.558  1.179791  -2.801159  2.216903  -2.639  1.261873  -2.854064  2.139168  -2.716  0.651967  1.09279  -2.732973  2.295499  -2.552
Co  Co3  1  0.20634985  0.20998648  0.42988503  1  1.19756  -2.768125  1.801472  -2.553  1.174648  -2.793628  2.221958  -2.63  1.259304  -2.851005  2.142738  -2.711  0.649291  1.086546  -2.728037  2.30338  -2.544
Co  Co4  1  0.29347987  0.71264177  0.42870803  1  1.202875  -2.757874  1.804989  -2.542  1.175332  -2.775496  2.230578  -2.613  1.25896  -2.841414  2.151858  -2.702  0.651509  1.087881  -2.682905  2.309583  -2.503
Co  Co5  1  0.79428273  0.78776101  0.57156773  1  1.198411  2.731982  1.802009  2.535  1.174737  2.747032  2.226667  2.612  1.25904  2.825277  2.147697  2.702  0.649267  1.084825  2.63861  2.307148  2.497
P  P6  1  0.01702377  0.55097467  0.63843082  1  1.503234  0.004924  4.836664  0.004  1.359094  0.006752  5.331628  0.007  1.416013  0.005196  5.292649  0.006  0.351717  1.316411  0.008011  5.35521  0.007
P  P7  1  0.51467308  0.94883810  0.36111548  1  1.505724  -0.008405  4.835878  -0.005  1.360881  -0.013686  5.332115  -0.012  1.417699  -0.010308  5.293245  -0.01  0.352259  1.318584  -0.016474  5.355794  -0.013
P  P8  1  0.98528812  0.44922449  0.36202412  1  1.507591  -0.000271  4.831979  0.0  1.362759  -0.000903  5.327338  0.0  1.419796  -0.000807  5.287898  0.0  0.352578  1.3202  -0.000856  5.351113  0.0
P  P9  1  0.48465358  0.05082189  0.63813047  1  1.506053  -0.00487  4.835187  -0.004  1.361867  -0.007106  5.329022  -0.007  1.418618  -0.005267  5.290192  -0.006  0.351772  1.319399  -0.008759  5.353052  -0.008
H  H10  1  0.96543326  0.69334903  0.98957754  1  0.129538  4.6e-05  1.000358  0.0  0.131238  2.5e-05  1.075776  0.0  0.135001  1.8e-05  1.073301  0.0  0.092215  0.128644  3.8e-05  1.077359  0.0
H  H11  1  0.46619209  0.80628008  0.00999463  1  0.130108  -3.6e-05  0.999271  0.0  0.131584  -3e-05  1.074821  0.0  0.135405  -2.1e-05  1.072292  0.0  0.092263  0.128955  -4.2e-05  1.07645  0.0
H  H12  1  0.03470910  0.30594832  0.01064490  1  0.129908  3.4e-05  0.999729  0.0  0.131511  3.5e-05  1.075275  0.0  0.135303  2.6e-05  1.072794  0.0  0.092222  0.128969  4.6e-05  1.076805  0.0
H  H13  1  0.53466857  0.19357351  0.98942540  1  0.129571  -4.7e-05  0.99972  0.0  0.131272  -3.4e-05  1.075049  0.0  0.135032  -2.1e-05  1.07255  0.0  0.092041  0.128657  -5.4e-05  1.07669  0.0
H  H14  1  0.37563949  0.41368340  0.74331711  1  0.144517  0.000264  0.959075  0.0  0.148435  0.000274  1.027942  0.0  0.151789  0.000241  1.025004  0.0  0.109032  0.146372  0.000296  1.02972  0.0
H  H15  1  0.87425473  0.08635700  0.25671000  1  0.144599  0.000448  0.958998  0.0  0.148629  0.000354  1.02766  0.0  0.151861  0.000349  1.02491  0.0  0.109035  0.146632  0.000323  1.029253  0.0
H  H16  1  0.62489945  0.58534674  0.25713909  1  0.14458  0.000336  0.959983  0.0  0.14922  0.000233  1.027827  0.0  0.152544  0.000203  1.024933  0.0  0.109222  0.147045  0.000254  1.029777  0.0
H  H17  1  0.12519795  0.91381747  0.74298543  1  0.144882  -0.000269  0.960025  0.0  0.148829  -0.000227  1.028725  0.0  0.152203  -0.000194  1.025761  0.0  0.10898  0.146629  -0.000268  1.030735  0.0
H  H18  1  0.33370901  0.72771321  0.59385288  1  0.428278  0.000155  0.864587  0.001  0.405762  0.00038  0.925479  0.001  0.41709  0.000196  0.909376  0.001  0.296614  0.397365  0.000572  0.937177  0.002
H  H19  1  0.83428620  0.77267992  0.40624727  1  0.428402  -0.000223  0.863456  -0.001  0.405892  -0.000427  0.924895  -0.001  0.417065  -0.000201  0.909007  -0.001  0.297021  0.397625  -0.000708  0.936393  -0.002
H  H20  1  0.66425351  0.27520491  0.40583676  1  0.427159  -9.5e-05  0.864056  0.0  0.404595  -0.00089  0.926969  -0.002  0.415886  -0.000546  0.910964  -0.002  0.295697  0.396184  -0.001241  0.938619  -0.003
H  H21  1  0.16456826  0.22631093  0.59554171  1  0.432445  -0.000233  0.858644  0.0  0.408648  -0.001672  0.921319  -0.004  0.420017  -0.00109  0.905131  -0.003  0.29657  0.400258  -0.002194  0.933121  -0.005
C  C22  1  0.02872362  0.63923541  0.92043766  1  -0.255385  -0.000584  3.725409  -0.001  -0.275843  -0.000251  4.00537  0.0  -0.277196  -0.00034  4.022336  0.0  -0.126505  -0.274431  -0.00012  3.993868  0.0
C  C23  1  0.52901495  0.86042245  0.07919725  1  -0.255542  0.00034  3.723218  0.001  -0.275952  0.000132  4.003461  0.0  -0.277364  0.000223  4.020365  0.0  -0.126347  -0.274492  -9e-06  3.992014  0.0
C  C24  1  0.97142247  0.35992181  0.07982428  1  -0.256179  0.000241  3.725424  0.0  -0.276927  0.000122  4.006233  0.0  -0.27834  5e-05  4.023258  0.0  -0.126573  -0.275404  0.000232  3.994475  0.0
C  C25  1  0.47164644  0.13940817  0.92024593  1  -0.255208  0.000439  3.725385  0.001  -0.275917  0.000186  4.006202  0.0  -0.27729  0.000295  4.023215  0.0  -0.126151  -0.274556  2e-05  3.994795  0.0
C  C26  1  0.94497500  0.64903431  0.83640676  1  0.099959  0.000943  3.754622  0.001  0.106641  0.000785  4.023216  0.001  0.110471  0.000641  4.04611  0.001  -0.037641  0.10362  0.000954  4.008752  0.001
C  C27  1  0.44453952  0.85058081  0.16313911  1  0.099194  -0.00081  3.75422  -0.001  0.105936  -0.000755  4.02262  -0.001  0.10979  -0.000575  4.045504  -0.001  -0.037796  0.102884  -0.000959  4.008192  -0.001
C  C28  1  0.05533088  0.35007440  0.16383521  1  0.099645  0.000357  3.754547  0.001  0.106095  0.00043  4.023436  0.001  0.109896  0.000351  4.04635  0.0  -0.038258  0.103145  0.000493  4.008885  0.001
C  C29  1  0.55582859  0.14914496  0.83624393  1  0.099614  -0.000899  3.754342  -0.001  0.105998  -0.000821  4.022834  -0.001  0.109813  -0.000662  4.045757  -0.001  -0.038198  0.103028  -0.001004  4.008283  -0.002
C  C30  1  0.07027589  0.56159101  0.75799168  1  -0.299047  0.004263  3.811431  0.006  -0.264663  0.002945  4.052478  0.004  -0.276313  0.001973  4.073417  0.003  -0.052452  -0.25664  0.00411  4.039106  0.005
C  C31  1  0.56906385  0.93821889  0.24166766  1  -0.299509  -0.003961  3.811674  -0.006  -0.264245  -0.0029  4.051551  -0.004  -0.276013  -0.001825  4.072661  -0.003  -0.052517  -0.256204  -0.004197  4.038162  -0.006
C  C32  1  0.93027622  0.43746874  0.24231456  1  -0.299853  0.002227  3.809517  0.003  -0.264814  0.001718  4.050223  0.002  -0.276484  0.001358  4.071091  0.002  -0.052272  -0.256905  0.002156  4.037079  0.002
C  C33  1  0.43078733  0.06166342  0.75775299  1  -0.300675  -0.004647  3.810666  -0.007  -0.265147  -0.003226  4.050087  -0.004  -0.27679  -0.002153  4.071012  -0.003  -0.052552  -0.257019  -0.004547  4.036593  -0.006
C  C34  1  0.24947649  0.48700762  0.78660489  1  -0.132313  0.002809  3.678321  0.004  -0.156962  0.001905  3.953791  0.002  -0.153303  0.001501  3.969611  0.002  -0.095136  -0.159332  0.002356  3.943458  0.003
C  C35  1  0.74848398  0.01294793  0.21325295  1  -0.131318  -0.002394  3.678206  -0.003  -0.15643  -0.001798  3.953783  -0.002  -0.152798  -0.001281  3.969792  -0.002  -0.094442  -0.158825  -0.002342  3.943411  -0.003
C  C36  1  0.75102300  0.51211426  0.21376796  1  -0.131945  0.000258  3.677677  0.0  -0.157446  0.000349  3.953352  0.0  -0.153696  0.000256  3.969146  0.0  -0.095485  -0.159997  0.000537  3.943354  0.001
C  C37  1  0.25134654  0.98709921  0.78632655  1  -0.131916  -0.00292  3.678069  -0.004  -0.157411  -0.001966  3.954007  -0.003  -0.153801  -0.001503  3.96988  -0.002  -0.094993  -0.159756  -0.002524  3.943742  -0.003
S  S38  1  0.26355205  0.52311071  0.90496868  1  0.184004  0.000993  2.734885  0.001  0.189419  0.000989  3.093437  0.001  0.186783  0.000639  3.101143  0.001  0.080555  0.190916  0.001422  3.089501  0.002
S  S39  1  0.76363749  0.97674131  0.09491524  1  0.185324  -0.001018  2.735412  -0.001  0.190128  -0.001011  3.094527  -0.001  0.187495  -0.000624  3.102275  -0.001  0.080947  0.191617  -0.001499  3.090557  -0.002
S  S40  1  0.73666547  0.47607863  0.09540481  1  0.183839  -0.000199  2.733991  0.0  0.18902  -5.3e-05  3.093305  0.0  0.186479  -2.8e-05  3.100922  0.0  0.079866  0.190556  -5.5e-05  3.089388  0.0
S  S41  1  0.23679834  0.02326703  0.90468614  1  0.183638  -0.001036  2.734883  -0.001  0.189083  -0.001023  3.093829  -0.001  0.186355  -0.000648  3.101625  -0.001  0.079902  0.190522  -0.001517  3.089895  -0.002
Br  Br42  1  0.68798974  0.76932214  0.82742650  1  -0.017157  0.000212  1.393087  0.0  -0.006153  0.00082  1.678632  0.001  -0.012781  0.000616  1.674742  0.0  0.068788  -0.001154  0.001082  1.682821  0.001
Br  Br43  1  0.18767330  0.73001417  0.17185873  1  -0.016846  -0.000242  1.392344  0.0  -0.005869  -0.000869  1.677703  -0.001  -0.012506  -0.000597  1.673835  -0.001  0.068747  -0.000946  -0.001194  1.681838  -0.001
Br  Br44  1  0.31214881  0.22966202  0.17273000  1  -0.017988  -0.000518  1.393322  -0.001  -0.006385  -0.001223  1.678131  -0.001  -0.013156  -0.000857  1.674565  -0.001  0.068105  -0.001438  -0.001577  1.682344  -0.001
Br  Br45  1  0.81290157  0.26956202  0.82747884  1  -0.017136  -0.000334  1.392621  0.0  -0.005839  -0.001023  1.677672  -0.001  -0.012632  -0.000717  1.674102  -0.001  0.068238  -0.000757  -0.001399  1.681675  -0.001
O  O46  1  0.22777586  0.46732418  0.58216870  1  -0.84533  0.034527  2.072424  0.056  -0.791841  0.024291  2.367753  0.035  -0.828791  0.019522  2.345699  0.027  -0.3626  -0.759117  0.029723  2.379458  0.045
O  O47  1  0.72369578  0.03358081  0.41763717  1  -0.850043  -0.037956  2.080046  -0.062  -0.796069  -0.03146  2.374789  -0.044  -0.832722  -0.025084  2.352273  -0.034  -0.363177  -0.765007  -0.03805  2.38848  -0.055
O  O48  1  0.77394598  0.53366767  0.41759770  1  -0.849561  0.034344  2.081238  0.055  -0.796571  0.026395  2.379008  0.036  -0.833948  0.021969  2.356743  0.029  -0.364327  -0.762989  0.03118  2.389864  0.045
O  O49  1  0.27291284  0.96742136  0.58218720  1  -0.846997  -0.039546  2.07705  -0.065  -0.794038  -0.029738  2.371944  -0.043  -0.831337  -0.023367  2.350259  -0.033  -0.363896  -0.761762  -0.03703  2.384364  -0.056
O  O50  1  0.75459205  0.48487274  0.61064663  1  -0.887236  -0.01301  2.140301  -0.017  -0.838396  -0.01047  2.463072  -0.012  -0.882052  -0.008137  2.436805  -0.008  -0.366608  -0.799676  -0.011044  2.478564  -0.012
O  O51  1  0.25096297  0.01426134  0.38836891  1  -0.885404  -0.067771  2.142485  -0.11  -0.838659  -0.056088  2.466663  -0.079  -0.882694  -0.045321  2.439951  -0.061  -0.367033  -0.799577  -0.066963  2.483084  -0.096
O  O52  1  0.24670690  0.51647925  0.38912633  1  -0.884554  -0.012973  2.133058  -0.019  -0.834674  -0.009998  2.453785  -0.012  -0.878147  -0.007907  2.42718  -0.008  -0.366337  -0.796391  -0.010335  2.470066  -0.012
O  O53  1  0.74606813  0.98394620  0.61027593  1  -0.88442  0.011286  2.13574  0.015  -0.834724  0.009259  2.455883  0.01  -0.878261  0.007823  2.429286  0.008  -0.36569  -0.796115  0.008363  2.472147  0.008
O  O54  1  0.01676696  0.69584498  0.63342092  1  -0.872085  0.036776  2.086935  0.055  -0.807961  0.030573  2.389725  0.038  -0.846762  0.025022  2.360295  0.029  -0.371047  -0.774487  0.034706  2.411155  0.044
O  O55  1  0.51525515  0.80421945  0.36637454  1  -0.869532  -0.044288  2.085083  -0.068  -0.806042  -0.035903  2.388443  -0.047  -0.844615  -0.028537  2.358948  -0.035  -0.370606  -0.772962  -0.0422  2.4095  -0.057
O  O56  1  0.98559575  0.30524588  0.36852164  1  -0.872859  -0.044882  2.0796  -0.068  -0.809372  -0.036822  2.381501  -0.048  -0.847558  -0.029633  2.351584  -0.036  -0.37055  -0.776702  -0.042851  2.40368  -0.057
O  O57  1  0.48525585  0.19549225  0.63286280  1  -0.873982  -0.037155  2.084543  -0.057  -0.810244  -0.031344  2.38653  -0.04  -0.848616  -0.0253  2.356972  -0.03  -0.371182  -0.777623  -0.036192  2.408671  -0.047
O  O58  1  0.46438525  0.70438438  0.54499427  1  -0.983541  0.033533  2.120427  0.06  -0.967159  0.027085  2.44872  0.04  -1.025512  0.02329  2.406518  0.032  -0.561489  -0.912162  0.029949  2.478214  0.046
O  O59  1  0.96455031  0.79689149  0.45516535  1  -0.98128  -0.03638  2.112674  -0.063  -0.964851  -0.027864  2.440428  -0.04  -1.02305  -0.023517  2.398604  -0.032  -0.561362  -0.910487  -0.03239  2.469463  -0.048
O  O60  1  0.53232151  0.29826244  0.45422235  1  -0.980301  -0.067966  2.108389  -0.111  -0.965263  -0.049816  2.434162  -0.07  -1.023342  -0.038202  2.392562  -0.05  -0.560686  -0.910483  -0.061518  2.464169  -0.091
O  O61  1  0.03379860  0.20284058  0.54679846  1  -0.984951  -0.132775  2.112633  -0.224  -0.973777  -0.102285  2.441117  -0.148  -1.030158  -0.083058  2.39755  -0.115  -0.564402  -0.922548  -0.120603  2.473567  -0.181
