# generated using pymatgen
data_AgH2(CN)4
_symmetry_space_group_name_H-M   'P 1'
_cell_length_a   6.88109123
_cell_length_b   7.59138752
_cell_length_c   10.44046734
_cell_angle_alpha   81.41828970
_cell_angle_beta   70.78283129
_cell_angle_gamma   63.05188780
_symmetry_Int_Tables_number   1
_chemical_formula_structural   AgH2(CN)4
_chemical_formula_sum   'Ag4 H8 C16 N16'
_cell_volume   459.07035135
_cell_formula_units_Z   4
loop_
 _symmetry_equiv_pos_site_id
 _symmetry_equiv_pos_as_xyz
  1  'x, y, z'
loop_
 _atom_site_type_symbol
 _atom_site_label
 _atom_site_symmetry_multiplicity
 _atom_site_fract_x
 _atom_site_fract_y
 _atom_site_fract_z
 _atom_site_occupancy
 _atom_site_hle17_bader_spin_density
 _atom_site_hle17_ddec_charge
 _atom_site_hle17_ddec_spin_density
 _atom_site_hle17_ddec_sum_bond_order
 _atom_site_hle17_magmom
 _atom_site_hse06_10hf_bader_spin_density
 _atom_site_hse06_10hf_ddec_charge
 _atom_site_hse06_10hf_ddec_spin_density
 _atom_site_hse06_10hf_ddec_sum_bond_order
 _atom_site_hse06_10hf_magmom
 _atom_site_hse06_bader_spin_density
 _atom_site_hse06_ddec_charge
 _atom_site_hse06_ddec_spin_density
 _atom_site_hse06_ddec_sum_bond_order
 _atom_site_hse06_magmom
 _atom_site_pbe_bader_spin_density
 _atom_site_pbe_cm5_charge
 _atom_site_pbe_ddec_charge
 _atom_site_pbe_ddec_spin_density
 _atom_site_pbe_ddec_sum_bond_order
 _atom_site_pbe_magmom
Ag  Ag0  1  0.52460772  0.75003427  0.45057213  1  0  0.465027  0  1.495444  0  0  0.306771  0  1.958904  0  0  0.331597  0  1.918042  0  0  0.491094  0.290964  0  1.985623  0
Ag  Ag1  1  0.72514866  0.75000152  0.04950614  1  0  0.464235  0  1.495556  0  0  0.305854  0  1.958891  0  0  0.330719  0  1.917994  0  0  0.490829  0.290007  0  1.985668  0
Ag  Ag2  1  0.47539031  0.24996540  0.54942388  1  0  0.465049  0  1.495387  0  0  0.306787  0  1.958836  0  0  0.331598  0  1.917994  0  0  0.491088  0.290976  0  1.985559  0
Ag  Ag3  1  0.27484674  0.24999814  0.95049402  1  0  0.464356  0  1.495549  0  0  0.306003  0  1.958872  0  0  0.33087  0  1.917968  0  0  0.490863  0.290152  0  1.985661  0
H  H4  1  0.92115611  0.93068890  0.46845422  1  0  0.092793  0  0.985197  0  0  0.098749  0  1.058289  0  0  0.10216  0  1.055414  0  0  0.097537  0.096353  0  1.060294  0
H  H5  1  0.14822569  0.93059205  0.03155076  1  0  0.092626  0  0.985394  0  0  0.09861  0  1.058474  0  0  0.101956  0  1.055621  0  0  0.09728  0.096262  0  1.060445  0
H  H6  1  0.32063102  0.56930098  0.03150073  1  0  0.092882  0  0.985538  0  0  0.09891  0  1.058791  0  0  0.102257  0  1.055968  0  0  0.097537  0.096679  0  1.060443  0
H  H7  1  0.11009528  0.56925528  0.46858591  1  0  0.092772  0  0.985089  0  0  0.098424  0  1.058672  0  0  0.101834  0  1.055772  0  0  0.097241  0.096184  0  1.060361  0
H  H8  1  0.07885064  0.06930633  0.53154605  1  0  0.092841  0  0.985126  0  0  0.09882  0  1.058197  0  0  0.10224  0  1.055308  0  0  0.097565  0.096423  0  1.060204  0
H  H9  1  0.85177906  0.06940909  0.96844856  1  0  0.092637  0  0.985402  0  0  0.098626  0  1.058486  0  0  0.101972  0  1.055633  0  0  0.097294  0.096277  0  1.060458  0
H  H10  1  0.67937114  0.43069573  0.96849724  1  0  0.09285  0  0.985576  0  0  0.098902  0  1.058802  0  0  0.102248  0  1.055977  0  0  0.097537  0.096658  0  1.060469  0
H  H11  1  0.88990307  0.43073847  0.53141425  1  0  0.092751  0  0.985089  0  0  0.098412  0  1.05867  0  0  0.101819  0  1.055772  0  0  0.097236  0.09617  0  1.06036  0
C  C12  1  0.01174233  0.85241972  0.37224723  1  0  -0.095891  0  3.750015  0  0  -0.120246  0  4.01102  0  0  -0.121359  0  4.028313  0  0  -0.092229  -0.119759  0  3.999156  0
C  C13  1  0.13608504  0.85240471  0.12777554  1  0  -0.096492  0  3.748976  0  0  -0.120756  0  4.009696  0  0  -0.121903  0  4.027276  0  0  -0.092731  -0.120317  0  3.997793  0
C  C14  1  0.23647042  0.64738463  0.12778938  1  0  -0.095906  0  3.749276  0  0  -0.120802  0  4.010094  0  0  -0.121905  0  4.027477  0  0  -0.091664  -0.120247  0  3.99786  0
C  C15  1  0.11631988  0.64739378  0.37229843  1  0  -0.096425  0  3.750031  0  0  -0.120856  0  4.0105  0  0  -0.122049  0  4.02803  0  0  -0.091971  -0.120245  0  3.9981  0
C  C16  1  0.98826919  0.14757847  0.62774990  1  0  -0.095856  0  3.749883  0  0  -0.120244  0  4.01089  0  0  -0.12136  0  4.028171  0  0  -0.09223  -0.119754  0  3.999018  0
C  C17  1  0.86391228  0.14759495  0.87222271  1  0  -0.096465  0  3.749015  0  0  -0.120741  0  4.009738  0  0  -0.121891  0  4.027319  0  0  -0.09272  -0.120301  0  3.997831  0
C  C18  1  0.76352378  0.35261503  0.87221045  1  0  -0.095893  0  3.749257  0  0  -0.120805  0  4.010088  0  0  -0.121914  0  4.027494  0  0  -0.091664  -0.120241  0  3.997864  0
C  C19  1  0.88369120  0.35260145  0.62770061  1  0  -0.096453  0  3.749976  0  0  -0.120842  0  4.010395  0  0  -0.122047  0  4.027955  0  0  -0.091984  -0.12023  0  3.997994  0
C  C20  1  0.02078751  0.95862915  0.25000666  1  0  0.012102  0  3.789489  0  0  0.026202  0  4.024995  0  0  0.024987  0  4.047788  0  0  -0.007963  0.027461  0  4.010033  0
C  C21  1  0.22943069  0.54120330  0.25004594  1  0  0.011671  0  3.791386  0  0  0.027291  0  4.025505  0  0  0.026099  0  4.048287  0  0  -0.00824  0.028522  0  4.010264  0
C  C22  1  0.97921582  0.04137051  0.74999327  1  0  0.011998  0  3.789438  0  0  0.026118  0  4.024955  0  0  0.024889  0  4.047733  0  0  -0.007982  0.027386  0  4.009997  0
C  C23  1  0.77056567  0.45879636  0.74995327  1  0  0.011694  0  3.791248  0  0  0.027297  0  4.025441  0  0  0.026104  0  4.048213  0  0  -0.008248  0.028528  0  4.010199  0
C  C24  1  0.91292534  0.17430919  0.24999592  1  0  0.273489  0  3.749525  0  0  0.251109  0  4.007801  0  0  0.26002  0  4.027198  0  0  0.213373  0.244779  0  3.995456  0
C  C25  1  0.33733951  0.32554944  0.24997532  1  0  0.273745  0  3.750093  0  0  0.249865  0  4.009993  0  0  0.25869  0  4.029397  0  0  0.213468  0.243521  0  3.997176  0
C  C26  1  0.08707852  0.82568604  0.75000722  1  0  0.273509  0  3.749449  0  0  0.251105  0  4.007775  0  0  0.260072  0  4.027093  0  0  0.213259  0.244747  0  3.995466  0
C  C27  1  0.66266295  0.67444283  0.75002456  1  0  0.273702  0  3.750205  0  0  0.249767  0  4.010189  0  0  0.258593  0  4.029592  0  0  0.213416  0.243423  0  3.997374  0
N  N28  1  0.76974804  0.28911357  0.36028934  1  0  -0.28552  0  3.090219  0  0  -0.230594  0  3.375526  0  0  -0.244818  0  3.390212  0  0  -0.227899  -0.22152  0  3.365602  0
N  N29  1  0.94121419  0.28917799  0.13971120  1  0  -0.287464  0  3.090342  0  0  -0.232784  0  3.375843  0  0  -0.247019  0  3.39052  0  0  -0.228681  -0.223687  0  3.365898  0
N  N30  1  0.41928298  0.21075167  0.13966825  1  0  -0.28763  0  3.090992  0  0  -0.232838  0  3.376865  0  0  -0.246895  0  3.391456  0  0  -0.228715  -0.222949  0  3.367027  0
N  N31  1  0.37013058  0.21080112  0.36030229  1  0  -0.287742  0  3.090837  0  0  -0.233059  0  3.37698  0  0  -0.247118  0  3.39159  0  0  -0.229225  -0.22318  0  3.367154  0
N  N32  1  0.23025194  0.71088461  0.63971313  1  0  -0.285556  0  3.090258  0  0  -0.230621  0  3.37557  0  0  -0.244863  0  3.390242  0  0  -0.227875  -0.221538  0  3.365655  0
N  N33  1  0.05878581  0.71081872  0.86029352  1  0  -0.287305  0  3.090376  0  0  -0.232623  0  3.375875  0  0  -0.246877  0  3.390539  0  0  -0.228529  -0.223518  0  3.365939  0
N  N34  1  0.58072164  0.78924060  0.86033101  1  0  -0.287483  0  3.091061  0  0  -0.232648  0  3.376907  0  0  -0.246706  0  3.391502  0  0  -0.228609  -0.222759  0  3.367068  0
N  N35  1  0.62986990  0.78919558  0.63969889  1  0  -0.287713  0  3.090897  0  0  -0.233009  0  3.377047  0  0  -0.247071  0  3.391663  0  0  -0.229182  -0.223131  0  3.367221  0
N  N36  1  0.71132936  0.47591240  0.31607746  1  0  -0.086418  0  3.198811  0  0  -0.039632  0  3.508395  0  0  -0.043986  0  3.519953  0  0  -0.125266  -0.036879  0  3.500761  0
N  N37  1  0.81288944  0.47594718  0.18396288  1  0  -0.083589  0  3.197148  0  0  -0.036307  0  3.506165  0  0  -0.040668  0  3.517736  0  0  -0.124694  -0.033541  0  3.498503  0
N  N38  1  0.50333859  0.02398716  0.18395306  1  0  -0.083892  0  3.197677  0  0  -0.036729  0  3.506638  0  0  -0.041065  0  3.518186  0  0  -0.124571  -0.033972  0  3.499422  0
N  N39  1  0.47276368  0.02401682  0.31609009  1  0  -0.084421  0  3.197303  0  0  -0.037254  0  3.506333  0  0  -0.041592  0  3.517882  0  0  -0.12452  -0.034504  0  3.499136  0
N  N40  1  0.28866605  0.52408578  0.68392495  1  0  -0.086343  0  3.198866  0  0  -0.039558  0  3.508417  0  0  -0.043912  0  3.519982  0  0  -0.125206  -0.036802  0  3.500782  0
N  N41  1  0.18710671  0.52404953  0.81603954  1  0  -0.083801  0  3.19741  0  0  -0.036509  0  3.506425  0  0  -0.04087  0  3.517999  0  0  -0.124817  -0.033744  0  3.498764  0
N  N42  1  0.49666120  0.97600660  0.81604873  1  0  -0.084068  0  3.197754  0  0  -0.03694  0  3.506755  0  0  -0.041275  0  3.518299  0  0  -0.124683  -0.034182  0  3.499539  0
N  N43  1  0.52723538  0.97597841  0.68391170  1  0  -0.084401  0  3.197224  0  0  -0.037223  0  3.50624  0  0  -0.04156  0  3.517788  0  0  -0.124517  -0.034471  0  3.499041  0
