# generated using pymatgen
data_Zn2H24C28N4O11
_symmetry_space_group_name_H-M   'P 1'
_cell_length_a   9.49932179
_cell_length_b   11.85604908
_cell_length_c   15.12077461
_cell_angle_alpha   98.09577044
_cell_angle_beta   106.73461050
_cell_angle_gamma   109.57545518
_symmetry_Int_Tables_number   1
_chemical_formula_structural   Zn2H24C28N4O11
_chemical_formula_sum   'Zn4 H48 C56 N8 O22'
_cell_volume   1482.49163695
_cell_formula_units_Z   2
loop_
 _symmetry_equiv_pos_site_id
 _symmetry_equiv_pos_as_xyz
  1  'x, y, z'
loop_
 _atom_site_type_symbol
 _atom_site_label
 _atom_site_symmetry_multiplicity
 _atom_site_fract_x
 _atom_site_fract_y
 _atom_site_fract_z
 _atom_site_occupancy
 _atom_site_hle17_bader_spin_density
 _atom_site_hle17_ddec_charge
 _atom_site_hle17_ddec_spin_density
 _atom_site_hle17_ddec_sum_bond_order
 _atom_site_hle17_magmom
 _atom_site_hse06_10hf_bader_spin_density
 _atom_site_hse06_10hf_ddec_charge
 _atom_site_hse06_10hf_ddec_spin_density
 _atom_site_hse06_10hf_ddec_sum_bond_order
 _atom_site_hse06_10hf_magmom
 _atom_site_hse06_bader_spin_density
 _atom_site_hse06_ddec_charge
 _atom_site_hse06_ddec_spin_density
 _atom_site_hse06_ddec_sum_bond_order
 _atom_site_hse06_magmom
 _atom_site_pbe_bader_spin_density
 _atom_site_pbe_cm5_charge
 _atom_site_pbe_ddec_charge
 _atom_site_pbe_ddec_spin_density
 _atom_site_pbe_ddec_sum_bond_order
 _atom_site_pbe_magmom
Zn  Zn0  1  0.45434479  0.50561089  0.36491101  1  0  1.079353  0  1.834285  0  0  0.903129  0  2.312964  0  0  0.949583  0  2.25414  0  0  0.701806  0.870418  0  2.3539  0
Zn  Zn1  1  0.54565432  0.49438822  0.63508622  1  0  1.079341  0  1.834276  0  0  0.90311  0  2.312932  0  0  0.949568  0  2.254106  0  0  0.701785  0.8704  0  2.35386  0
Zn  Zn2  1  0.48884434  0.93455300  0.86352110  1  0  1.085287  0  1.811744  0  0  0.907874  0  2.288232  0  0  0.954722  0  2.229287  0  0  0.702025  0.874979  0  2.329251  0
Zn  Zn3  1  0.51115585  0.06544608  0.13647962  1  0  1.085346  0  1.811636  0  0  0.907928  0  2.288112  0  0  0.954782  0  2.229169  0  0  0.702077  0.875035  0  2.329137  0
H  H4  1  0.97154279  0.29282337  0.33411592  1  0  0.104885  0  0.97139  0  0  0.110242  0  1.044078  0  0  0.114258  0  1.040694  0  0  0.105005  0.107337  0  1.046573  0
H  H5  1  0.02845712  0.70717944  0.66588187  1  0  0.104928  0  0.971396  0  0  0.110221  0  1.044151  0  0  0.114238  0  1.040765  0  0  0.10499  0.107313  0  1.046643  0
H  H6  1  0.96347877  0.54793420  0.75823816  1  0  0.081443  0  0.917902  0  0  0.09344  0  0.981836  0  0  0.093732  0  0.981098  0  0  0.109889  0.093211  0  0.982438  0
H  H7  1  0.03652395  0.45206768  0.24176202  1  0  0.081441  0  0.917866  0  0  0.093436  0  0.981817  0  0  0.093729  0  0.98108  0  0  0.10988  0.093209  0  0.982419  0
H  H8  1  0.13099571  0.54940733  0.72620171  1  0  0.072047  0  0.944535  0  0  0.086074  0  1.006833  0  0  0.086011  0  1.006902  0  0  0.109548  0.086086  0  1.00678  0
H  H9  1  0.86900591  0.45059453  0.27379959  1  0  0.072029  0  0.94454  0  0  0.08603  0  1.006878  0  0  0.085967  0  1.006948  0  0  0.109549  0.086048  0  1.006824  0
H  H10  1  0.69328883  0.25925124  0.51589569  1  0  0.114773  0  0.959219  0  0  0.121013  0  1.028687  0  0  0.124972  0  1.025621  0  0  0.107323  0.118397  0  1.03056  0
H  H11  1  0.30671546  0.74075155  0.48410621  1  0  0.114839  0  0.959291  0  0  0.121088  0  1.028738  0  0  0.125045  0  1.025673  0  0  0.107335  0.118474  0  1.030607  0
H  H12  1  0.20525839  0.46930765  0.63535817  1  0  0.124347  0  0.954377  0  0  0.132046  0  1.019364  0  0  0.136382  0  1.015521  0  0  0.110483  0.129028  0  1.022045  0
H  H13  1  0.79474511  0.53069144  0.36464052  1  0  0.124418  0  0.954335  0  0  0.132079  0  1.019362  0  0  0.136417  0  1.015519  0  0  0.110481  0.129065  0  1.022039  0
H  H14  1  0.51516655  0.28943348  0.12900855  1  0  0.103948  0  0.973363  0  0  0.10986  0  1.046886  0  0  0.114216  0  1.042629  0  0  0.103913  0.106713  0  1.049952  0
H  H15  1  0.48482954  0.71056190  0.87098969  1  0  0.103928  0  0.973381  0  0  0.109842  0  1.046901  0  0  0.114203  0  1.042632  0  0  0.103891  0.106693  0  1.049967  0
H  H16  1  0.33802496  0.24486786  0.82348777  1  0  0.117876  0  0.955538  0  0  0.125232  0  1.023472  0  0  0.129329  0  1.02026  0  0  0.109499  0.12227  0  1.025897  0
H  H17  1  0.66197509  0.75513309  0.17651183  1  0  0.117857  0  0.955522  0  0  0.125204  0  1.02347  0  0  0.129301  0  1.020258  0  0  0.109506  0.122239  0  1.025896  0
H  H18  1  0.62942937  0.98357568  0.59897406  1  0  0.110764  0  0.935825  0  0  0.124271  0  0.99801  0  0  0.125901  0  0.996639  0  0  0.119726  0.123008  0  0.999072  0
H  H19  1  0.37057035  0.01642248  0.40102516  1  0  0.110754  0  0.935795  0  0  0.124273  0  0.997985  0  0  0.125903  0  0.996614  0  0  0.119708  0.123006  0  0.999052  0
H  H20  1  0.67825751  0.07275990  0.51785030  1  0  0.089107  0  0.951259  0  0  0.102323  0  1.01913  0  0  0.102585  0  1.019701  0  0  0.116572  0.102118  0  1.018651  0
H  H21  1  0.32174330  0.92723825  0.48214978  1  0  0.089045  0  0.95129  0  0  0.102316  0  1.019128  0  0  0.102586  0  1.019682  0  0  0.116572  0.102107  0  1.018658  0
H  H22  1  0.61027360  0.74589268  0.54990407  1  0  0.118056  0  0.928369  0  0  0.125209  0  0.993065  0  0  0.128179  0  0.989309  0  0  0.144053  0.123068  0  0.995686  0
H  H23  1  0.38972453  0.25410455  0.45009541  1  0  0.118114  0  0.928355  0  0  0.125272  0  0.993047  0  0  0.128241  0  0.989291  0  0  0.144071  0.123129  0  0.995672  0
H  H24  1  0.21997143  0.47622072  0.01389707  1  0  0.115714  0  0.964416  0  0  0.12174  0  1.031543  0  0  0.126428  0  1.02743  0  0  0.106736  0.118333  0  1.034582  0
H  H25  1  0.78002704  0.52377929  0.98610345  1  0  0.115739  0  0.96448  0  0  0.121783  0  1.031563  0  0  0.126471  0  1.02745  0  0  0.106764  0.118363  0  1.034625  0
H  H26  1  0.94107853  0.04259265  0.55718022  1  0  0.046276  0  0.916239  0  0  0.059893  0  0.980906  0  0  0.061063  0  0.979754  0  0  0.095465  0.05915  0  0.981368  0
H  H27  1  0.05892198  0.95740922  0.44282022  1  0  0.046302  0  0.916288  0  0  0.05992  0  0.980955  0  0  0.061093  0  0.979796  0  0  0.095479  0.059176  0  0.981416  0
H  H28  1  0.91894358  0.13095745  0.65467566  1  0  0.062554  0  0.918434  0  0  0.076977  0  0.97997  0  0  0.078098  0  0.978965  0  0  0.103926  0.076073  0  0.98077  0
H  H29  1  0.08105551  0.86904163  0.34532487  1  0  0.062543  0  0.918429  0  0  0.076971  0  0.979965  0  0  0.07809  0  0.978962  0  0  0.103913  0.076067  0  0.980767  0
H  H30  1  0.59505002  0.96269298  0.35042561  1  0  0.123144  0  0.991531  0  0  0.131565  0  1.054014  0  0  0.134487  0  1.052291  0  0  0.12069  0.129405  0  1.055443  0
H  H31  1  0.40495519  0.03730518  0.64957395  1  0  0.123156  0  0.991586  0  0  0.13157  0  1.054074  0  0  0.134493  0  1.052352  0  0  0.120702  0.129408  0  1.055505  0
H  H32  1  0.83645004  0.15371866  0.98339097  1  0  0.113496  0  0.942327  0  0  0.125968  0  0.995309  0  0  0.128426  0  0.994158  0  0  0.121608  0.124152  0  0.996286  0
H  H33  1  0.16354384  0.84627671  0.01660885  1  0  0.113462  0  0.942329  0  0  0.125936  0  0.995311  0  0  0.128395  0  0.994158  0  0  0.121598  0.124118  0  0.996291  0
H  H34  1  0.69476183  0.81305281  0.78311111  1  0  0.115806  0  0.930395  0  0  0.123536  0  0.99436  0  0  0.126223  0  0.991045  0  0  0.143564  0.12149  0  0.996838  0
H  H35  1  0.30524006  0.18694533  0.21689247  1  0  0.115835  0  0.9303  0  0  0.12359  0  0.994249  0  0  0.126276  0  0.990935  0  0  0.143578  0.121537  0  0.99674  0
H  H36  1  0.10326194  0.14175102  0.94631781  1  0  0.112248  0  0.982683  0  0  0.119514  0  1.050402  0  0  0.120298  0  1.05293  0  0  0.118107  0.11906  0  1.048437  0
H  H37  1  0.89673604  0.85824805  0.05368384  1  0  0.112244  0  0.982733  0  0  0.11953  0  1.050424  0  0  0.12032  0  1.052946  0  0  0.118118  0.119074  0  1.048465  0
H  H38  1  0.17435024  0.55223008  0.89483936  1  0  0.062416  0  0.915638  0  0  0.080978  0  0.972249  0  0  0.080331  0  0.972555  0  0  0.107922  0.081398  0  0.972073  0
H  H39  1  0.82565091  0.44777087  0.10515978  1  0  0.062408  0  0.915671  0  0  0.080944  0  0.972291  0  0  0.080296  0  0.972594  0  0  0.107904  0.081369  0  0.97212  0
H  H40  1  0.00252519  0.40906807  0.86104554  1  0  0.068893  0  0.903558  0  0  0.083923  0  0.96154  0  0  0.084555  0  0.960503  0  0  0.108545  0.083445  0  0.962338  0
H  H41  1  0.99747690  0.59093472  0.13895530  1  0  0.068911  0  0.903548  0  0  0.083935  0  0.961514  0  0  0.084567  0  0.960471  0  0  0.108535  0.083461  0  0.962313  0
H  H42  1  0.10025829  0.08502207  0.75786605  1  0  0.04824  0  0.946675  0  0  0.061417  0  1.01647  0  0  0.061801  0  1.01576  0  0  0.099266  0.061125  0  1.016855  0
H  H43  1  0.89974031  0.91497608  0.24213561  1  0  0.04826  0  0.946697  0  0  0.061419  0  1.016469  0  0  0.061802  0  1.015763  0  0  0.099268  0.061131  0  1.016855  0
H  H44  1  0.11979685  0.95374566  0.69676989  1  0  0.058827  0  0.930561  0  0  0.07137  0  0.997614  0  0  0.0714  0  0.997938  0  0  0.099468  0.07123  0  0.997544  0
H  H45  1  0.88020490  0.04625433  0.30323321  1  0  0.058866  0  0.930543  0  0  0.071382  0  0.997588  0  0  0.071411  0  0.997913  0  0  0.099468  0.071247  0  0.997517  0
H  H46  1  0.95731752  0.81957805  0.77662419  1  0  0.10181  0  0.90155  0  0  0.119559  0  0.957191  0  0  0.120468  0  0.956404  0  0  0.1248  0.118775  0  0.957875  0
H  H47  1  0.04268815  0.18042101  0.22337886  1  0  0.101808  0  0.901602  0  0  0.119571  0  0.957225  0  0  0.12048  0  0.956437  0  0  0.124798  0.118789  0  0.95791  0
H  H48  1  0.13848904  0.93947749  0.86018908  1  0  0.093857  0  0.916533  0  0  0.110413  0  0.977163  0  0  0.110535  0  0.977635  0  0  0.117226  0.109943  0  0.977422  0
H  H49  1  0.86151257  0.06052437  0.13981288  1  0  0.093866  0  0.916521  0  0  0.110404  0  0.977165  0  0  0.110526  0  0.977637  0  0  0.117218  0.10994  0  0.977417  0
H  H50  1  0.47120783  0.71230374  0.25250159  1  0  0.116307  0  0.963347  0  0  0.126001  0  1.020724  0  0  0.128421  0  1.019625  0  0  0.119506  0.124159  0  1.021831  0
H  H51  1  0.52879299  0.28769442  0.74749783  1  0  0.116357  0  0.963273  0  0  0.126016  0  1.020702  0  0  0.128435  0  1.019605  0  0  0.119516  0.124173  0  1.021813  0
C  C52  1  0.66874657  0.18747161  0.33050049  1  0  0.638842  0  3.922518  0  0  0.593757  0  4.209099  0  0  0.627666  0  4.201163  0  0  0.20352  0.570613  0  4.214042  0
C  C53  1  0.33125271  0.81253213  0.66949862  1  0  0.638848  0  3.92251  0  0  0.593773  0  4.209083  0  0  0.627681  0  4.201148  0  0  0.203538  0.570625  0  4.214034  0
C  C54  1  0.96441721  0.31129251  0.40466034  1  0  -0.090971  0  3.734126  0  0  -0.134751  0  3.991045  0  0  -0.132461  0  4.010217  0  0  -0.091697  -0.135721  0  3.977905  0
C  C55  1  0.03558412  0.68871309  0.59533935  1  0  -0.091003  0  3.733978  0  0  -0.134725  0  3.990883  0  0  -0.132436  0  4.010056  0  0  -0.091683  -0.135688  0  3.977729  0
C  C56  1  0.10202815  0.38566550  0.48373362  1  0  -0.060772  0  3.810173  0  0  -0.033863  0  4.045315  0  0  -0.043258  0  4.070746  0  0  -0.023066  -0.027925  0  4.028276  0
C  C57  1  0.89796957  0.61433732  0.51626312  1  0  -0.060784  0  3.810233  0  0  -0.033867  0  4.045355  0  0  -0.04326  0  4.070787  0  0  -0.02307  -0.027926  0  4.028305  0
C  C58  1  0.81701077  0.26436376  0.41602578  1  0  -0.054716  0  3.793307  0  0  -0.028527  0  4.027911  0  0  -0.036651  0  4.050872  0  0  -0.022474  -0.023463  0  4.01264  0
C  C59  1  0.18299056  0.73564183  0.58397391  1  0  -0.054648  0  3.793232  0  0  -0.02846  0  4.02785  0  0  -0.036584  0  4.050813  0  0  -0.022468  -0.023401  0  4.012588  0
C  C60  1  0.43059402  0.25436764  0.97411224  1  0  -0.071664  0  3.807408  0  0  -0.046109  0  4.046243  0  0  -0.05425  0  4.069619  0  0  -0.028028  -0.040812  0  4.030406  0
C  C61  1  0.56940129  0.74563052  0.02588684  1  0  -0.071604  0  3.807264  0  0  -0.046093  0  4.04613  0  0  -0.054234  0  4.069506  0  0  -0.028006  -0.040796  0  4.030287  0
C  C62  1  0.03386452  0.49370741  0.74694012  1  0  0.06363  0  3.60949  0  0  0.001111  0  3.8827  0  0  0.008998  0  3.886681  0  0  -0.065187  -0.004373  0  3.879977  0
C  C63  1  0.96613663  0.50629354  0.25305902  1  0  0.063747  0  3.609313  0  0  0.001226  0  3.882542  0  0  0.009107  0  3.886526  0  0  -0.065122  -0.004258  0  3.87983  0
C  C64  1  0.94714387  0.36386745  0.58673403  1  0  0.261949  0  3.812599  0  0  0.256029  0  4.078785  0  0  0.264089  0  4.095751  0  0  0.084515  0.250121  0  4.067532  0
C  C65  1  0.05285871  0.63613628  0.41326502  1  0  0.261881  0  3.81265  0  0  0.256011  0  4.078797  0  0  0.264073  0  4.095765  0  0  0.084517  0.250105  0  4.067551  0
C  C66  1  0.80863138  0.29099690  0.50691214  1  0  -0.156283  0  3.689601  0  0  -0.192368  0  3.945288  0  0  -0.192691  0  3.962363  0  0  -0.089298  -0.191803  0  3.933604  0
C  C67  1  0.19137057  0.70900776  0.49308755  1  0  -0.156344  0  3.689793  0  0  -0.192478  0  3.945543  0  0  -0.192802  0  3.962621  0  0  -0.089287  -0.191913  0  3.933869  0
C  C68  1  0.09518898  0.41146440  0.57530097  1  0  -0.176388  0  3.694756  0  0  -0.21044  0  3.944154  0  0  -0.211554  0  3.962927  0  0  -0.091384  -0.209466  0  3.931655  0
C  C69  1  0.90481469  0.58853933  0.42469894  1  0  -0.176498  0  3.694844  0  0  -0.210531  0  3.944242  0  0  -0.211642  0  3.963005  0  0  -0.091397  -0.209564  0  3.931748  0
C  C70  1  0.44516167  0.30856579  0.06659466  1  0  -0.106618  0  3.736475  0  0  -0.150304  0  3.996517  0  0  -0.149235  0  4.01631  0  0  -0.095662  -0.150815  0  3.98291  0
C  C71  1  0.55483537  0.69143145  0.93340397  1  0  -0.106633  0  3.736452  0  0  -0.150314  0  3.996515  0  0  -0.149242  0  4.016308  0  0  -0.095638  -0.150814  0  3.982901  0
C  C72  1  0.34737330  0.28553895  0.89520049  1  0  -0.166269  0  3.681571  0  0  -0.204009  0  3.940693  0  0  -0.204209  0  3.956014  0  0  -0.090093  -0.20368  0  3.930341  0
C  C73  1  0.65262833  0.71446292  0.10479949  1  0  -0.166321  0  3.681533  0  0  -0.204041  0  3.94064  0  0  -0.204244  0  3.955964  0  0  -0.090126  -0.203711  0  3.930292  0
C  C74  1  0.36660393  0.38658308  0.07875392  1  0  -0.035317  0  3.788018  0  0  -0.008205  0  4.019211  0  0  -0.015154  0  4.042642  0  0  -0.019572  -0.003777  0  4.003311  0
C  C75  1  0.63339453  0.61341694  0.92124593  1  0  -0.035297  0  3.788115  0  0  -0.008192  0  4.019318  0  0  -0.015142  0  4.04275  0  0  -0.019574  -0.00377  0  4.003428  0
C  C76  1  0.69590034  0.99921501  0.55019280  1  0  -0.046347  0  3.62049  0  0  -0.111985  0  3.879219  0  0  -0.108663  0  3.889623  0  0  -0.056443  -0.114154  0  3.872119  0
C  C77  1  0.30410047  0.00078315  0.44980662  1  0  -0.04622  0  3.620384  0  0  -0.111938  0  3.879166  0  0  -0.10861  0  3.889562  0  0  -0.05642  -0.114112  0  3.872083  0
C  C78  1  0.37007054  0.43907017  0.17592175  1  0  0.620092  0  3.943289  0  0  0.575673  0  4.228204  0  0  0.608576  0  4.222518  0  0  0.193215  0.553471  0  4.231234  0
C  C79  1  0.62992854  0.56092891  0.82407944  1  0  0.620025  0  3.943527  0  0  0.575616  0  4.228431  0  0  0.60852  0  4.222745  0  0  0.193169  0.553413  0  4.231466  0
C  C80  1  0.59194741  0.76885011  0.48181140  1  0  0.17697  0  3.616164  0  0  0.111951  0  3.886999  0  0  0.126741  0  3.898158  0  0  0.146725  0.102379  0  3.879028  0
C  C81  1  0.40805231  0.23114805  0.51818848  1  0  0.176764  0  3.61631  0  0  0.111717  0  3.887142  0  0  0.126507  0  3.898303  0  0  0.146609  0.102143  0  3.879177  0
C  C82  1  0.27986732  0.41574191  0.00002235  1  0  -0.19195  0  3.718733  0  0  -0.225827  0  3.969235  0  0  -0.228344  0  3.988397  0  0  -0.095768  -0.223846  0  3.956221  0
C  C83  1  0.72013650  0.58425996  0.99997804  1  0  -0.191977  0  3.718777  0  0  -0.225873  0  3.969248  0  0  -0.22839  0  3.988408  0  0  -0.095777  -0.223879  0  3.95626  0
C  C84  1  0.87267860  0.03757662  0.60574099  1  0  0.076693  0  3.663859  0  0  0.017766  0  3.939659  0  0  0.023536  0  3.946322  0  0  -0.064905  0.014004  0  3.93483  0
C  C85  1  0.12732049  0.96242246  0.39425954  1  0  0.076635  0  3.663875  0  0  0.017697  0  3.939755  0  0  0.023467  0  3.946421  0  0  -0.064933  0.01394  0  3.934912  0
C  C86  1  0.58518919  0.88037484  0.37578290  1  0  -0.076958  0  3.678885  0  0  -0.115391  0  3.930569  0  0  -0.114847  0  3.950692  0  0  -0.003108  -0.115702  0  3.9169  0
C  C87  1  0.41481273  0.11962333  0.62421605  1  0  -0.076866  0  3.678743  0  0  -0.115307  0  3.930427  0  0  -0.114764  0  3.950549  0  0  -0.003067  -0.115619  0  3.916756  0
C  C88  1  0.84748469  0.08172781  0.93647106  1  0  0.002877  0  3.744013  0  0  -0.030896  0  4.00786  0  0  -0.028759  0  4.027518  0  0  -0.003129  -0.03239  0  3.994635  0
C  C89  1  0.15251405  0.91826848  0.06353041  1  0  0.00294  0  3.743974  0  0  -0.030828  0  4.007833  0  0  -0.028687  0  4.027491  0  0  -0.003094  -0.032318  0  3.994599  0
C  C90  1  0.76834280  0.90338009  0.83354309  1  0  0.193374  0  3.62662  0  0  0.126936  0  3.897047  0  0  0.142311  0  3.908175  0  0  0.155294  0.116975  0  3.889229  0
C  C91  1  0.23165247  0.09661157  0.16645656  1  0  0.193271  0  3.626772  0  0  0.126809  0  3.897205  0  0  0.142183  0  3.908336  0  0  0.155233  0.116852  0  3.88939  0
C  C92  1  0.27357087  0.36795453  0.90819561  1  0  0.265751  0  3.825754  0  0  0.259398  0  4.09171  0  0  0.268522  0  4.10842  0  0  0.084092  0.25286  0  4.080202  0
C  C93  1  0.72643280  0.63204920  0.09180495  1  0  0.265814  0  3.825656  0  0  0.259471  0  4.09156  0  0  0.268596  0  4.108269  0  0  0.084118  0.25293  0  4.08006  0
C  C94  1  0.97925076  0.07686808  0.91856383  1  0  -0.056799  0  3.671056  0  0  -0.097585  0  3.929967  0  0  -0.09629  0  3.950917  0  0  0.001229  -0.098473  0  3.915651  0
C  C95  1  0.02074467  0.92312820  0.08143902  1  0  -0.056916  0  3.670902  0  0  -0.097728  0  3.929831  0  0  -0.096441  0  3.950775  0  0  0.001112  -0.09861  0  3.915517  0
C  C96  1  0.49348744  0.15603834  0.96032840  1  0  0.657833  0  3.88304  0  0  0.609572  0  4.164807  0  0  0.644572  0  4.157015  0  0  0.216019  0.58575  0  4.169448  0
C  C97  1  0.50650739  0.84395889  0.03967114  1  0  0.657953  0  3.882855  0  0  0.609713  0  4.164598  0  0  0.644714  0  4.156804  0  0  0.216066  0.585895  0  4.169234  0
C  C98  1  0.10007733  0.46362423  0.83944834  1  0  0.068755  0  3.635972  0  0  0.003107  0  3.914539  0  0  0.010807  0  3.919581  0  0  -0.063809  -0.002122  0  3.911043  0
C  C99  1  0.89992429  0.53637765  0.16055165  1  0  0.068677  0  3.635974  0  0  0.003084  0  3.914449  0  0  0.010796  0  3.919476  0  0  -0.063797  -0.002157  0  3.91097  0
C  C100  1  0.04210048  0.98344726  0.72784575  1  0  0.074407  0  3.655035  0  0  0.014101  0  3.930966  0  0  0.020883  0  3.936855  0  0  -0.066632  0.009713  0  3.926605  0
C  C101  1  0.95789859  0.01655182  0.27215610  1  0  0.074314  0  3.655137  0  0  0.014117  0  3.930914  0  0  0.0209  0  3.936803  0  0  -0.066618  0.009721  0  3.92656  0
C  C102  1  0.02130850  0.92035950  0.80687362  1  0  -0.030035  0  3.616443  0  0  -0.097994  0  3.879514  0  0  -0.093812  0  3.889121  0  0  -0.046508  -0.100678  0  3.873156  0
C  C103  1  0.97869230  0.07963864  0.19312844  1  0  -0.030063  0  3.616438  0  0  -0.098027  0  3.879428  0  0  -0.093843  0  3.88903  0  0  -0.046498  -0.100723  0  3.873092  0
C  C104  1  0.52377418  0.75731947  0.32846773  1  0  0.007274  0  3.749131  0  0  -0.02486  0  4.007624  0  0  -0.022972  0  4.028111  0  0  -0.002758  -0.02643  0  3.994052  0
C  C105  1  0.47622821  0.24267961  0.67153208  1  0  0.007174  0  3.748909  0  0  -0.024954  0  4.007432  0  0  -0.023065  0  4.027918  0  0  -0.002804  -0.026515  0  3.993854  0
C  C106  1  0.25514534  0.44370852  0.46843257  1  0  0.663635  0  3.877053  0  0  0.609666  0  4.166891  0  0  0.644621  0  4.159809  0  0  0.218218  0.585809  0  4.171228  0
C  C107  1  0.74485520  0.55629337  0.53156524  1  0  0.663701  0  3.877014  0  0  0.609721  0  4.166863  0  0  0.644678  0  4.159777  0  0  0.218215  0.585875  0  4.171186  0
N  N108  1  0.71684514  0.97256074  0.88325975  1  0  -0.416622  0  3.353294  0  0  -0.334399  0  3.663344  0  0  -0.356629  0  3.675443  0  0  -0.366307  -0.319391  0  3.654724  0
N  N109  1  0.28315360  0.02743555  0.11674238  1  0  -0.416557  0  3.353301  0  0  -0.334351  0  3.663356  0  0  -0.356586  0  3.675462  0  0  -0.366274  -0.319341  0  3.65473  0
N  N110  1  0.92700888  0.96328710  0.85389296  1  0  -0.06169  0  3.582523  0  0  0.033176  0  3.801477  0  0  0.018272  0  3.827757  0  0  -0.238038  0.042989  0  3.783673  0
N  N111  1  0.07299554  0.03671381  0.14611139  1  0  -0.06157  0  3.582457  0  0  0.033303  0  3.801377  0  0  0.018399  0  3.827658  0  0  -0.237952  0.04311  0  3.78358  0
N  N112  1  0.62736200  0.88601281  0.47239070  1  0  -0.046451  0  3.554372  0  0  0.048258  0  3.773184  0  0  0.033928  0  3.799215  0  0  -0.238397  0.057587  0  3.755512  0
N  N113  1  0.37263992  0.11398535  0.52760892  1  0  -0.04644  0  3.554368  0  0  0.048299  0  3.773192  0  0  0.033967  0  3.799227  0  0  -0.238329  0.057628  0  3.755511  0
N  N114  1  0.52911307  0.68879934  0.39532471  1  0  -0.406204  0  3.340659  0  0  -0.324847  0  3.646239  0  0  -0.346591  0  3.658808  0  0  -0.363801  -0.309952  0  3.637183  0
N  N115  1  0.47088665  0.31119883  0.60467451  1  0  -0.406147  0  3.34067  0  0  -0.324735  0  3.646185  0  0  -0.346478  0  3.658758  0  0  -0.363787  -0.309845  0  3.637134  0
O  O116  1  0.92520571  0.38259282  0.67233226  1  0  -0.283751  0  2.279976  0  0  -0.217224  0  2.515569  0  0  -0.23429  0  2.517157  0  0  -0.186968  -0.204992  0  2.514011  0
O  O117  1  0.07479748  0.61740998  0.32766812  1  0  -0.283755  0  2.279959  0  0  -0.217247  0  2.515568  0  0  -0.234314  0  2.517158  0  0  -0.187027  -0.205027  0  2.514023  0
O  O118  1  0.45960313  0.41432544  0.24707148  1  0  -0.642257  0  1.9971  0  0  -0.570973  0  2.257913  0  0  -0.599354  0  2.242402  0  0  -0.33587  -0.551105  0  2.26774  0
O  O119  1  0.54039658  0.58567271  0.75292840  1  0  -0.642211  0  1.997083  0  0  -0.570948  0  2.257904  0  0  -0.59933  0  2.242393  0  0  -0.335844  -0.551078  0  2.267725  0
O  O120  1  0.45353041  0.09282267  0.87455208  1  0  -0.61384  0  2.013712  0  0  -0.538762  0  2.268572  0  0  -0.566432  0  2.254048  0  0  -0.31073  -0.519786  0  2.278587  0
O  O121  1  0.54646713  0.90717552  0.12544410  1  0  -0.613922  0  2.013725  0  0  -0.538854  0  2.268608  0  0  -0.566523  0  2.254082  0  0  -0.310821  -0.519885  0  2.278628  0
O  O122  1  0.54002558  0.12909507  0.34039279  1  0  -0.615839  0  1.933373  0  0  -0.574783  0  2.160731  0  0  -0.596257  0  2.151063  0  0  -0.32101  -0.559874  0  2.167149  0
O  O123  1  0.45997432  0.87090773  0.65960764  1  0  -0.615817  0  1.933465  0  0  -0.574757  0  2.160824  0  0  -0.596232  0  2.151157  0  0  -0.321009  -0.559847  0  2.167243  0
O  O124  1  0.68803621  0.18466204  0.24823091  1  0  -0.662135  0  2.032117  0  0  -0.585243  0  2.303242  0  0  -0.614431  0  2.286545  0  0  -0.339785  -0.564868  0  2.31443  0
O  O125  1  0.31196321  0.81533983  0.75176934  1  0  -0.662173  0  2.032044  0  0  -0.58529  0  2.303161  0  0  -0.614476  0  2.286463  0  0  -0.339805  -0.564907  0  2.314339  0
O  O126  1  0.19548660  0.39445687  0.82810591  1  0  -0.278254  0  2.288341  0  0  -0.211261  0  2.524567  0  0  -0.228925  0  2.526793  0  0  -0.182589  -0.198618  0  2.522296  0
O  O127  1  0.80451440  0.60554593  0.17189406  1  0  -0.278279  0  2.288318  0  0  -0.211278  0  2.524484  0  0  -0.228946  0  2.526704  0  0  -0.18262  -0.19863  0  2.522222  0
O  O128  1  0.58040246  0.13589810  0.03320611  1  0  -0.665294  0  2.065388  0  0  -0.597517  0  2.335064  0  0  -0.623387  0  2.317111  0  0  -0.331173  -0.579266  0  2.346798  0
O  O129  1  0.41958863  0.86409823  0.96678868  1  0  -0.66531  0  2.065259  0  0  -0.597537  0  2.334919  0  0  -0.623406  0  2.316965  0  0  -0.331137  -0.579284  0  2.346647  0
O  O130  1  0.88709271  0.94902256  0.65857597  1  0  -0.309439  0  2.257402  0  0  -0.241388  0  2.512648  0  0  -0.257006  0  2.514591  0  0  -0.232432  -0.230339  0  2.510832  0
O  O131  1  0.11290858  0.05097652  0.34142429  1  0  -0.309383  0  2.257465  0  0  -0.241367  0  2.512695  0  0  -0.256985  0  2.514638  0  0  -0.232411  -0.230304  0  2.510875  0
O  O132  1  0.28976608  0.50187090  0.18514569  1  0  -0.609527  0  1.896869  0  0  -0.564053  0  2.111043  0  0  -0.585568  0  2.101082  0  0  -0.324202  -0.549295  0  2.11753  0
O  O133  1  0.71023157  0.49812539  0.81485558  1  0  -0.609497  0  1.897005  0  0  -0.564032  0  2.111185  0  0  -0.585547  0  2.101223  0  0  -0.324178  -0.549273  0  2.117672  0
O  O134  1  0.37627114  0.52558863  0.53702502  1  0  -0.658818  0  2.091773  0  0  -0.589469  0  2.369021  0  0  -0.615863  0  2.353156  0  0  -0.326353  -0.571135  0  2.379894  0
O  O135  1  0.62373002  0.47441233  0.46297280  1  0  -0.658821  0  2.091731  0  0  -0.589478  0  2.368991  0  0  -0.615871  0  2.353123  0  0  -0.326369  -0.571154  0  2.379871  0
O  O136  1  0.25528844  0.41062083  0.38391150  1  0  -0.622396  0  2.043895  0  0  -0.551051  0  2.316227  0  0  -0.578078  0  2.299636  0  0  -0.312334  -0.532406  0  2.327254  0
O  O137  1  0.74471114  0.58937919  0.61608724  1  0  -0.622438  0  2.043856  0  0  -0.551081  0  2.31617  0  0  -0.57811  0  2.299574  0  0  -0.312327  -0.532443  0  2.327194  0
