# generated using pymatgen
data_ZnH16C14(N2O3)2
_symmetry_space_group_name_H-M   'P 1'
_cell_length_a   8.13122725
_cell_length_b   9.86544359
_cell_length_c   10.72895153
_cell_angle_alpha   105.64232530
_cell_angle_beta   89.99980625
_cell_angle_gamma   90.00004078
_symmetry_Int_Tables_number   1
_chemical_formula_structural   ZnH16C14(N2O3)2
_chemical_formula_sum   'Zn2 H32 C28 N8 O12'
_cell_volume   828.78120379
_cell_formula_units_Z   2
loop_
 _symmetry_equiv_pos_site_id
 _symmetry_equiv_pos_as_xyz
  1  'x, y, z'
loop_
 _atom_site_type_symbol
 _atom_site_label
 _atom_site_symmetry_multiplicity
 _atom_site_fract_x
 _atom_site_fract_y
 _atom_site_fract_z
 _atom_site_occupancy
 _atom_site_pbe_bader_spin_density
 _atom_site_pbe_cm5_charge
 _atom_site_pbe_ddec_charge
 _atom_site_pbe_ddec_spin_density
 _atom_site_pbe_ddec_sum_bond_order
 _atom_site_pbe_magmom
Zn  Zn0  1  0.00000000  0.00000000  0.00000000  1  0  0.680519  0.865282  0  2.267824  0
Zn  Zn1  1  0.49999988  0.50000048  0.50000007  1  0  0.680515  0.865255  0  2.267842  0
H  H2  1  0.97731232  0.77806931  0.77626788  1  0  0.287303  0.37353  0  0.969171  0
H  H3  1  0.47731286  0.72193108  0.72373214  1  0  0.28734  0.373574  0  0.969114  0
H  H4  1  0.02268744  0.22193165  0.22373226  1  0  0.287341  0.373581  0  0.969098  0
H  H5  1  0.52268813  0.27806883  0.27626775  1  0  0.28734  0.373584  0  0.969097  0
H  H6  1  0.80281219  0.85847074  0.80669217  1  0  0.281982  0.363784  0  0.988766  0
H  H7  1  0.30281156  0.64152968  0.69330831  1  0  0.281979  0.363762  0  0.9888  0
H  H8  1  0.19718880  0.14152917  0.19330772  1  0  0.281979  0.363776  0  0.988776  0
H  H9  1  0.69718943  0.35847128  0.30669184  1  0  0.281975  0.363764  0  0.988798  0
H  H10  1  0.81139156  0.30034765  0.10350456  1  0  0.138389  0.110225  0  1.042058  0
H  H11  1  0.31139131  0.19965174  0.39649538  1  0  0.138394  0.110237  0  1.042041  0
H  H12  1  0.18860820  0.69965122  0.89649602  1  0  0.138403  0.11025  0  1.042052  0
H  H13  1  0.68860845  0.80034712  0.60350426  1  0  0.138387  0.11022  0  1.042042  0
H  H14  1  0.02976020  0.12455793  0.73960763  1  0  0.117205  0.113835  0  1.023581  0
H  H15  1  0.52975982  0.37544242  0.76039110  1  0  0.117206  0.113834  0  1.023585  0
H  H16  1  0.97023956  0.87544303  0.26039251  1  0  0.117193  0.113824  0  1.023593  0
H  H17  1  0.47024117  0.62455748  0.23960786  1  0  0.11719  0.113831  0  1.023591  0
H  H18  1  0.90107281  0.38877988  0.74495203  1  0  0.123139  0.129098  0  1.035673  0
H  H19  1  0.40107312  0.11122043  0.75504760  1  0  0.123139  0.129085  0  1.035666  0
H  H20  1  0.09892572  0.61122109  0.25504905  1  0  0.123136  0.129093  0  1.035715  0
H  H21  1  0.59892664  0.88878054  0.24495254  1  0  0.123147  0.129137  0  1.035653  0
H  H22  1  0.72027260  0.52924305  0.09198350  1  0  0.117432  0.092768  0  1.020702  0
H  H23  1  0.22027376  0.97075750  0.40801659  1  0  0.117418  0.092739  0  1.020687  0
H  H24  1  0.27972470  0.47075687  0.90801733  1  0  0.117421  0.092753  0  1.020694  0
H  H25  1  0.77972600  0.02924241  0.59198330  1  0  0.1174  0.092715  0  1.020703  0
H  H26  1  0.74211025  0.58961861  0.82174703  1  0  0.101129  0.154097  0  1.045976  0
H  H27  1  0.24210993  0.91038077  0.67825336  1  0  0.101131  0.154097  0  1.045974  0
H  H28  1  0.25788951  0.41038025  0.17825261  1  0  0.101132  0.154116  0  1.04594  0
H  H29  1  0.75788983  0.08961914  0.32174654  1  0  0.101131  0.154096  0  1.045971  0
H  H30  1  0.65455860  0.70298653  0.97503503  1  0  0.097118  0.144024  0  1.031148  0
H  H31  1  0.15455886  0.79701391  0.52496490  1  0  0.097117  0.144008  0  1.031184  0
H  H32  1  0.34544116  0.29701233  0.02496461  1  0  0.097116  0.144035  0  1.031126  0
H  H33  1  0.84544090  0.20298600  0.47503499  1  0  0.097116  0.144005  0  1.031185  0
C  C34  1  0.85311118  0.28453604  0.00487394  1  0  0.144697  0.091362  0  3.902411  0
C  C35  1  0.35311173  0.21546334  0.49512589  1  0  0.144688  0.091318  0  3.902409  0
C  C36  1  0.14688735  0.71546283  0.99512663  1  0  0.144673  0.091284  0  3.902438  0
C  C37  1  0.64688803  0.78453657  0.50487400  1  0  0.144719  0.091402  0  3.902337  0
C  C38  1  0.96478251  0.20024214  0.81574629  1  0  0.00312  -0.018015  0  3.981713  0
C  C39  1  0.46478207  0.29975814  0.68425224  1  0  0.003055  -0.018098  0  3.981796  0
C  C40  1  0.03521725  0.79975882  0.18425386  1  0  0.003101  -0.018081  0  3.981778  0
C  C41  1  0.53521769  0.70024175  0.31574578  1  0  0.003105  -0.018054  0  3.981768  0
C  C42  1  0.38176722  0.99474653  0.95985818  1  0  0.088397  0.142611  0  4.190895  0
C  C43  1  0.88176873  0.50525495  0.54014421  1  0  0.088373  0.142558  0  4.190869  0
C  C44  1  0.61823254  0.00525339  0.04014358  1  0  0.088362  0.142562  0  4.190909  0
C  C45  1  0.11823349  0.49474603  0.45985780  1  0  0.088388  0.142584  0  4.190908  0
C  C46  1  0.90250660  0.32991977  0.81672858  1  0  -0.000768  -0.112309  0  3.892011  0
C  C47  1  0.40250728  0.17008053  0.68327105  1  0  -0.000734  -0.112247  0  3.892056  0
C  C48  1  0.09749193  0.67008120  0.18327250  1  0  -0.000732  -0.112283  0  3.892021  0
C  C49  1  0.59749371  0.82991937  0.31672791  1  0  -0.000747  -0.11231  0  3.892119  0
C  C50  1  0.45430148  0.05838095  0.08899416  1  0  0.091868  0.148076  0  4.154125  0
C  C51  1  0.95430540  0.44161842  0.41100542  1  0  0.091867  0.148106  0  4.154056  0
C  C52  1  0.54569582  0.94161685  0.91100430  1  0  0.091867  0.148011  0  4.154051  0
C  C53  1  0.04569682  0.55838150  0.58899541  1  0  0.09184  0.148024  0  4.154083  0
C  C54  1  0.75097812  0.51244137  0.99003863  1  0  0.008583  0.030379  0  4.03973  0
C  C55  1  0.25097862  0.98755905  0.50996105  1  0  0.008581  0.030407  0  4.03965  0
C  C56  1  0.24902164  0.48755854  0.00996220  1  0  0.008575  0.030336  0  4.039688  0
C  C57  1  0.74902237  0.01244085  0.49003791  1  0  0.008567  0.030349  0  4.039761  0
C  C58  1  0.71518421  0.60559073  0.92427403  1  0  -0.184025  -0.343115  0  3.854829  0
C  C59  1  0.21518555  0.89440865  0.57572549  1  0  -0.184016  -0.343101  0  3.854812  0
C  C60  1  0.28481678  0.39440920  0.07572773  1  0  -0.184023  -0.343128  0  3.854828  0
C  C61  1  0.78481544  0.10559126  0.42427440  1  0  -0.184009  -0.343065  0  3.854858  0
N  N62  1  0.93310436  0.17343397  0.93368330  1  0  -0.347123  -0.284556  0  3.559882  0
N  N63  1  0.43310324  0.32656632  0.56631625  1  0  -0.347078  -0.284457  0  3.559863  0
N  N64  1  0.06689540  0.82656594  0.06631660  1  0  -0.347101  -0.284497  0  3.559888  0
N  N65  1  0.56689652  0.67343357  0.43368271  1  0  -0.347106  -0.284532  0  3.559806  0
N  N66  1  0.83144328  0.38271777  0.93798207  1  0  -0.230576  0.051785  0  3.831284  0
N  N67  1  0.33144569  0.11728148  0.56201655  1  0  -0.23057  0.051778  0  3.831373  0
N  N68  1  0.16855525  0.61728215  0.06201876  1  0  -0.230571  0.051889  0  3.831181  0
N  N69  1  0.66855530  0.88271842  0.43798241  1  0  -0.230568  0.051793  0  3.831356  0
O  O70  1  0.24234803  0.98765946  0.90744930  1  0  -0.298189  -0.426277  0  2.392847  0
O  O71  1  0.74234932  0.51234097  0.59255133  1  0  -0.29818  -0.426257  0  2.392818  0
O  O72  1  0.75765050  0.01233938  0.09254940  1  0  -0.298169  -0.426246  0  2.39286  0
O  O73  1  0.25765167  0.48765999  0.40744881  1  0  -0.298191  -0.426282  0  2.392845  0
O  O74  1  0.92493766  0.87118956  0.81164502  1  0  -0.585485  -0.760435  0  2.154007  0
O  O75  1  0.42493704  0.62881189  0.68835446  1  0  -0.585523  -0.760465  0  2.153985  0
O  O76  1  0.07506210  0.12881139  0.18835419  1  0  -0.585523  -0.760482  0  2.153958  0
O  O77  1  0.57506272  0.37118802  0.31164544  1  0  -0.585508  -0.760457  0  2.153959  0
O  O78  1  0.40164993  0.13079645  0.19732152  1  0  -0.294454  -0.433495  0  2.34584  0
O  O79  1  0.90165181  0.36920398  0.30267844  1  0  -0.294423  -0.433473  0  2.345777  0
O  O80  1  0.59834860  0.86920239  0.80267625  1  0  -0.294447  -0.433443  0  2.34572  0
O  O81  1  0.09835164  0.63079700  0.69732264  1  0  -0.294448  -0.433468  0  2.345756  0
