# generated using pymatgen
data_TbAgH8C14(NO4)2
_symmetry_space_group_name_H-M   'P 1'
_cell_length_a   9.49974805
_cell_length_b   12.00302782
_cell_length_c   16.78800000
_cell_angle_alpha   96.40930570
_cell_angle_beta   90.00000000
_cell_angle_gamma   113.31062067
_symmetry_Int_Tables_number   1
_chemical_formula_structural   TbAgH8C14(NO4)2
_chemical_formula_sum   'Tb4 Ag4 H32 C56 N8 O32'
_cell_volume   1744.97299426
_cell_formula_units_Z   4
loop_
 _symmetry_equiv_pos_site_id
 _symmetry_equiv_pos_as_xyz
  1  'x, y, z'
loop_
 _atom_site_type_symbol
 _atom_site_label
 _atom_site_symmetry_multiplicity
 _atom_site_fract_x
 _atom_site_fract_y
 _atom_site_fract_z
 _atom_site_occupancy
 _atom_site_hle17_bader_spin_density
 _atom_site_hle17_ddec_charge
 _atom_site_hle17_ddec_spin_density
 _atom_site_hle17_ddec_sum_bond_order
 _atom_site_hle17_magmom
 _atom_site_hse06_10hf_bader_spin_density
 _atom_site_hse06_10hf_ddec_charge
 _atom_site_hse06_10hf_ddec_spin_density
 _atom_site_hse06_10hf_ddec_sum_bond_order
 _atom_site_hse06_10hf_magmom
 _atom_site_hse06_bader_spin_density
 _atom_site_hse06_ddec_charge
 _atom_site_hse06_ddec_spin_density
 _atom_site_hse06_ddec_sum_bond_order
 _atom_site_hse06_magmom
 _atom_site_pbe_bader_charge
 _atom_site_pbe_bader_spin_density
 _atom_site_pbe_cm5_charge
 _atom_site_pbe_ddec_charge
 _atom_site_pbe_ddec_spin_density
 _atom_site_pbe_ddec_sum_bond_order
 _atom_site_pbe_magmom
Tb  Tb0  1  0.29229909  0.99015127  0.56744196  1  0  2.256761  0  1.673379  0  0  2.113959  0  2.148115  0  0  2.234128  0  1.96846  0  2.193549  0  1.500264  2.077793  0  2.181404  0
Tb  Tb1  1  0.30205308  0.00982953  0.93252505  1  0  2.256799  0  1.674218  0  0  2.114433  0  2.148449  0  0  2.23415  0  1.969352  0  2.193612  0  1.500578  2.078161  0  2.181828  0
Tb  Tb2  1  0.70770291  0.00984872  0.43255577  1  0  2.256758  0  1.673433  0  0  2.113916  0  2.148226  0  0  2.23413  0  1.968507  0  2.193507  0  1.500243  2.077745  0  2.18152  0
Tb  Tb3  1  0.69794201  0.99017138  0.06747633  1  0  2.256754  0  1.674335  0  0  2.114362  0  2.148646  0  0  2.234115  0  1.969482  0  2.193554  0  1.500573  2.07809  0  2.182025  0
Ag  Ag4  1  0.95570803  0.67892212  0.41419937  1  0  0.524898  0  1.381525  0  0  0.362604  0  1.800393  0  0  0.395782  0  1.755809  0  0.56877  0  0.485644  0.340818  0  1.830576  0
Ag  Ag5  1  0.27698354  0.32111626  0.08579845  1  0  0.525323  0  1.381153  0  0  0.362816  0  1.799901  0  0  0.396  0  1.755331  0  0.566621  0  0.485929  0.340929  0  1.830176  0
Ag  Ag6  1  0.04429232  0.32107879  0.58580082  1  0  0.524908  0  1.381559  0  0  0.362656  0  1.800456  0  0  0.395835  0  1.755869  0  0.568847  0  0.485653  0.340864  0  1.830637  0
Ag  Ag7  1  0.72301741  0.67888373  0.91420108  1  0  0.525346  0  1.381142  0  0  0.362815  0  1.799899  0  0  0.395993  0  1.755328  0  0.566591  0  0.485922  0.340933  0  1.830177  0
H  H8  1  0.51118768  0.64130120  0.37772878  1  0  0.125037  0  0.913485  0  0  0.136653  0  0.968132  0  0  0.140775  0  0.963643  0  0.136624  0  0.124328  0.133626  0  0.971255  0
H  H9  1  0.86994531  0.35874266  0.12227127  1  0  0.125058  0  0.913063  0  0  0.13654  0  0.968008  0  0  0.140716  0  0.963456  0  0.13397  0  0.124334  0.133502  0  0.971146  0
H  H10  1  0.48881221  0.35869879  0.62227134  1  0  0.125025  0  0.913492  0  0  0.136645  0  0.968134  0  0  0.140768  0  0.963646  0  0.136611  0  0.124322  0.133619  0  0.971257  0
H  H11  1  0.13005761  0.64125916  0.87772959  1  0  0.125037  0  0.913075  0  0  0.136535  0  0.968008  0  0  0.140707  0  0.963455  0  0.133973  0  0.124337  0.133497  0  0.971147  0
H  H12  1  0.11690346  0.09042162  0.33549000  1  0  0.124095  0  0.938638  0  0  0.132684  0  0.999913  0  0  0.135708  0  0.999269  0  0.131248  0  0.118748  0.130513  0  1.000391  0
H  H13  1  0.02678191  0.90963686  0.16454219  1  0  0.123245  0  0.938557  0  0  0.132306  0  0.999582  0  0  0.13542  0  0.998821  0  0.117792  0  0.118721  0.130137  0  1.000042  0
H  H14  1  0.88309327  0.90957837  0.66450714  1  0  0.124079  0  0.938653  0  0  0.132666  0  0.999952  0  0  0.135686  0  0.999308  0  0.131204  0  0.118749  0.130496  0  1.000429  0
H  H15  1  0.97322311  0.09036496  0.83545748  1  0  0.123222  0  0.938587  0  0  0.132278  0  0.999619  0  0  0.135393  0  0.998855  0  0.117499  0  0.118709  0.13011  0  1.000073  0
H  H16  1  0.16138272  0.58831588  0.54894780  1  0  0.094884  0  0.927653  0  0  0.103211  0  0.991235  0  0  0.106794  0  0.986933  0  0.126676  0  0.124385  0.100698  0  0.99414  0
H  H17  1  0.57291519  0.41141633  0.95103095  1  0  0.094334  0  0.928017  0  0  0.102867  0  0.991267  0  0  0.10655  0  0.986856  0  0.12709  0  0.124174  0.100296  0  0.994239  0
H  H18  1  0.83861704  0.41168594  0.45105187  1  0  0.094907  0  0.927642  0  0  0.103234  0  0.991216  0  0  0.106819  0  0.986911  0  0.126759  0  0.1244  0.100718  0  0.994132  0
H  H19  1  0.42708800  0.58858184  0.04896843  1  0  0.094315  0  0.927999  0  0  0.102856  0  0.991241  0  0  0.106539  0  0.98683  0  0.127084  0  0.124169  0.100285  0  0.994214  0
H  H20  1  0.08963245  0.20146287  0.22280263  1  0  0.09775  0  0.93517  0  0  0.10833  0  0.993871  0  0  0.110961  0  0.991458  0  0.12467  0  0.123483  0.106487  0  0.995441  0
H  H21  1  0.88831619  0.79853895  0.27713390  1  0  0.097822  0  0.933995  0  0  0.108398  0  0.992921  0  0  0.111065  0  0.990428  0  0.133599  0  0.123373  0.106493  0  0.994619  0
H  H22  1  0.91036790  0.79853804  0.77719518  1  0  0.097726  0  0.935219  0  0  0.108314  0  0.993905  0  0  0.110945  0  0.991493  0  0.124683  0  0.123461  0.106471  0  0.995475  0
H  H23  1  0.11168627  0.20146195  0.72286569  1  0  0.097819  0  0.933986  0  0  0.108423  0  0.992878  0  0  0.11109  0  0.990385  0  0.133824  0  0.123388  0.106518  0  0.994577  0
H  H24  1  0.59170430  0.19024048  0.27973753  1  0  0.132959  0  0.940897  0  0  0.143322  0  0.997335  0  0  0.147078  0  0.995125  0  0.13833  0  0.121679  0.140738  0  0.998693  0
H  H25  1  0.40171188  0.80984086  0.22041621  1  0  0.132669  0  0.940972  0  0  0.142957  0  0.997424  0  0  0.146707  0  0.995227  0  0.145907  0  0.121877  0.140378  0  0.998734  0
H  H26  1  0.40829454  0.80975951  0.72026259  1  0  0.132951  0  0.940923  0  0  0.143301  0  0.997369  0  0  0.147056  0  0.99516  0  0.138298  0  0.12167  0.140717  0  0.998727  0
H  H27  1  0.59828678  0.19015457  0.77958175  1  0  0.132603  0  0.941064  0  0  0.142876  0  0.997545  0  0  0.146626  0  0.99535  0  0.145911  0  0.121815  0.140297  0  0.998853  0
H  H28  1  0.54940450  0.30383347  0.17284710  1  0  0.071283  0  0.957393  0  0  0.083569  0  1.017576  0  0  0.084928  0  1.016852  0  0.092744  0  0.115407  0.082604  0  1.018033  0
H  H29  1  0.24567319  0.69620034  0.32723911  1  0  0.071007  0  0.957694  0  0  0.083694  0  1.017591  0  0  0.084961  0  1.016977  0  0.093947  0  0.11551  0.082789  0  1.01797  0
H  H30  1  0.45059691  0.69616744  0.82715309  1  0  0.071284  0  0.957417  0  0  0.083569  0  1.017599  0  0  0.084929  0  1.016875  0  0.092724  0  0.115415  0.082605  0  1.018055  0
H  H31  1  0.75432625  0.30379874  0.67276093  1  0  0.071015  0  0.95764  0  0  0.083709  0  1.017546  0  0  0.084977  0  1.016931  0  0.093821  0  0.11551  0.082825  0  1.017902  0
H  H32  1  0.23784607  0.28513863  0.44953406  1  0  0.098454  0  0.936413  0  0  0.106293  0  0.999686  0  0  0.108891  0  0.997191  0  0.111578  0  0.12389  0.104392  0  1.001352  0
H  H33  1  0.95234185  0.71478734  0.05042917  1  0  0.098418  0  0.935738  0  0  0.105642  0  0.999858  0  0  0.108274  0  0.997336  0  0.120686  0  0.123707  0.10387  0  1.001266  0
H  H34  1  0.76215217  0.71486228  0.55046613  1  0  0.098497  0  0.936344  0  0  0.106324  0  0.999629  0  0  0.10892  0  0.997141  0  0.111824  0  0.123905  0.104427  0  1.001291  0
H  H35  1  0.04765594  0.28521266  0.94957035  1  0  0.098422  0  0.935751  0  0  0.105642  0  0.999869  0  0  0.108278  0  0.997346  0  0.120754  0  0.123735  0.103866  0  1.001288  0
H  H36  1  0.44067460  0.41166218  0.36365422  1  0  0.101387  0  0.958077  0  0  0.112077  0  1.015119  0  0  0.114037  0  1.017202  0  0.088247  0  0.10714  0.110708  0  1.013782  0
H  H37  1  0.02880130  0.58838534  0.13628834  1  0  0.101417  0  0.95704  0  0  0.111538  0  1.014723  0  0  0.113491  0  1.01683  0  0.071268  0  0.106827  0.110142  0  1.013436  0
H  H38  1  0.55932378  0.58833690  0.63634464  1  0  0.101369  0  0.958078  0  0  0.112047  0  1.015137  0  0  0.114011  0  1.017214  0  0.088256  0  0.107119  0.110678  0  1.013798  0
H  H39  1  0.97120207  0.41161740  0.86371319  1  0  0.101335  0  0.957106  0  0  0.111488  0  1.01475  0  0  0.113441  0  1.016857  0  0.071323  0  0.106786  0.110093  0  1.013462  0
C  C40  1  0.42005418  0.58005103  0.41113900  1  0  -0.008126  0  3.672815  0  0  -0.03507  0  3.913748  0  0  -0.029241  0  3.929767  0  -0.105354  0  -0.052594  -0.038412  0  3.902322  0
C  C41  1  0.83997489  0.41990509  0.08882188  1  0  -0.008984  0  3.673487  0  0  -0.035466  0  3.91422  0  0  -0.029697  0  3.93028  0  -0.076425  0  -0.052908  -0.03876  0  3.902731  0
C  C42  1  0.57994571  0.41994896  0.58886112  1  0  -0.008126  0  3.672792  0  0  -0.035071  0  3.913736  0  0  -0.029243  0  3.929757  0  -0.105353  0  -0.052612  -0.038412  0  3.902309  0
C  C43  1  0.16002803  0.58009673  0.91117720  1  0  -0.008955  0  3.673566  0  0  -0.035477  0  3.914301  0  0  -0.029703  0  3.930357  0  -0.076421  0  -0.052902  -0.038771  0  3.90281  0
C  C44  1  0.35625293  0.12921696  0.31524172  1  0  -0.010097  0  3.686926  0  0  0.00831  0  3.917587  0  0  0.006738  0  3.935369  0  -0.07828  0  0.006915  0.009582  0  3.904576  0
C  C45  1  0.22739462  0.87093200  0.18485725  1  0  -0.01072  0  3.685668  0  0  0.007295  0  3.916626  0  0  0.005707  0  3.93442  0  -0.047423  0  0.007077  0.008524  0  3.903703  0
C  C46  1  0.64374637  0.87078394  0.68475728  1  0  -0.010179  0  3.68697  0  0  0.008377  0  3.917473  0  0  0.006804  0  3.935253  0  -0.078176  0  0.00693  0.00965  0  3.90446  0
C  C47  1  0.77260601  0.12906525  0.81514265  1  0  -0.010707  0  3.685737  0  0  0.007309  0  3.916665  0  0  0.005721  0  3.934459  0  -0.047338  0  0.007112  0.008541  0  3.903739  0
C  C48  1  0.37492256  0.76381526  0.47512137  1  0  0.708796  0  3.91182  0  0  0.65806  0  4.208218  0  0  0.694003  0  4.202561  0  1.62336  0  0.230125  0.634175  0  4.214033  0
C  C49  1  0.61116052  0.23608237  0.02485271  1  0  0.705789  0  3.914545  0  0  0.65601  0  4.210133  0  0  0.691888  0  4.204526  0  1.664897  0  0.229893  0.632184  0  4.215817  0
C  C50  1  0.62507102  0.23618473  0.52487934  1  0  0.708617  0  3.912061  0  0  0.657885  0  4.208469  0  0  0.693825  0  4.202818  0  1.623612  0  0.229994  0.634  0  4.214284  0
C  C51  1  0.38883246  0.76391853  0.97515165  1  0  0.705823  0  3.914734  0  0  0.656131  0  4.210148  0  0  0.69201  0  4.20454  0  1.665291  0  0.229926  0.632305  0  4.215833  0
C  C52  1  0.37777255  0.05571072  0.37832243  1  0  0.706419  0  3.88203  0  0  0.659182  0  4.174567  0  0  0.695099  0  4.166689  0  1.625599  0  0.228883  0.635326  0  4.181604  0
C  C53  1  0.32225060  0.94439803  0.12169888  1  0  0.706436  0  3.884007  0  0  0.659971  0  4.17543  0  0  0.695911  0  4.167465  0  1.62266  0  0.229297  0.636078  0  4.182553  0
C  C54  1  0.62221828  0.94428378  0.62167487  1  0  0.70656  0  3.881911  0  0  0.659211  0  4.174573  0  0  0.695128  0  4.166693  0  1.625159  0  0.22885  0.635355  0  4.181611  0
C  C55  1  0.67774494  0.05560379  0.87830079  1  0  0.70638  0  3.884099  0  0  0.659952  0  4.175461  0  0  0.695893  0  4.167494  0  1.622991  0  0.229263  0.636057  0  4.182584  0
C  C56  1  0.21497931  0.13566488  0.30016426  1  0  -0.116153  0  3.70223  0  0  -0.137287  0  3.951494  0  0  -0.142313  0  3.972371  0  0.030507  0  -0.071959  -0.133893  0  3.937249  0
C  C57  1  0.07964498  0.86446763  0.19991732  1  0  -0.115471  0  3.702006  0  0  -0.136984  0  3.950996  0  0  -0.142093  0  3.971876  0  0.052972  0  -0.072577  -0.133532  0  3.936697  0
C  C58  1  0.78501711  0.86433237  0.69983504  1  0  -0.11621  0  3.702364  0  0  -0.137397  0  3.951609  0  0  -0.142416  0  3.97248  0  0.030605  0  -0.072015  -0.134004  0  3.937364  0
C  C59  1  0.92035506  0.13553053  0.80008206  1  0  -0.115443  0  3.702009  0  0  -0.136965  0  3.951004  0  0  -0.142072  0  3.971883  0  0.053457  0  -0.072545  -0.133512  0  3.936704  0
C  C60  1  0.33846991  0.62908901  0.46328077  1  0  -0.115903  0  3.748423  0  0  -0.088387  0  3.980298  0  0  -0.100773  0  4.002976  0  -0.013865  0  -0.011314  -0.080234  0  3.963998  0
C  C61  1  0.70935724  0.37081136  0.03669055  1  0  -0.113998  0  3.74766  0  0  -0.087903  0  3.980631  0  0  -0.100213  0  4.003296  0  -0.068699  0  -0.01107  -0.079809  0  3.964384  0
C  C62  1  0.66153255  0.37091190  0.53672061  1  0  -0.115902  0  3.748353  0  0  -0.088401  0  3.980246  0  0  -0.100785  0  4.002925  0  -0.013865  0  -0.011271  -0.080247  0  3.963947  0
C  C63  1  0.29064220  0.62918771  0.96331009  1  0  -0.114023  0  3.74794  0  0  -0.087894  0  3.980799  0  0  -0.100204  0  4.003463  0  -0.068806  0  -0.01103  -0.079801  0  3.964552  0
C  C64  1  0.22511351  0.55134295  0.50762125  1  0  0.096465  0  3.701597  0  0  0.057438  0  3.941201  0  0  0.065889  0  3.959327  0  0.483075  0  0.04987  0.051727  0  3.929242  0
C  C65  1  0.67361825  0.44848613  0.99235212  1  0  0.097159  0  3.701854  0  0  0.05831  0  3.941398  0  0  0.066606  0  3.959555  0  0.48777  0  0.050049  0.052639  0  3.929554  0
C  C66  1  0.77488730  0.44865887  0.49237842  1  0  0.096429  0  3.701473  0  0  0.057376  0  3.941074  0  0  0.065827  0  3.959192  0  0.483045  0  0.049841  0.051669  0  3.929119  0
C  C67  1  0.32638197  0.55151660  0.00764821  1  0  0.097163  0  3.701858  0  0  0.058318  0  3.941412  0  0  0.066619  0  3.959565  0  0.487774  0  0.050034  0.05264  0  3.929564  0
C  C68  1  0.19944581  0.19833624  0.23812909  1  0  0.115258  0  3.671796  0  0  0.08587  0  3.915274  0  0  0.09177  0  3.934248  0  0.417181  0  0.047669  0.081969  0  3.902255  0
C  C69  1  0.00133352  0.80173869  0.26189905  1  0  0.115396  0  3.669216  0  0  0.086201  0  3.912987  0  0  0.092082  0  3.932007  0  0.396924  0  0.047932  0.082325  0  3.899925  0
C  C70  1  0.80055409  0.80166375  0.76186984  1  0  0.115294  0  3.671764  0  0  0.085909  0  3.915254  0  0  0.091809  0  3.934225  0  0.41714  0  0.047695  0.082007  0  3.902237  0
C  C71  1  0.99866862  0.19825947  0.73810033  1  0  0.115461  0  3.669076  0  0  0.086269  0  3.912849  0  0  0.092149  0  3.931872  0  0.397052  0  0.047917  0.082393  0  3.899787  0
C  C72  1  0.96557295  0.93008375  0.48840607  1  0  0.554833  0  3.955096  0  0  0.508662  0  4.250821  0  0  0.538886  0  4.248475  0  1.57631  0  0.203547  0.487617  0  4.257424  0
C  C73  1  0.03548504  0.06992081  0.01162062  1  0  0.556983  0  3.951086  0  0  0.510496  0  4.247653  0  0  0.540701  0  4.245278  0  1.58736  0  0.204389  0.489485  0  4.254287  0
C  C74  1  0.03443463  0.06991899  0.51159903  1  0  0.554738  0  3.955403  0  0  0.508692  0  4.250968  0  0  0.538916  0  4.248621  0  1.604029  0  0.203594  0.487646  0  4.257571  0
C  C75  1  0.96451201  0.93008192  0.98837971  1  0  0.557142  0  3.950911  0  0  0.510673  0  4.247435  0  0  0.540882  0  4.245058  0  1.618747  0  0.204413  0.489663  0  4.254071  0
C  C76  1  0.47950888  0.19211042  0.26960979  1  0  -0.106981  0  3.674472  0  0  -0.127023  0  3.915004  0  0  -0.131416  0  3.933518  0  0.049458  0  -0.069143  -0.124066  0  3.902047  0
C  C77  1  0.28768142  0.80803855  0.23053386  1  0  -0.106946  0  3.672832  0  0  -0.126827  0  3.9135  0  0  -0.131186  0  3.931927  0  0.010333  0  -0.069534  -0.123825  0  3.900591  0
C  C78  1  0.52048891  0.80788957  0.73038973  1  0  -0.107007  0  3.674491  0  0  -0.127056  0  3.914966  0  0  -0.13145  0  3.933482  0  0.049464  0  -0.069162  -0.124098  0  3.902005  0
C  C79  1  0.71231875  0.19195779  0.76946477  1  0  -0.106878  0  3.672911  0  0  -0.126738  0  3.913559  0  0  -0.131098  0  3.93199  0  0.010091  0  -0.069503  -0.123736  0  3.900654  0
C  C80  1  0.45599925  0.25471415  0.20969454  1  0  0.118547  0  3.702257  0  0  0.089806  0  3.944714  0  0  0.096319  0  3.963337  0  0.409436  0  0.046279  0.085464  0  3.931952  0
C  C81  1  0.20144993  0.74538363  0.29041881  1  0  0.119223  0  3.701939  0  0  0.090268  0  3.94438  0  0  0.096874  0  3.963004  0  0.439019  0  0.046448  0.085882  0  3.931579  0
C  C82  1  0.54399959  0.74528584  0.79030617  1  0  0.118651  0  3.702313  0  0  0.0899  0  3.94478  0  0  0.096414  0  3.963403  0  0.409157  0  0.046347  0.085559  0  3.932016  0
C  C83  1  0.79854965  0.25461362  0.70958049  1  0  0.119262  0  3.701851  0  0  0.090307  0  3.94431  0  0  0.096914  0  3.962934  0  0.439168  0  0.046482  0.085905  0  3.931504  0
C  C84  1  0.26906859  0.38308114  0.45146242  1  0  0.139116  0  3.651043  0  0  0.105315  0  3.895329  0  0  0.114202  0  3.913308  0  0.466454  0  0.05469  0.099677  0  3.88292  0
C  C85  1  0.88566439  0.61684208  0.04848570  1  0  0.13942  0  3.65084  0  0  0.105964  0  3.895049  0  0  0.114827  0  3.913007  0  0.453627  0  0.055092  0.10037  0  3.882517  0
C  C86  1  0.73093025  0.61691885  0.54853650  1  0  0.139044  0  3.651055  0  0  0.105218  0  3.895331  0  0  0.114102  0  3.913313  0  0.466195  0  0.054632  0.099582  0  3.88293  0
C  C87  1  0.11433491  0.38315883  0.95151568  1  0  0.13945  0  3.65097  0  0  0.106018  0  3.895208  0  0  0.114882  0  3.913168  0  0.453571  0  0.055095  0.100416  0  3.882671  0
C  C88  1  0.38209773  0.45461873  0.40416872  1  0  -0.121557  0  3.742756  0  0  -0.131332  0  3.992356  0  0  -0.140492  0  4.016515  0  0.040557  0  -0.081745  -0.125549  0  3.976132  0
C  C89  1  0.92730256  0.54535932  0.09575638  1  0  -0.121165  0  3.743292  0  0  -0.130249  0  3.992386  0  0  -0.139414  0  4.016553  0  0.041435  0  -0.08109  -0.124464  0  3.976198  0
C  C90  1  0.61790262  0.54538217  0.59583028  1  0  -0.121514  0  3.742738  0  0  -0.13127  0  3.992332  0  0  -0.140434  0  4.01649  0  0.040556  0  -0.081695  -0.125486  0  3.976106  0
C  C91  1  0.07270141  0.45464250  0.90424448  1  0  -0.121132  0  3.743501  0  0  -0.130238  0  3.992584  0  0  -0.139402  0  4.016748  0  0.041452  0  -0.081073  -0.124453  0  3.976395  0
C  C92  1  0.22061084  0.92893583  0.74471962  1  0  0.543813  0  3.970156  0  0  0.501048  0  4.274659  0  0  0.530275  0  4.273094  0  1.627969  0  0.203544  0.480924  0  4.280488  0
C  C93  1  0.29152431  0.07100476  0.75523287  1  0  0.544742  0  3.969694  0  0  0.502123  0  4.27401  0  0  0.531339  0  4.272445  0  1.534429  0  0.203899  0.482007  0  4.279823  0
C  C94  1  0.77938997  0.07106599  0.25527886  1  0  0.54402  0  3.970372  0  0  0.501246  0  4.27488  0  0  0.530474  0  4.273318  0  1.627979  0  0.203591  0.481122  0  4.280709  0
C  C95  1  0.70847481  0.92899158  0.24476517  1  0  0.544359  0  3.969708  0  0  0.501731  0  4.274051  0  0  0.530946  0  4.272495  0  1.534515  0  0.203722  0.481615  0  4.279863  0
N  N96  1  0.31788167  0.25618744  0.19267191  1  0  -0.297639  0  3.378599  0  0  -0.207893  0  3.66456  0  0  -0.226092  0  3.679652  0  -1.179236  0  -0.349651  -0.19548  0  3.653815  0
N  N97  1  0.06182096  0.74385094  0.30738071  1  0  -0.297429  0  3.376808  0  0  -0.20833  0  3.663679  0  0  -0.226536  0  3.678703  0  -1.204778  0  -0.349693  -0.195903  0  3.652898  0
N  N98  1  0.68211717  0.74381255  0.80732821  1  0  -0.29765  0  3.37854  0  0  -0.207913  0  3.664515  0  0  -0.226113  0  3.67961  0  -1.178913  0  -0.349656  -0.1955  0  3.653771  0
N  N99  1  0.93818149  0.25614997  0.69261829  1  0  -0.297543  0  3.376673  0  0  -0.2085  0  3.663631  0  0  -0.226704  0  3.678649  0  -1.205171  0  -0.349757  -0.196075  0  3.652861  0
N  N100  1  0.19275619  0.43086883  0.50310591  1  0  -0.293444  0  3.366816  0  0  -0.200276  0  3.645646  0  0  -0.221041  0  3.662171  0  -1.199969  0  -0.346212  -0.186204  0  3.633666  0
N  N101  1  0.76158243  0.56897944  0.99685589  1  0  -0.294737  0  3.367591  0  0  -0.201362  0  3.646087  0  0  -0.222106  0  3.662618  0  -1.188857  0  -0.346821  -0.187344  0  3.634227  0
N  N102  1  0.80724522  0.56913207  0.49689309  1  0  -0.293403  0  3.366783  0  0  -0.200142  0  3.645514  0  0  -0.220905  0  3.662043  0  -1.200014  0  -0.346182  -0.186088  0  3.633554  0
N  N103  1  0.23842199  0.43102329  0.00314326  1  0  -0.294703  0  3.367411  0  0  -0.201425  0  3.646011  0  0  -0.222178  0  3.662547  0  -1.188956  0  -0.346876  -0.187386  0  3.63413  0
O  O104  1  0.27154895  0.01614949  0.42644203  1  0  -0.710489  0  2.035042  0  0  -0.660556  0  2.285914  0  0  -0.695657  0  2.275622  0  -1.188198  0  -0.366677  -0.642095  0  2.290845  0
O  O105  1  0.25537453  0.98381120  0.07358533  1  0  -0.710253  0  2.034996  0  0  -0.660605  0  2.285385  0  0  -0.695648  0  2.275092  0  -1.192192  0  -0.366584  -0.642089  0  2.290233  0
O  O106  1  0.72844957  0.98384776  0.57355549  1  0  -0.710493  0  2.034843  0  0  -0.660526  0  2.285773  0  0  -0.695634  0  2.27548  0  -1.187814  0  -0.36662  -0.642064  0  2.290704  0
O  O107  1  0.74462884  0.01619153  0.92641739  1  0  -0.710235  0  2.034838  0  0  -0.660598  0  2.285224  0  0  -0.695651  0  2.274927  0  -1.1922  0  -0.366593  -0.642079  0  2.290072  0
O  O108  1  0.03150592  0.87101974  0.51981481  1  0  -0.653205  0  2.116354  0  0  -0.592681  0  2.377596  0  0  -0.626338  0  2.365283  0  -1.162921  0  -0.369629  -0.574729  0  2.38484  0
O  O109  1  0.16041769  0.12900950  0.98016679  1  0  -0.654157  0  2.115775  0  0  -0.593698  0  2.377481  0  0  -0.62738  0  2.365335  0  -1.166724  0  -0.36977  -0.575718  0  2.384614  0
O  O110  1  0.96849278  0.12898208  0.48018545  1  0  -0.653213  0  2.116233  0  0  -0.592743  0  2.377483  0  0  -0.626412  0  2.365171  0  -1.162942  0  -0.369639  -0.574785  0  2.38472  0
O  O111  1  0.83957168  0.87099049  0.01983631  1  0  -0.654255  0  2.115518  0  0  -0.593847  0  2.377322  0  0  -0.627514  0  2.365119  0  -1.166358  0  -0.369852  -0.575865  0  2.384453  0
O  O112  1  0.27273273  0.79671197  0.50498189  1  0  -0.717602  0  2.053474  0  0  -0.666978  0  2.319141  0  0  -0.701806  0  2.303869  0  -1.181162  0  -0.37942  -0.649341  0  2.327457  0
O  O113  1  0.47608604  0.20311803  0.99498143  1  0  -0.716672  0  2.055207  0  0  -0.665983  0  2.319622  0  0  -0.700771  0  2.304479  0  -1.184599  0  -0.379129  -0.64826  0  2.327817  0
O  O114  1  0.72726881  0.20328711  0.49501399  1  0  -0.717573  0  2.053273  0  0  -0.666927  0  2.318904  0  0  -0.701774  0  2.30366  0  -1.181173  0  -0.37939  -0.649287  0  2.327217  0
O  O115  1  0.52391533  0.79687648  0.00502302  1  0  -0.71675  0  2.055116  0  0  -0.66608  0  2.319469  0  0  -0.700878  0  2.304321  0  -1.18455  0  -0.37919  -0.648356  0  2.327665  0
O  O116  1  0.84977348  0.88425099  0.43988025  1  0  -0.664737  0  2.062021  0  0  -0.618869  0  2.319676  0  0  -0.651162  0  2.307073  0  -1.173182  0  -0.371618  -0.602094  0  2.326679  0
O  O117  1  0.96557616  0.11572524  0.06020196  1  0  -0.665772  0  2.060738  0  0  -0.619722  0  2.31863  0  0  -0.651948  0  2.305968  0  -1.181096  0  -0.372172  -0.603184  0  2.325738  0
O  O118  1  0.15022536  0.11574900  0.56012046  1  0  -0.664633  0  2.062444  0  0  -0.618803  0  2.320041  0  0  -0.651087  0  2.307437  0  -1.173357  0  -0.371595  -0.60203  0  2.327045  0
O  O119  1  0.03441595  0.88428024  0.93980396  1  0  -0.66579  0  2.06087  0  0  -0.619751  0  2.318754  0  0  -0.65197  0  2.306089  0  -1.180897  0  -0.372147  -0.603215  0  2.325866  0
O  O120  1  0.50226553  0.04045782  0.37781925  1  0  -0.748725  0  2.096963  0  0  -0.698714  0  2.359024  0  0  -0.736558  0  2.348166  0  -1.200545  0  -0.392543  -0.68012  0  2.364586  0
O  O121  1  0.46203312  0.95980265  0.12216413  1  0  -0.748595  0  2.098779  0  0  -0.698862  0  2.360278  0  0  -0.736653  0  2.349424  0  -1.19774  0  -0.392863  -0.680275  0  2.365863  0
O  O122  1  0.49773299  0.95953943  0.62218006  1  0  -0.748774  0  2.097031  0  0  -0.698782  0  2.359218  0  0  -0.736616  0  2.348357  0  -1.200604  0  -0.392577  -0.680187  0  2.36478  0
O  O123  1  0.53797130  0.04020008  0.87783918  1  0  -0.748584  0  2.099011  0  0  -0.698838  0  2.360421  0  0  -0.736619  0  2.349563  0  -1.198137  0  -0.392805  -0.680264  0  2.366033  0
O  O124  1  0.50574636  0.83293271  0.45493973  1  0  -0.731604  0  2.106669  0  0  -0.681317  0  2.372213  0  0  -0.71843  0  2.359141  0  -1.195069  0  -0.394723  -0.663476  0  2.379585  0
O  O125  1  0.67290724  0.16701153  0.04504343  1  0  -0.730374  0  2.107931  0  0  -0.68044  0  2.373119  0  0  -0.717397  0  2.360037  0  -1.199755  0  -0.395162  -0.662529  0  2.380442  0
O  O126  1  0.49425971  0.16706911  0.54505934  1  0  -0.731445  0  2.106925  0  0  -0.681189  0  2.372515  0  0  -0.71829  0  2.359446  0  -1.195265  0  -0.394648  -0.663351  0  2.37989  0
O  O127  1  0.32709943  0.83298938  0.95496212  1  0  -0.730314  0  2.108183  0  0  -0.680416  0  2.373307  0  0  -0.717367  0  2.36023  0  -1.200161  0  -0.395094  -0.662507  0  2.380635  0
O  O128  1  0.17811874  0.87565255  0.67393606  1  0  -0.666296  0  2.009372  0  0  -0.623982  0  2.251448  0  0  -0.654574  0  2.237299  0  -1.178381  0  -0.388958  -0.608739  0  2.258876  0
O  O129  1  0.30228424  0.12425696  0.82600561  1  0  -0.666608  0  2.011488  0  0  -0.624479  0  2.2536  0  0  -0.654988  0  2.239463  0  -1.17956  0  -0.388878  -0.609221  0  2.261045  0
O  O130  1  0.82188143  0.12434378  0.32606079  1  0  -0.666376  0  2.00967  0  0  -0.624047  0  2.251759  0  0  -0.654648  0  2.237609  0  -1.178332  0  -0.389002  -0.608805  0  2.259188  0
O  O131  1  0.69771818  0.87573755  0.17399229  1  0  -0.666415  0  2.011295  0  0  -0.624264  0  2.253406  0  0  -0.654778  0  2.239266  0  -1.179554  0  -0.388784  -0.609009  0  2.26085  0
O  O132  1  0.21152654  0.87805807  0.80766153  1  0  -0.648733  0  2.031304  0  0  -0.60646  0  2.277926  0  0  -0.636765  0  2.26531  0  -1.164183  0  -0.370525  -0.590816  0  2.284688  0
O  O133  1  0.33319622  0.12190445  0.69228080  1  0  -0.648841  0  2.02925  0  0  -0.606486  0  2.275766  0  0  -0.636881  0  2.263197  0  -1.179709  0  -0.370628  -0.590867  0  2.2825  0
O  O134  1  0.78846791  0.12193735  0.19233822  1  0  -0.648791  0  2.031414  0  0  -0.606512  0  2.278058  0  0  -0.636819  0  2.265439  0  -1.164235  0  -0.370537  -0.590863  0  2.284806  0
O  O135  1  0.66680335  0.87809280  0.30771791  1  0  -0.64873  0  2.029379  0  0  -0.606367  0  2.275892  0  0  -0.636769  0  2.263328  0  -1.179867  0  -0.370575  -0.590747  0  2.282626  0
