# generated using pymatgen
data_CuH8C10N3ClO2
_symmetry_space_group_name_H-M   'P 1'
_cell_length_a   6.87816723
_cell_length_b   9.09109318
_cell_length_c   16.90948756
_cell_angle_alpha   103.19665894
_cell_angle_beta   90.00080804
_cell_angle_gamma   90.00040723
_symmetry_Int_Tables_number   1
_chemical_formula_structural   CuH8C10N3ClO2
_chemical_formula_sum   'Cu4 H32 C40 N12 Cl4 O8'
_cell_volume   1029.42895481
_cell_formula_units_Z   4
loop_
 _symmetry_equiv_pos_site_id
 _symmetry_equiv_pos_as_xyz
  1  'x, y, z'
loop_
 _atom_site_type_symbol
 _atom_site_label
 _atom_site_symmetry_multiplicity
 _atom_site_fract_x
 _atom_site_fract_y
 _atom_site_fract_z
 _atom_site_occupancy
 _atom_site_pbe_cm5_charge
 _atom_site_pbe_ddec_charge
 _atom_site_pbe_ddec_spin_density
 _atom_site_pbe_ddec_sum_bond_order
 _atom_site_pbe_magmom
Cu  Cu0  1  0.82417811  0.65157708  0.87424566  1  0.689777  0.747737  -0.737189  2.400272  -0.554
Cu  Cu1  1  0.32417148  0.34844299  0.62576030  1  0.68968  0.747618  0.737226  2.400479  0.554
Cu  Cu2  1  0.17581370  0.34841455  0.12575103  1  0.689728  0.747654  0.737169  2.400588  0.554
Cu  Cu3  1  0.67581016  0.65157912  0.37424666  1  0.689738  0.747736  -0.737202  2.400457  -0.554
H  H4  1  0.85881368  0.12530140  0.92391959  1  0.111508  0.121947  -0.001239  1.056588  -0.001
H  H5  1  0.35881454  0.87470545  0.57606956  1  0.111524  0.122041  0.001239  1.056412  0.001
H  H6  1  0.14118104  0.87467894  0.07607097  1  0.111596  0.122089  0.001239  1.056504  0.001
H  H7  1  0.64118454  0.12530319  0.42391090  1  0.111506  0.121996  -0.00124  1.056534  -0.001
H  H8  1  0.75759985  0.31533887  0.07103491  1  0.111251  0.150043  -0.000763  1.022386  -0.001
H  H9  1  0.25761119  0.68466005  0.42895147  1  0.1112  0.149987  0.000763  1.022377  0.001
H  H10  1  0.24240796  0.68464149  0.92895269  1  0.111237  0.149988  0.000763  1.022323  0.001
H  H11  1  0.74240098  0.31533728  0.57103231  1  0.111263  0.150068  -0.000763  1.022343  -0.001
H  H12  1  0.64371764  0.59882854  0.15558680  1  0.112723  0.138292  -0.000818  0.999135  -0.001
H  H13  1  0.14371761  0.40113775  0.34440614  1  0.112802  0.138433  0.000818  0.999011  0.001
H  H14  1  0.35632070  0.40113598  0.84440713  1  0.112788  0.138446  0.000818  0.99887  0.001
H  H15  1  0.85627420  0.59883240  0.65559085  1  0.11274  0.138305  -0.000818  0.999067  -0.001
H  H16  1  0.57936122  0.87002976  0.21605814  1  0.091681  0.102504  -0.000188  1.058552  0.0
H  H17  1  0.07933479  0.12993705  0.28395460  1  0.091675  0.102549  0.000188  1.058581  0.0
H  H18  1  0.42069166  0.12994036  0.78394712  1  0.091714  0.10263  0.000188  1.05844  0.0
H  H19  1  0.92061341  0.87003413  0.71607149  1  0.09168  0.102505  -0.000188  1.058541  0.0
H  H20  1  0.59433519  0.05778551  0.12603052  1  0.105308  0.12286  -0.000874  1.02063  -0.001
H  H21  1  0.09431502  0.94221190  0.37399378  1  0.105364  0.122852  0.000874  1.020669  0.001
H  H22  1  0.40569151  0.94220834  0.87397768  1  0.105329  0.122806  0.000874  1.020771  0.001
H  H23  1  0.90564045  0.05778185  0.62604102  1  0.10527  0.122867  -0.000874  1.02068  -0.001
H  H24  1  0.70289619  0.96298719  0.98130303  1  0.110231  0.081803  -0.001595  1.031146  -0.002
H  H25  1  0.20289024  0.03704425  0.51871843  1  0.110291  0.081851  0.001595  1.031232  0.002
H  H26  1  0.29709853  0.03699312  0.01869935  1  0.110273  0.081856  0.001595  1.031172  0.002
H  H27  1  0.79709431  0.96299926  0.48131188  1  0.110217  0.081801  -0.001595  1.031157  -0.002
H  H28  1  0.71030972  0.25261330  0.76357782  1  0.115141  0.133706  0.000187  1.008977  0.0
H  H29  1  0.21028879  0.74742056  0.73641264  1  0.115232  0.133753  -0.000187  1.008853  0.0
H  H30  1  0.28970390  0.74736479  0.23641187  1  0.11522  0.13374  -0.000187  1.00886  0.0
H  H31  1  0.78970593  0.25263551  0.26357783  1  0.115206  0.13374  0.000187  1.008949  0.0
H  H32  1  0.93206352  0.16678040  0.78383276  1  0.124888  0.138849  -0.000407  0.969118  0.0
H  H33  1  0.43204704  0.83325983  0.71616034  1  0.124873  0.138812  0.000407  0.969276  0.0
H  H34  1  0.06795883  0.83322142  0.21615986  1  0.124919  0.138951  0.000407  0.969024  0.0
H  H35  1  0.56795059  0.16678157  0.28382594  1  0.124857  0.138797  -0.000407  0.969095  0.0
C  C36  1  0.82261881  0.24494861  0.93928566  1  0.026631  -0.052462  -0.00285  3.866292  -0.003
C  C37  1  0.32260931  0.75506359  0.56070572  1  0.026406  -0.052813  0.002847  3.866319  0.003
C  C38  1  0.17741081  0.75503739  0.06070619  1  0.026456  -0.052842  0.002846  3.866515  0.003
C  C39  1  0.67738832  0.24495068  0.43928017  1  0.02667  -0.052479  -0.00285  3.866221  -0.003
C  C40  1  0.77226421  0.34325426  0.01230424  1  -0.102222  -0.232385  -0.001067  3.959261  0.0
C  C41  1  0.27226860  0.65675268  0.48768559  1  -0.102037  -0.232148  0.001067  3.959108  0.0
C  C42  1  0.22776396  0.65673513  0.98768685  1  -0.102218  -0.23224  0.001067  3.959302  0.0
C  C43  1  0.72773775  0.34325368  0.51230168  1  -0.10227  -0.232451  -0.001067  3.959282  0.0
C  C44  1  0.74812426  0.48482485  0.99289001  1  0.095534  0.111816  -0.001935  4.058828  -0.003
C  C45  1  0.24814413  0.51517993  0.50710594  1  0.095553  0.111811  0.001933  4.058799  0.003
C  C46  1  0.25187483  0.51515889  0.00710097  1  0.095584  0.111984  0.001934  4.058797  0.003
C  C47  1  0.75187677  0.48482527  0.49288888  1  0.095589  0.111955  -0.001935  4.058914  -0.003
C  C48  1  0.70783313  0.63872307  0.03692145  1  0.115946  0.17773  -0.000492  4.012224  0.0
C  C49  1  0.20784994  0.36127425  0.46308042  1  0.115901  0.177623  0.000493  4.012495  0.0
C  C50  1  0.29218194  0.36125499  0.96307711  1  0.116032  0.177709  0.000492  4.012185  0.0
C  C51  1  0.79217240  0.63872528  0.53692079  1  0.11588  0.177593  -0.000492  4.012247  0.0
C  C52  1  0.65678773  0.68244240  0.11875830  1  -0.079829  -0.142521  -0.004032  3.884802  -0.004
C  C53  1  0.15678094  0.31754318  0.38124478  1  -0.079869  -0.142653  0.004031  3.884837  0.004
C  C54  1  0.34324334  0.31752662  0.88123972  1  -0.079844  -0.142585  0.004032  3.884491  0.004
C  C55  1  0.84320070  0.68244389  0.61876081  1  -0.079757  -0.142472  -0.004032  3.88452  -0.004
C  C56  1  0.61749946  0.83463048  0.15181030  1  -0.07151  -0.025844  0.003666  3.937927  0.003
C  C57  1  0.11746977  0.16536040  0.34819735  1  -0.071495  -0.025822  -0.003665  3.937921  -0.003
C  C58  1  0.38254760  0.16534304  0.84819183  1  -0.071596  -0.026197  -0.003665  3.938191  -0.003
C  C59  1  0.88247116  0.83463454  0.65182044  1  -0.071507  -0.025792  0.003666  3.937873  0.003
C  C60  1  0.62793792  0.93854752  0.10270313  1  -0.08514  -0.122837  -0.003912  3.948304  -0.005
C  C61  1  0.12793369  0.06145023  0.39730602  1  -0.085191  -0.12279  0.003911  3.948429  0.005
C  C62  1  0.37209170  0.06143844  0.89730054  1  -0.085194  -0.12262  0.003912  3.948362  0.005
C  C63  1  0.87203050  0.93854698  0.60271028  1  -0.085233  -0.122955  -0.003912  3.94868  -0.005
C  C64  1  0.68512594  0.88714143  0.02206284  1  0.05107  0.109299  0.001026  3.945266  0.002
C  C65  1  0.18510753  0.11286696  0.47794795  1  0.05094  0.109123  -0.001025  3.945192  -0.002
C  C66  1  0.31488041  0.11283662  0.97793808  1  0.050974  0.109134  -0.001025  3.945165  -0.002
C  C67  1  0.81485957  0.88714720  0.52206867  1  0.051153  0.109273  0.001026  3.945483  0.002
C  C68  1  0.85300097  0.27393771  0.79396893  1  -0.048607  -0.260569  -0.000606  3.843054  -0.001
C  C69  1  0.35298316  0.72609845  0.70602973  1  -0.048768  -0.260671  0.000606  3.842853  0.001
C  C70  1  0.14700829  0.72605280  0.20602526  1  -0.048713  -0.260776  0.000607  3.842999  0.001
C  C71  1  0.64701302  0.27393953  0.29396382  1  -0.048665  -0.260505  -0.000606  3.843066  -0.001
C  C72  1  0.96070382  0.38056398  0.75021445  1  0.214216  0.626886  -0.000731  4.144931  0.001
C  C73  1  0.46068217  0.61948208  0.74979551  1  0.214472  0.627328  0.00073  4.144435  -0.001
C  C74  1  0.03928364  0.61944007  0.24978378  1  0.214247  0.626974  0.000731  4.144686  -0.001
C  C75  1  0.53928783  0.38055587  0.25020572  1  0.214216  0.626806  -0.000733  4.145118  0.001
N  N76  1  0.77874433  0.47026497  0.91264021  1  -0.279874  -0.276096  -0.057337  3.575036  -0.071
N  N77  1  0.27875548  0.52975475  0.58735835  1  -0.279972  -0.276313  0.057337  3.575126  0.071
N  N78  1  0.22124458  0.52971877  0.08735017  1  -0.279806  -0.276059  0.057337  3.575088  0.071
N  N79  1  0.72125959  0.47026627  0.41263902  1  -0.27988  -0.276144  -0.05734  3.57512  -0.071
N  N80  1  0.82601734  0.32635152  0.88097660  1  -0.132585  0.233494  -0.001988  3.751924  -0.001
N  N81  1  0.32600475  0.67367312  0.61901929  1  -0.132316  0.233876  0.001988  3.751418  0.001
N  N82  1  0.17399774  0.67363334  0.11901570  1  -0.132609  0.233592  0.001988  3.751732  0.001
N  N83  1  0.67399579  0.32635357  0.38097227  1  -0.132593  0.233468  -0.001987  3.751876  -0.001
N  N84  1  0.72495934  0.74190092  0.99018423  1  -0.332551  -0.270467  -0.0729  3.576577  -0.092
N  N85  1  0.22495803  0.25810813  0.50982512  1  -0.332532  -0.270413  0.072888  3.576518  0.092
N  N86  1  0.27503684  0.25807939  0.00981638  1  -0.332545  -0.270531  0.072902  3.576686  0.092
N  N87  1  0.77504832  0.74190380  0.49018413  1  -0.332551  -0.270444  -0.072895  3.576603  -0.092
Cl  Cl88  1  0.96484857  0.86546312  0.85878757  1  -0.295107  -0.504078  -0.069747  1.262482  -0.08
Cl  Cl89  1  0.46484777  0.13456373  0.64123127  1  -0.295119  -0.504131  0.069745  1.262534  0.08
Cl  Cl90  1  0.03515924  0.13453186  0.14122017  1  -0.295125  -0.504139  0.069751  1.262495  0.08
Cl  Cl91  1  0.53516004  0.86546062  0.35878248  1  -0.295119  -0.50413  -0.069745  1.262551  -0.08
O  O92  1  0.96828983  0.52413525  0.77827693  1  -0.324258  -0.543229  -0.067648  2.322652  -0.092
O  O93  1  0.46826589  0.47590522  0.72173592  1  -0.32443  -0.543498  0.067657  2.322312  0.092
O  O94  1  0.03168453  0.47586882  0.22171952  1  -0.324288  -0.543274  0.067646  2.322449  0.092
O  O95  1  0.53170557  0.52413157  0.27827581  1  -0.32433  -0.543262  -0.067649  2.322518  -0.092
O  O96  1  0.03153331  0.31418041  0.68301791  1  -0.324163  -0.566305  -0.015688  2.257719  -0.019
O  O97  1  0.53151938  0.68585870  0.81698518  1  -0.324197  -0.566495  0.015689  2.257795  0.019
O  O98  1  0.96843960  0.68582818  0.31697614  1  -0.324194  -0.566411  0.015687  2.257663  0.019
O  O99  1  0.46845645  0.31417927  0.18301369  1  -0.324091  -0.566236  -0.015681  2.257942  -0.019
