# generated using pymatgen
data_CdH18C20S2(N4O)2
_symmetry_space_group_name_H-M   'P 1'
_cell_length_a   5.91933386
_cell_length_b   7.97561645
_cell_length_c   12.77602304
_cell_angle_alpha   72.67615898
_cell_angle_beta   87.46464349
_cell_angle_gamma   82.41215141
_symmetry_Int_Tables_number   1
_chemical_formula_structural   CdH18C20S2(N4O)2
_chemical_formula_sum   'Cd1 H18 C20 S2 N8 O2'
_cell_volume   570.74952101
_cell_formula_units_Z   1
loop_
 _symmetry_equiv_pos_site_id
 _symmetry_equiv_pos_as_xyz
  1  'x, y, z'
loop_
 _atom_site_type_symbol
 _atom_site_label
 _atom_site_symmetry_multiplicity
 _atom_site_fract_x
 _atom_site_fract_y
 _atom_site_fract_z
 _atom_site_occupancy
 _atom_site_hle17_bader_spin_density
 _atom_site_hle17_ddec_charge
 _atom_site_hle17_ddec_spin_density
 _atom_site_hle17_ddec_sum_bond_order
 _atom_site_hle17_magmom
 _atom_site_hse06_10hf_bader_spin_density
 _atom_site_hse06_10hf_ddec_charge
 _atom_site_hse06_10hf_ddec_spin_density
 _atom_site_hse06_10hf_ddec_sum_bond_order
 _atom_site_hse06_10hf_magmom
 _atom_site_hse06_bader_spin_density
 _atom_site_hse06_ddec_charge
 _atom_site_hse06_ddec_spin_density
 _atom_site_hse06_ddec_sum_bond_order
 _atom_site_hse06_magmom
 _atom_site_pbe_bader_spin_density
 _atom_site_pbe_cm5_charge
 _atom_site_pbe_ddec_charge
 _atom_site_pbe_ddec_spin_density
 _atom_site_pbe_ddec_sum_bond_order
 _atom_site_pbe_magmom
Cd  Cd0  1  0.50000801  0.99999774  0.99999574  1  0  0.945159  0  2.005234  0  0  0.762009  0  2.473819  0  0  0.806885  0  2.43707  0  0  0.721644  0.730821  0  2.498437  0
H  H1  1  0.48981307  0.24053826  0.50140788  1  0  0.287706  0  0.934474  0  0  0.272043  0  0.99789  0  0  0.278744  0  0.993809  0  0  0.304994  0.267333  0  1.000799  0
H  H2  1  0.51016995  0.75946180  0.49859460  1  0  0.287565  0  0.934743  0  0  0.272044  0  0.99799  0  0  0.278744  0  0.993909  0  0  0.304931  0.26733  0  1.000912  0
H  H3  1  0.72607958  0.31828433  0.60947153  1  0  0.146494  0  0.928269  0  0  0.154781  0  0.993578  0  0  0.157606  0  0.992173  0  0  0.121822  0.152807  0  0.994622  0
H  H4  1  0.27391251  0.68171300  0.39053826  1  0  0.146453  0  0.928239  0  0  0.154814  0  0.993516  0  0  0.157643  0  0.992106  0  0  0.121807  0.152842  0  0.99456  0
H  H5  1  0.86382076  0.09769657  0.64953448  1  0  0.149983  0  0.938952  0  0  0.155648  0  1.009413  0  0  0.159222  0  1.007013  0  0  0.116726  0.153118  0  1.011175  0
H  H6  1  0.13617704  0.90230734  0.35047159  1  0  0.150044  0  0.938908  0  0  0.155719  0  1.009406  0  0  0.159294  0  1.007003  0  0  0.116751  0.153191  0  1.011169  0
H  H7  1  0.38269932  0.13539987  0.36043136  1  0  0.089292  0  0.951394  0  0  0.098683  0  1.02248  0  0  0.100366  0  1.020744  0  0  0.107513  0.097423  0  1.023858  0
H  H8  1  0.61730299  0.86459480  0.63956769  1  0  0.089296  0  0.951385  0  0  0.098674  0  1.022496  0  0  0.100352  0  1.020756  0  0  0.107513  0.097412  0  1.023868  0
H  H9  1  0.67487979  0.09411300  0.32249911  1  0  0.085628  0  0.923628  0  0  0.099006  0  0.985913  0  0  0.099664  0  0.985581  0  0  0.110697  0.098463  0  0.986312  0
H  H10  1  0.32512423  0.90589484  0.67750762  1  0  0.085611  0  0.923586  0  0  0.099023  0  0.985847  0  0  0.099677  0  0.985504  0  0  0.110696  0.098478  0  0.986243  0
H  H11  1  0.86965955  0.33684141  0.19781162  1  0  0.103001  0  0.994249  0  0  0.107807  0  1.066869  0  0  0.110852  0  1.066193  0  0  0.096528  0.105612  0  1.067506  0
H  H12  1  0.13034242  0.66314402  0.80218758  1  0  0.103055  0  0.9943  0  0  0.107882  0  1.066876  0  0  0.110928  0  1.0662  0  0  0.096592  0.105694  0  1.067505  0
H  H13  1  0.82320135  0.63802548  0.06163362  1  0  0.065083  0  0.965042  0  0  0.071145  0  1.034563  0  0  0.073215  0  1.032947  0  0  0.104273  0.069646  0  1.035658  0
H  H14  1  0.17680389  0.36195994  0.93836158  1  0  0.065124  0  0.965032  0  0  0.071115  0  1.034593  0  0  0.073179  0  1.032984  0  0  0.104275  0.069621  0  1.035688  0
H  H15  1  0.15239585  0.73757794  0.15535601  1  0  0.069845  0  0.97046  0  0  0.078948  0  1.036564  0  0  0.079977  0  1.036584  0  0  0.107932  0.078145  0  1.036623  0
H  H16  1  0.84761561  0.26242330  0.84464079  1  0  0.069807  0  0.970438  0  0  0.078903  0  1.036569  0  0  0.079933  0  1.03659  0  0  0.107893  0.078102  0  1.036627  0
H  H17  1  0.16947632  0.43813762  0.29418636  1  0  0.114802  0  0.966115  0  0  0.123438  0  1.029445  0  0  0.126426  0  1.029382  0  0  0.105488  0.121304  0  1.029669  0
H  H18  1  0.83052758  0.56187024  0.70581646  1  0  0.114742  0  0.966026  0  0  0.123363  0  1.02937  0  0  0.126351  0  1.029307  0  0  0.105479  0.12123  0  1.029591  0
C  C19  1  0.97752436  0.05423994  0.12123570  1  0  0.286693  0  4.01425  0  0  0.266817  0  4.318778  0  0  0.28786  0  4.33261  0  0  0.145155  0.25251  0  4.309134  0
C  C20  1  0.02248975  0.94575338  0.87875467  1  0  0.286798  0  4.014354  0  0  0.266918  0  4.318888  0  0  0.28796  0  4.332717  0  0  0.145187  0.252607  0  4.309249  0
C  C21  1  0.08306895  0.29021926  0.59485595  1  0  0.390494  0  3.674285  0  0  0.373996  0  3.955408  0  0  0.385854  0  3.970399  0  0  0.206882  0.365865  0  3.945411  0
C  C22  1  0.91692240  0.70979395  0.40514935  1  0  0.390404  0  3.673873  0  0  0.373943  0  3.955059  0  0  0.385811  0  3.970042  0  0  0.206819  0.365811  0  3.945061  0
C  C23  1  0.86642100  0.22890665  0.58820325  1  0  -0.331121  0  3.738262  0  0  -0.360563  0  3.965061  0  0  -0.366105  0  3.968446  0  0  -0.129698  -0.356737  0  3.962739  0
C  C24  1  0.13356622  0.77109998  0.41180182  1  0  -0.331013  0  3.737988  0  0  -0.360612  0  3.964968  0  0  -0.366156  0  3.968345  0  0  -0.129663  -0.356785  0  3.962644  0
C  C25  1  0.83363732  0.20900806  0.47393230  1  0  0.604139  0  3.811244  0  0  0.557645  0  4.108407  0  0  0.586335  0  4.10836  0  0  0.245665  0.538405  0  4.107651  0
C  C26  1  0.16634778  0.79102372  0.52606738  1  0  0.604266  0  3.810978  0  0  0.557821  0  4.108141  0  0  0.586513  0  4.108088  0  0  0.245788  0.538574  0  4.107398  0
C  C27  1  0.54667963  0.18817883  0.34686691  1  0  0.002585  0  3.652414  0  0  -0.060645  0  3.905852  0  0  -0.055021  0  3.913331  0  0  -0.05679  -0.064473  0  3.90081  0
C  C28  1  0.45332022  0.81182243  0.65313803  1  0  0.002619  0  3.652112  0  0  -0.060599  0  3.905555  0  0  -0.054904  0  3.912907  0  0  -0.056745  -0.064413  0  3.90049  0
C  C29  1  0.52360994  0.36485240  0.25888190  1  0  0.135057  0  3.689458  0  0  0.152429  0  3.923909  0  0  0.156284  0  3.945519  0  0  0.012345  0.150108  0  3.909199  0
C  C30  1  0.47639538  0.63514489  0.74111736  1  0  0.135203  0  3.689392  0  0  0.15249  0  3.92396  0  0  0.156333  0  3.945566  0  0  0.012372  0.150163  0  3.909252  0
C  C31  1  0.70760458  0.42158886  0.19129092  1  0  -0.151682  0  3.690578  0  0  -0.169587  0  3.93212  0  0  -0.17757  0  3.954175  0  0  -0.083991  -0.164471  0  3.917371  0
C  C32  1  0.29239092  0.57840586  0.80870674  1  0  -0.151838  0  3.690493  0  0  -0.169746  0  3.932047  0  0  -0.177731  0  3.954101  0  0  -0.084109  -0.164638  0  3.9173  0
C  C33  1  0.68322797  0.58926809  0.11588622  1  0  0.132551  0  3.720715  0  0  0.105109  0  3.96665  0  0  0.112189  0  3.985543  0  0  0.041493  0.100602  0  3.953667  0
C  C34  1  0.31677445  0.41072527  0.88410993  1  0  0.132633  0  3.720502  0  0  0.105299  0  3.966418  0  0  0.112381  0  3.985311  0  0  0.041607  0.100788  0  3.953444  0
C  C35  1  0.30874207  0.64493455  0.16764205  1  0  0.122682  0  3.729873  0  0  0.093904  0  3.978596  0  0  0.100349  0  3.998931  0  0  0.038917  0.089786  0  3.964699  0
C  C36  1  0.69126730  0.35506934  0.83235432  1  0  0.122625  0  3.729793  0  0  0.093862  0  3.978511  0  0  0.100306  0  3.998845  0  0  0.038924  0.089743  0  3.964619  0
C  C37  1  0.31904361  0.47911478  0.24504898  1  0  -0.171048  0  3.705956  0  0  -0.189366  0  3.951916  0  0  -0.197175  0  3.973217  0  0  -0.08783  -0.184381  0  3.937657  0
C  C38  1  0.68095084  0.52088786  0.75495194  1  0  -0.17091  0  3.706107  0  0  -0.189168  0  3.952066  0  0  -0.196978  0  3.973375  0  0  -0.087822  -0.184179  0  3.937802  0
S  S39  1  0.21559706  0.11639300  0.14705967  1  0  -0.319486  0  2.196216  0  0  -0.28443  0  2.529331  0  0  -0.300543  0  2.522128  0  0  -0.118091  -0.273071  0  2.53393  0
S  S40  1  0.78441836  0.88360295  0.85293096  1  0  -0.319452  0  2.196247  0  0  -0.284387  0  2.529341  0  0  -0.300514  0  2.522159  0  0  -0.11805  -0.273028  0  2.533941  0
N  N41  1  0.80384155  0.00694580  0.10610181  1  0  -0.525305  0  2.867209  0  0  -0.473613  0  3.144642  0  0  -0.493513  0  3.152215  0  0  -0.392922  -0.460053  0  3.139335  0
N  N42  1  0.19617893  0.99303824  0.89388697  1  0  -0.525446  0  2.86728  0  0  -0.473749  0  3.14471  0  0  -0.493648  0  3.15228  0  0  -0.39298  -0.460186  0  3.139398  0
N  N43  1  0.48842742  0.70054346  0.10470304  1  0  -0.331771  0  3.283653  0  0  -0.254046  0  3.540207  0  0  -0.274377  0  3.561903  0  0  -0.331085  -0.240179  0  3.525049  0
N  N44  1  0.51157939  0.29945385  0.89528913  1  0  -0.331847  0  3.283371  0  0  -0.254169  0  3.53994  0  0  -0.274499  0  3.561631  0  0  -0.331123  -0.240309  0  3.524797  0
N  N45  1  0.61476313  0.20587750  0.45111924  1  0  -0.416822  0  3.29016  0  0  -0.360206  0  3.53855  0  0  -0.382186  0  3.547934  0  0  -0.415638  -0.345077  0  3.531695  0
N  N46  1  0.38522845  0.79412249  0.54888615  1  0  -0.416811  0  3.290167  0  0  -0.360324  0  3.538503  0  0  -0.382331  0  3.547903  0  0  -0.415648  -0.345193  0  3.531654  0
N  N47  1  0.26053562  0.33690523  0.59781829  1  0  -0.439305  0  2.59742  0  0  -0.413128  0  2.817111  0  0  -0.423931  0  2.828885  0  0  -0.311651  -0.405929  0  2.809378  0
N  N48  1  0.73943642  0.66310148  0.40218874  1  0  -0.439275  0  2.596938  0  0  -0.413123  0  2.816618  0  0  -0.423936  0  2.828408  0  0  -0.311616  -0.405926  0  2.808885  0
O  O49  1  0.99680212  0.19065145  0.41239337  1  0  -0.572126  0  1.937536  0  0  -0.526852  0  2.165317  0  0  -0.547994  0  2.161  0  0  -0.299586  -0.5122  0  2.167802  0
O  O50  1  0.00318291  0.80935914  0.58761415  1  0  -0.572181  0  1.937568  0  0  -0.526966  0  2.165358  0  0  -0.548118  0  2.161039  0  0  -0.299666  -0.512308  0  2.167846  0
