# generated using pymatgen
data_CdH8C12I2N4O
_symmetry_space_group_name_H-M   'P 1'
_cell_length_a   7.26341031
_cell_length_b   13.72824745
_cell_length_c   16.91400000
_cell_angle_alpha   111.05402283
_cell_angle_beta   102.91898420
_cell_angle_gamma   89.80837753
_symmetry_Int_Tables_number   1
_chemical_formula_structural   CdH8C12I2N4O
_chemical_formula_sum   'Cd4 H32 C48 I8 N16 O4'
_cell_volume   1528.62522773
_cell_formula_units_Z   4
loop_
 _symmetry_equiv_pos_site_id
 _symmetry_equiv_pos_as_xyz
  1  'x, y, z'
loop_
 _atom_site_type_symbol
 _atom_site_label
 _atom_site_symmetry_multiplicity
 _atom_site_fract_x
 _atom_site_fract_y
 _atom_site_fract_z
 _atom_site_occupancy
 _atom_site_hle17_bader_spin_density
 _atom_site_hle17_ddec_charge
 _atom_site_hle17_ddec_spin_density
 _atom_site_hle17_ddec_sum_bond_order
 _atom_site_hle17_magmom
 _atom_site_hse06_10hf_bader_spin_density
 _atom_site_hse06_10hf_ddec_charge
 _atom_site_hse06_10hf_ddec_spin_density
 _atom_site_hse06_10hf_ddec_sum_bond_order
 _atom_site_hse06_10hf_magmom
 _atom_site_hse06_bader_spin_density
 _atom_site_hse06_ddec_charge
 _atom_site_hse06_ddec_spin_density
 _atom_site_hse06_ddec_sum_bond_order
 _atom_site_hse06_magmom
 _atom_site_pbe_bader_charge
 _atom_site_pbe_bader_spin_density
 _atom_site_pbe_cm5_charge
 _atom_site_pbe_ddec_charge
 _atom_site_pbe_ddec_spin_density
 _atom_site_pbe_ddec_sum_bond_order
 _atom_site_pbe_magmom
Cd  Cd0  1  0.67398628  0.25491812  0.24410046  1  0  0.774863  0  2.078401  0  0  0.601765  0  2.54772  0  0  0.650682  0  2.510568  0  0.945357  0  0.536444  0.568109  0  2.572165  0
Cd  Cd1  1  0.43240755  0.24593476  0.75634860  1  0  0.77564  0  2.084675  0  0  0.602252  0  2.554881  0  0  0.651026  0  2.517701  0  0.945869  0  0.537963  0.568696  0  2.579342  0
Cd  Cd2  1  0.32601062  0.74508466  0.75590117  1  0  0.774861  0  2.078461  0  0  0.601775  0  2.547804  0  0  0.650692  0  2.510651  0  0.945494  0  0.536425  0.56812  0  2.572248  0
Cd  Cd3  1  0.56758439  0.75406332  0.24364409  1  0  0.775776  0  2.084647  0  0  0.602367  0  2.554877  0  0  0.651139  0  2.517693  0  0.945786  0  0.537974  0.568807  0  2.579344  0
H  H4  1  0.64524437  0.12906021  0.03365256  1  0  0.07368  0  0.969067  0  0  0.077943  0  1.041642  0  0  0.080854  0  1.039059  0  0.111428  0  0.098094  0.075763  0  1.043593  0
H  H5  1  0.61252816  0.37266296  0.96601352  1  0  0.074192  0  0.968113  0  0  0.078076  0  1.040928  0  0  0.081094  0  1.038207  0  0.112159  0  0.098523  0.075828  0  1.042985  0
H  H6  1  0.35475970  0.87094335  0.96634172  1  0  0.073732  0  0.968997  0  0  0.077981  0  1.041587  0  0  0.080896  0  1.03899  0  0.111619  0  0.098084  0.075783  0  1.043551  0
H  H7  1  0.38748082  0.62732650  0.03399072  1  0  0.074202  0  0.968129  0  0  0.07804  0  1.040965  0  0  0.081054  0  1.038247  0  0.112337  0  0.0986  0.075795  0  1.043017  0
H  H8  1  0.71696233  0.95858987  0.92917553  1  0  0.10485  0  0.982338  0  0  0.111017  0  1.04986  0  0  0.114642  0  1.048379  0  0.087911  0  0.087751  0.108314  0  1.051258  0
H  H9  1  0.78841455  0.54369618  0.07097284  1  0  0.105821  0  0.980998  0  0  0.112318  0  1.04812  0  0  0.115821  0  1.046878  0  0.092671  0  0.088768  0.109659  0  1.049368  0
H  H10  1  0.28304316  0.04141370  0.07082421  1  0  0.104884  0  0.982337  0  0  0.111058  0  1.049854  0  0  0.114683  0  1.048372  0  0.087906  0  0.087771  0.108354  0  1.051252  0
H  H11  1  0.21161901  0.45628780  0.92903098  1  0  0.105941  0  0.980993  0  0  0.112446  0  1.048084  0  0  0.116002  0  1.046789  0  0.092081  0  0.088836  0.109786  0  1.049332  0
H  H12  1  0.87654071  0.82921162  0.98810282  1  0  0.099252  0  0.933859  0  0  0.111048  0  0.990491  0  0  0.113685  0  0.988976  0  0.087718  0  0.108546  0.109111  0  0.991641  0
H  H13  1  0.89041945  0.67201613  0.01234805  1  0  0.098225  0  0.934366  0  0  0.110603  0  0.990251  0  0  0.113161  0  0.988843  0  0.113321  0  0.108393  0.108723  0  0.991349  0
H  H14  1  0.12346724  0.17078960  0.01189528  1  0  0.099308  0  0.933918  0  0  0.111087  0  0.990562  0  0  0.113729  0  0.989047  0  0.087597  0  0.108541  0.109149  0  0.991713  0
H  H15  1  0.10960882  0.32797020  0.98765535  1  0  0.098259  0  0.934359  0  0  0.110568  0  0.990313  0  0  0.113122  0  0.988912  0  0.112912  0  0.108425  0.10869  0  0.991411  0
H  H16  1  0.96202300  0.87463524  0.15141825  1  0  0.112189  0  0.971667  0  0  0.115687  0  1.044248  0  0  0.119804  0  1.041085  0  0.146822  0  0.094537  0.112649  0  1.04676  0
H  H17  1  0.81422766  0.62528511  0.84892436  1  0  0.112446  0  0.971271  0  0  0.115808  0  1.043922  0  0  0.119956  0  1.040743  0  0.132801  0  0.094438  0.112774  0  1.046389  0
H  H18  1  0.03798120  0.12536911  0.84858513  1  0  0.112236  0  0.971787  0  0  0.115738  0  1.044337  0  0  0.119854  0  1.041175  0  0.146766  0  0.09453  0.1127  0  1.046851  0
H  H19  1  0.18577086  0.37470984  0.15108402  1  0  0.112261  0  0.971513  0  0  0.11561  0  1.044179  0  0  0.119757  0  1.041001  0  0.132764  0  0.09433  0.112576  0  1.046645  0
H  H20  1  0.17226496  0.88731441  0.38615760  1  0  0.109349  0  0.96425  0  0  0.115041  0  1.034731  0  0  0.119169  0  1.030639  0  0.141705  0  0.096819  0.111987  0  1.037656  0
H  H21  1  0.78638652  0.61195421  0.61565681  1  0  0.108365  0  0.964531  0  0  0.113663  0  1.035519  0  0  0.117919  0  1.031278  0  0.141477  0  0.096598  0.11052  0  1.038587  0
H  H22  1  0.82772746  0.11268681  0.61383074  1  0  0.109329  0  0.96421  0  0  0.115027  0  1.03466  0  0  0.119155  0  1.030578  0  0.141911  0  0.096847  0.111975  0  1.037584  0
H  H23  1  0.21362909  0.38805093  0.38435085  1  0  0.108388  0  0.964498  0  0  0.113646  0  1.035512  0  0  0.117901  0  1.031273  0  0.141364  0  0.096578  0.110501  0  1.038584  0
H  H24  1  0.48363033  0.99310859  0.65671913  1  0  0.077562  0  0.963731  0  0  0.078575  0  1.04194  0  0  0.082386  0  1.038024  0  0.118898  0  0.098562  0.075792  0  1.044687  0
H  H25  1  0.82302839  0.50815754  0.34594910  1  0  0.077299  0  0.96256  0  0  0.078595  0  1.040314  0  0  0.082323  0  1.036522  0  0.111477  0  0.09905  0.075838  0  1.043037  0
H  H26  1  0.51636395  0.00688636  0.34326874  1  0  0.077489  0  0.963763  0  0  0.078515  0  1.041969  0  0  0.082314  0  1.038074  0  0.118783  0  0.098567  0.075742  0  1.044685  0
H  H27  1  0.17696802  0.49184211  0.65405749  1  0  0.077318  0  0.962527  0  0  0.078621  0  1.040222  0  0  0.082336  0  1.036466  0  0.111354  0  0.099025  0.075862  0  1.042947  0
H  H28  1  0.37601394  0.84699896  0.50884939  1  0  0.110162  0  0.960879  0  0  0.114221  0  1.030657  0  0  0.118087  0  1.02858  0  0.134172  0  0.104852  0.111431  0  1.032344  0
H  H29  1  0.86466895  0.65352066  0.49406360  1  0  0.110095  0  0.961762  0  0  0.114446  0  1.030888  0  0  0.118288  0  1.028878  0  0.132166  0  0.104763  0.111657  0  1.032525  0
H  H30  1  0.62397388  0.15299991  0.49113841  1  0  0.110156  0  0.960818  0  0  0.114223  0  1.030592  0  0  0.11809  0  1.028512  0  0.133846  0  0.104842  0.111434  0  1.03228  0
H  H31  1  0.13534700  0.34647743  0.50594086  1  0  0.110044  0  0.961721  0  0  0.114383  0  1.0309  0  0  0.118214  0  1.028888  0  0.132114  0  0.104743  0.111594  0  1.032535  0
H  H32  1  0.20345710  0.20848007  0.56495189  1  0  0.084454  0  0.94345  0  0  0.089507  0  1.01527  0  0  0.092957  0  1.011021  0  0.101556  0  0.113429  0.087007  0  1.018291  0
H  H33  1  0.63737083  0.29133253  0.43530363  1  0  0.083815  0  0.944842  0  0  0.089183  0  1.016755  0  0  0.092617  0  1.012485  0  0.128387  0  0.113347  0.086671  0  1.019772  0
H  H34  1  0.79654061  0.79151879  0.43503982  1  0  0.084417  0  0.943379  0  0  0.089482  0  1.015211  0  0  0.092932  0  1.010962  0  0.101583  0  0.113408  0.086981  0  1.018232  0
H  H35  1  0.36261443  0.70867730  0.56470486  1  0  0.083843  0  0.944692  0  0  0.089198  0  1.016626  0  0  0.092634  0  1.012356  0  0.128224  0  0.113379  0.086684  0  1.019643  0
C  C36  1  0.71341871  0.07020698  0.05698846  1  0  0.140407  0  3.693883  0  0  0.111483  0  3.942095  0  0  0.117749  0  3.960077  0  0.530436  0  0.049208  0.10739  0  3.929934  0
C  C37  1  0.65792605  0.43117544  0.94286679  1  0  0.139926  0  3.695386  0  0  0.110818  0  3.944557  0  0  0.117076  0  3.962493  0  0.48722  0  0.048956  0.106694  0  3.932483  0
C  C38  1  0.28658654  0.92979502  0.94300547  1  0  0.14037  0  3.694082  0  0  0.111467  0  3.942279  0  0  0.117732  0  3.960267  0  0.530332  0  0.049227  0.107393  0  3.930121  0
C  C39  1  0.34208482  0.56881716  0.05713854  1  0  0.14008  0  3.695108  0  0  0.111029  0  3.944241  0  0  0.11729  0  3.962186  0  0.487633  0  0.04895  0.106903  0  3.932169  0
C  C40  1  0.75432014  0.97530011  0.99916416  1  0  -0.093409  0  3.689634  0  0  -0.105779  0  3.934292  0  0  -0.11142  0  3.955491  0  -0.038596  0  -0.077684  -0.102221  0  3.920209  0
C  C41  1  0.75636292  0.52634517  0.00092310  1  0  -0.096578  0  3.694771  0  0  -0.109206  0  3.939602  0  0  -0.114855  0  3.960816  0  0.021334  0  -0.078555  -0.10555  0  3.925522  0
C  C42  1  0.24568322  0.02469876  0.00083459  1  0  -0.093448  0  3.689693  0  0  -0.105848  0  3.934368  0  0  -0.111489  0  3.95557  0  -0.038455  0  -0.077693  -0.102289  0  3.920279  0
C  C43  1  0.24365313  0.47364430  0.99908477  1  0  -0.096871  0  3.694833  0  0  -0.109504  0  3.939579  0  0  -0.115203  0  3.96076  0  0.021669  0  -0.078726  -0.105847  0  3.9255  0
C  C44  1  0.84319164  0.90341991  0.03234240  1  0  -0.000597  0  3.690288  0  0  -0.015289  0  3.936224  0  0  -0.013744  0  3.954803  0  0.085213  0  -0.062337  -0.016104  0  3.923612  0
C  C45  1  0.81281160  0.59766449  0.96787197  1  0  0.00234  0  3.690472  0  0  -0.012744  0  3.936247  0  0  -0.011057  0  3.954781  0  -0.092881  0  -0.061647  -0.013691  0  3.923638  0
C  C46  1  0.15681232  0.09658287  0.96765578  1  0  -0.000566  0  3.69039  0  0  -0.015264  0  3.936295  0  0  -0.013728  0  3.954881  0  0.085364  0  -0.062344  -0.016078  0  3.923684  0
C  C47  1  0.18720550  0.40232262  0.03213355  1  0  0.002342  0  3.690736  0  0  -0.012703  0  3.936516  0  0  -0.011015  0  3.955061  0  -0.092283  0  -0.061635  -0.01365  0  3.923903  0
C  C48  1  0.89130867  0.92806305  0.12234911  1  0  -0.098569  0  3.680471  0  0  -0.123427  0  3.93259  0  0  -0.12655  0  3.950611  0  -0.087448  0  -0.07598  -0.121581  0  3.920775  0
C  C49  1  0.77186680  0.57226151  0.87781202  1  0  -0.098991  0  3.677463  0  0  -0.124522  0  3.929118  0  0  -0.12768  0  3.947121  0  -0.005474  0  -0.07559  -0.122589  0  3.91726  0
C  C50  1  0.10869306  0.07194365  0.87764999  1  0  -0.098792  0  3.680677  0  0  -0.123645  0  3.932712  0  0  -0.126771  0  3.950735  0  -0.087589  0  -0.075988  -0.121798  0  3.920899  0
C  C51  1  0.22814197  0.42773579  0.12219626  1  0  -0.098768  0  3.6778  0  0  -0.124229  0  3.929335  0  0  -0.127382  0  3.947337  0  -0.00582  0  -0.075452  -0.122292  0  3.917479  0
C  C52  1  0.84869954  0.02564503  0.17514740  1  0  0.128969  0  3.823095  0  0  0.125621  0  4.069986  0  0  0.128068  0  4.090452  0  0.584869  0  0.108559  0.123812  0  4.056372  0
C  C53  1  0.67623606  0.47452399  0.82478308  1  0  0.128486  0  3.823361  0  0  0.127624  0  4.066617  0  0  0.130054  0  4.087134  0  0.548322  0  0.109358  0.12584  0  4.05296  0
C  C54  1  0.15129417  0.97435540  0.82484674  1  0  0.129159  0  3.823021  0  0  0.125835  0  4.069764  0  0  0.128286  0  4.090226  0  0.584959  0  0.108627  0.124022  0  4.056154  0
C  C55  1  0.32375447  0.52547409  0.17522367  1  0  0.128738  0  3.823427  0  0  0.127782  0  4.066664  0  0  0.130202  0  4.087182  0  0.548251  0  0.109391  0.125984  0  4.053025  0
C  C56  1  0.90754076  0.06552808  0.26952303  1  0  0.3507  0  3.692921  0  0  0.310732  0  3.971857  0  0  0.33007  0  3.978068  0  1.071289  0  0.229991  0.297806  0  3.967665  0
C  C57  1  0.64037632  0.43412315  0.73049826  1  0  0.35177  0  3.694562  0  0  0.310736  0  3.973379  0  0  0.330208  0  3.979428  0  1.137393  0  0.229389  0.297643  0  3.969344  0
C  C58  1  0.09244648  0.93447627  0.73047222  1  0  0.350551  0  3.693209  0  0  0.310663  0  3.971955  0  0  0.329981  0  3.978174  0  1.071085  0  0.229969  0.29774  0  3.967764  0
C  C59  1  0.35961597  0.56587728  0.26950994  1  0  0.351517  0  3.694768  0  0  0.310607  0  3.973476  0  0  0.33008  0  3.979529  0  1.137669  0  0.229417  0.297518  0  3.969442  0
C  C60  1  0.05647684  0.08177850  0.39867458  1  0  0.35801  0  3.705172  0  0  0.322515  0  3.986568  0  0  0.34056  0  3.995249  0  1.038383  0  0.226314  0.310536  0  3.980688  0
C  C61  1  0.65888285  0.41742623  0.60178158  1  0  0.356294  0  3.706535  0  0  0.320046  0  3.988444  0  0  0.338226  0  3.997005  0  1.05487  0  0.225584  0.307923  0  3.982686  0
C  C62  1  0.94351699  0.91822271  0.60131980  1  0  0.358313  0  3.704835  0  0  0.322877  0  3.986164  0  0  0.340889  0  3.99484  0  1.041756  0  0.226463  0.310908  0  3.980314  0
C  C63  1  0.34111122  0.58257655  0.39822333  1  0  0.356237  0  3.706703  0  0  0.320055  0  3.988618  0  0  0.338271  0  3.997123  0  1.054891  0  0.225538  0.307933  0  3.982861  0
C  C64  1  0.17396911  0.05187757  0.46609384  1  0  -0.07453  0  3.811525  0  0  -0.051032  0  4.045437  0  0  -0.060581  0  4.070297  0  -0.00815  0  -0.00502  -0.045114  0  4.028689  0
C  C65  1  0.70782923  0.44754963  0.53487122  1  0  -0.075106  0  3.811731  0  0  -0.051549  0  4.045438  0  0  -0.061082  0  4.070226  0  0.010684  0  -0.005396  -0.045651  0  4.028768  0
C  C66  1  0.82602884  0.94812286  0.53390071  1  0  -0.074673  0  3.811344  0  0  -0.051302  0  4.045427  0  0  -0.0608  0  4.070222  0  -0.024996  0  -0.005113  -0.04545  0  4.028773  0
C  C67  1  0.29217355  0.55245472  0.46513439  1  0  -0.075059  0  3.811584  0  0  -0.051513  0  4.045244  0  0  -0.061057  0  4.070026  0  0.010476  0  -0.005421  -0.045615  0  4.028575  0
C  C68  1  0.22329931  0.94870801  0.45049416  1  0  -0.017452  0  3.655937  0  0  -0.047292  0  3.903992  0  0  -0.042589  0  3.920707  0  -0.040751  0  -0.06189  -0.049879  0  3.892394  0
C  C69  1  0.77229597  0.55091624  0.55122253  1  0  -0.014094  0  3.654632  0  0  -0.043079  0  3.901188  0  0  -0.038484  0  3.917857  0  -0.010959  0  -0.060524  -0.045631  0  3.889675  0
C  C70  1  0.77669699  0.05129085  0.54949504  1  0  -0.017441  0  3.655786  0  0  -0.047254  0  3.90391  0  0  -0.042575  0  3.920621  0  -0.024544  0  -0.061882  -0.049823  0  3.892331  0
C  C71  1  0.22770504  0.44908576  0.44878637  1  0  -0.014338  0  3.654602  0  0  -0.043215  0  3.901104  0  0  -0.038625  0  3.917779  0  -0.010721  0  -0.0606  -0.045767  0  3.889591  0
C  C72  1  0.39534439  0.00638423  0.60053429  1  0  0.131049  0  3.679314  0  0  0.098395  0  3.930683  0  0  0.106285  0  3.948279  0  0.450528  0  0.044199  0.093386  0  3.918644  0
C  C73  1  0.79191436  0.49434645  0.40165145  1  0  0.129982  0  3.680265  0  0  0.097432  0  3.932193  0  0  0.105314  0  3.949857  0  0.473915  0  0.042943  0.092419  0  3.92014  0
C  C74  1  0.60464884  0.99361307  0.39945298  1  0  0.131282  0  3.679292  0  0  0.098626  0  3.930586  0  0  0.106517  0  3.948177  0  0.450307  0  0.04439  0.09362  0  3.918552  0
C  C75  1  0.20808406  0.50565712  0.59835588  1  0  0.130033  0  3.680139  0  0  0.097571  0  3.932068  0  0  0.105452  0  3.949721  0  0.473231  0  0.043098  0.092558  0  3.920013  0
C  C76  1  0.33438075  0.92610705  0.51918347  1  0  -0.108336  0  3.718224  0  0  -0.118546  0  3.971851  0  0  -0.126606  0  3.994091  0  -0.031202  0  -0.082846  -0.113503  0  3.95692  0
C  C77  1  0.81320798  0.57420498  0.48312944  1  0  -0.109327  0  3.719379  0  0  -0.119869  0  3.97272  0  0  -0.127917  0  3.994914  0  -0.04124  0  -0.082668  -0.114796  0  3.95778  0
C  C78  1  0.66560965  0.07389025  0.48080707  1  0  -0.108398  0  3.718158  0  0  -0.118632  0  3.971791  0  0  -0.12669  0  3.994033  0  -0.030404  0  -0.082944  -0.113588  0  3.956854  0
C  C79  1  0.18679869  0.42579702  0.51687941  1  0  -0.109236  0  3.719348  0  0  -0.119852  0  3.972773  0  0  -0.127879  0  3.994948  0  -0.041129  0  -0.082654  -0.114776  0  3.957829  0
C  C80  1  0.23998143  0.12776848  0.54992379  1  0  0.122646  0  3.669401  0  0  0.080785  0  3.921947  0  0  0.089115  0  3.93876  0  0.578247  0  0.057006  0.075526  0  3.910379  0
C  C81  1  0.68893919  0.37213343  0.45093149  1  0  0.121248  0  3.670944  0  0  0.078875  0  3.923734  0  0  0.08726  0  3.940443  0  0.511162  0  0.055706  0.073629  0  3.912203  0
C  C82  1  0.76001664  0.87223273  0.45006804  1  0  0.122815  0  3.669371  0  0  0.080932  0  3.921965  0  0  0.089247  0  3.938766  0  0.578033  0  0.0571  0.075694  0  3.910413  0
C  C83  1  0.31104536  0.62787171  0.54907083  1  0  0.121365  0  3.670716  0  0  0.07901  0  3.923594  0  0  0.087391  0  3.940308  0  0.511036  0  0.055804  0.073766  0  3.912058  0
I  I84  1  0.75996563  0.37596632  0.15611673  1  0  -0.494028  0  1.066115  0  0  -0.445392  0  1.394983  0  0  -0.465697  0  1.374849  0  -0.507556  0  -0.252763  -0.430346  0  1.408363  0
I  I85  1  0.60828556  0.12618065  0.84639886  1  0  -0.496223  0  1.070497  0  0  -0.447847  0  1.400209  0  0  -0.468176  0  1.380023  0  -0.509995  0  -0.252264  -0.43287  0  1.41368  0
I  I86  1  0.24004551  0.62403725  0.84388768  1  0  -0.494051  0  1.06613  0  0  -0.445402  0  1.394953  0  0  -0.465707  0  1.374832  0  -0.507573  0  -0.252761  -0.430367  0  1.408353  0
I  I87  1  0.39170815  0.87381978  0.15359765  1  0  -0.49622  0  1.070494  0  0  -0.447864  0  1.400235  0  0  -0.468186  0  1.380038  0  -0.509911  0  -0.252264  -0.432888  0  1.413699  0
I  I88  1  0.30659173  0.20550729  0.24916315  1  0  -0.497156  0  1.006841  0  0  -0.451337  0  1.324623  0  0  -0.470439  0  1.303732  0  -0.528686  0  -0.266677  -0.437425  0  1.338595  0
I  I89  1  0.05796566  0.29352824  0.74969237  1  0  -0.497818  0  1.012007  0  0  -0.452421  0  1.330955  0  0  -0.471418  0  1.309856  0  -0.528582  0  -0.266481  -0.438572  0  1.34506  0
I  I90  1  0.69340378  0.79450489  0.75083755  1  0  -0.497146  0  1.006788  0  0  -0.451352  0  1.324579  0  0  -0.470457  0  1.30369  0  -0.528683  0  -0.266685  -0.437439  0  1.338551  0
I  I91  1  0.94203217  0.70647141  0.25030490  1  0  -0.497855  0  1.01203  0  0  -0.45245  0  1.330998  0  0  -0.471445  0  1.309885  0  -0.528528  0  -0.266483  -0.4386  0  1.345102  0
N  N92  1  0.75882188  0.09482897  0.14317577  1  0  -0.326299  0  3.252727  0  0  -0.255708  0  3.50456  0  0  -0.273581  0  3.525064  0  -1.249119  0  -0.320801  -0.243497  0  3.490535  0
N  N93  1  0.61804642  0.40585628  0.85662576  1  0  -0.324638  0  3.256981  0  0  -0.254304  0  3.508008  0  0  -0.272186  0  3.528489  0  -1.213334  0  -0.321059  -0.242119  0  3.494027  0
N  N94  1  0.24117796  0.90517459  0.85681810  1  0  -0.326353  0  3.253026  0  0  -0.255797  0  3.504858  0  0  -0.273669  0  3.525354  0  -1.249182  0  -0.320871  -0.243586  0  3.490827  0
N  N95  1  0.38194976  0.59414180  0.14338331  1  0  -0.324856  0  3.257052  0  0  -0.254465  0  3.508065  0  0  -0.272342  0  3.528536  0  -1.213425  0  -0.321106  -0.242278  0  3.494093  0
N  N96  1  0.87823598  0.15797335  0.32280479  1  0  -0.267002  0  3.079328  0  0  -0.216703  0  3.368513  0  0  -0.232241  0  3.382439  0  -0.788187  0  -0.228079  -0.206336  0  3.359099  0
N  N97  1  0.55692684  0.34168729  0.67707900  1  0  -0.26954  0  3.07461  0  0  -0.219757  0  3.364091  0  0  -0.23517  0  3.377823  0  -0.769181  0  -0.228788  -0.209437  0  3.354811  0
N  N98  1  0.12176656  0.84202944  0.67719147  1  0  -0.266867  0  3.079222  0  0  -0.216594  0  3.368334  0  0  -0.232133  0  3.382268  0  -0.788329  0  -0.227985  -0.206226  0  3.358918  0
N  N99  1  0.44306522  0.65831157  0.32292694  1  0  -0.269592  0  3.074873  0  0  -0.219802  0  3.364286  0  0  -0.235214  0  3.378022  0  -0.769207  0  -0.228796  -0.209482  0  3.355006  0
N  N100  1  0.97448476  0.16899418  0.40603062  1  0  -0.25795  0  2.904875  0  0  -0.241666  0  3.183701  0  0  -0.251198  0  3.197444  0  -0.678073  0  -0.212246  -0.235349  0  3.174493  0
N  N101  1  0.56924117  0.33037897  0.59410197  1  0  -0.254945  0  2.904355  0  0  -0.238394  0  3.183096  0  0  -0.247947  0  3.196773  0  -0.702696  0  -0.211428  -0.232045  0  3.173945  0
N  N102  1  0.02551496  0.83100861  0.59396537  1  0  -0.258142  0  2.90486  0  0  -0.241901  0  3.183707  0  0  -0.251439  0  3.19747  0  -0.677696  0  -0.212361  -0.235579  0  3.174499  0
N  N103  1  0.43075843  0.66962302  0.40590443  1  0  -0.25487  0  2.904467  0  0  -0.238342  0  3.183196  0  0  -0.247906  0  3.196863  0  -0.702834  0  -0.211392  -0.231994  0  3.174044  0
N  N104  1  0.34825574  0.10521060  0.61508667  1  0  -0.306019  0  3.265825  0  0  -0.227764  0  3.525608  0  0  -0.247511  0  3.545438  0  -1.225009  0  -0.326816  -0.214492  0  3.511854  0
N  N105  1  0.73077658  0.39528508  0.38633413  1  0  -0.304047  0  3.260203  0  0  -0.226759  0  3.521077  0  0  -0.246402  0  3.54081  0  -1.236565  0  -0.325276  -0.213574  0  3.507403  0
N  N106  1  0.65173891  0.89478670  0.38490191  1  0  -0.306234  0  3.266081  0  0  -0.227949  0  3.52587  0  0  -0.247697  0  3.545701  0  -1.224692  0  -0.326971  -0.214676  0  3.512111  0
N  N107  1  0.26921632  0.60471927  0.61366936  1  0  -0.304165  0  3.260215  0  0  -0.226981  0  3.52121  0  0  -0.246626  0  3.54094  0  -1.235728  0  -0.325442  -0.213793  0  3.507535  0
O  O108  1  0.01763810  0.01257185  0.31357012  1  0  -0.235079  0  2.316541  0  0  -0.162019  0  2.537692  0  0  -0.179542  0  2.538489  0  -1.030013  0  -0.08263  -0.150314  0  2.53697  0
O  O109  1  0.70609982  0.48679347  0.68683682  1  0  -0.236337  0  2.320093  0  0  -0.162358  0  2.540966  0  0  -0.180331  0  2.542316  0  -1.046071  0  -0.08265  -0.1504  0  2.540033  0
O  O110  1  0.98234936  0.98742467  0.68642169  1  0  -0.235162  0  2.316973  0  0  -0.16208  0  2.538031  0  0  -0.179547  0  2.538774  0  -1.033358  0  -0.08268  -0.150368  0  2.537299  0
O  O111  1  0.29388449  0.51321010  0.31317093  1  0  -0.236161  0  2.320155  0  0  -0.162324  0  2.54108  0  0  -0.180309  0  2.542425  0  -1.046035  0  -0.082627  -0.150368  0  2.540149  0
