# generated using pymatgen
data_Zn4H18C36O13
_symmetry_space_group_name_H-M   'P 1'
_cell_length_a   18.32723353
_cell_length_b   18.47238972
_cell_length_c   18.30171003
_cell_angle_alpha   120.32227801
_cell_angle_beta   119.32167834
_cell_angle_gamma   89.97903921
_symmetry_Int_Tables_number   1
_chemical_formula_structural   Zn4H18C36O13
_chemical_formula_sum   'Zn8 H36 C72 O26'
_cell_volume   4405.16082802
_cell_formula_units_Z   2
loop_
 _symmetry_equiv_pos_site_id
 _symmetry_equiv_pos_as_xyz
  1  'x, y, z'
loop_
 _atom_site_type_symbol
 _atom_site_label
 _atom_site_symmetry_multiplicity
 _atom_site_fract_x
 _atom_site_fract_y
 _atom_site_fract_z
 _atom_site_occupancy
 _atom_site_pbe_bader_charge
 _atom_site_pbe_bader_spin_density
 _atom_site_pbe_cm5_charge
 _atom_site_pbe_ddec_charge
 _atom_site_pbe_ddec_spin_density
 _atom_site_pbe_ddec_sum_bond_order
 _atom_site_pbe_magmom
Zn  Zn0  1  0.94100051  0.85554584  0.89872966  1  1.293708  0  0.672594  0.945671  0  2.414758  0
Zn  Zn1  1  0.93727314  0.02387560  0.07196304  1  1.304011  0  0.673286  0.958388  0  2.380009  0
Zn  Zn2  1  0.93833809  0.02614951  0.89840670  1  1.307518  0  0.672098  0.9611  0  2.377578  0
Zn  Zn3  1  0.11473179  0.02760677  0.07419618  1  1.313332  0  0.672712  0.972347  0  2.348092  0
Zn  Zn4  1  0.52753687  0.61568850  0.07360501  1  1.300203  0  0.672681  0.971522  0  2.347867  0
Zn  Zn5  1  0.52531148  0.43544327  0.89602771  1  1.319943  0  0.672746  0.964515  0  2.364342  0
Zn  Zn6  1  0.35539670  0.44214507  0.90276119  1  1.294102  0  0.672574  0.946916  0  2.41375  0
Zn  Zn7  1  0.52366349  0.44042886  0.07245189  1  1.314183  0  0.672874  0.955137  0  2.391332  0
H  H8  1  0.72437850  0.87285980  0.02497966  1  0.088177  0  0.110912  0.116427  0  0.983383  0
H  H9  1  0.63006378  0.77522824  0.02498399  1  0.106181  0  0.110641  0.116815  0  0.985702  0
H  H10  1  0.72691674  0.51954673  0.95162453  1  0.09637  0  0.101383  0.112361  0  1.029995  0
H  H11  1  0.84338321  0.47661444  0.92553144  1  0.061172  0  0.102332  0.097133  0  0.992467  0
H  H12  1  0.93632523  0.57363624  0.92305055  1  0.06262  0  0.103399  0.099652  0  0.990812  0
H  H13  1  0.91210550  0.71254875  0.94768490  1  0.075525  0  0.100771  0.110852  0  1.031675  0
H  H14  1  0.82825283  0.88156136  0.58151467  1  0.088133  0  0.110346  0.116198  0  0.9838  0
H  H15  1  0.73162846  0.78551947  0.38883901  1  0.096022  0  0.110129  0.116031  0  0.985637  0
H  H16  1  0.55182798  0.52553726  0.29699770  1  0.088949  0  0.100527  0.110243  0  1.030231  0
H  H17  1  0.53534192  0.47897134  0.39348563  1  0.052202  0  0.104446  0.100683  0  0.987059  0
H  H18  1  0.63344376  0.57405421  0.58598364  1  0.066609  0  0.105331  0.102707  0  0.984892  0
H  H19  1  0.74618176  0.71486349  0.67928070  1  0.108461  0  0.100359  0.11023  0  1.028983  0
H  H20  1  0.28051964  0.87959299  0.13628553  1  0.095602  0  0.110687  0.116779  0  0.98467  0
H  H21  1  0.37750455  0.78454402  0.13781599  1  0.07866  0  0.110992  0.116405  0  0.983753  0
H  H22  1  0.21483060  0.52029534  0.79124045  1  0.096155  0  0.100775  0.110419  0  1.031314  0
H  H23  1  0.07473222  0.47195388  0.63025911  1  0.085282  0  0.103671  0.100047  0  0.990516  0
H  H24  1  0.97802022  0.56774393  0.62816441  1  0.04559  0  0.103305  0.099147  0  0.990031  0
H  H25  1  0.02245920  0.71029238  0.78718903  1  0.086656  0  0.101318  0.111889  0  1.028668  0
H  H26  1  0.73292008  0.13415034  0.84262257  1  0.084275  0  0.11041  0.116249  0  0.984959  0
H  H27  1  0.63531523  0.22853894  0.84080090  1  0.091455  0  0.110364  0.116273  0  0.985752  0
H  H28  1  0.72478921  0.42042286  0.19166235  1  0.080753  0  0.10136  0.111445  0  1.026811  0
H  H29  1  0.84047563  0.44414991  0.35376441  1  0.051029  0  0.103426  0.099147  0  0.99077  0
H  H30  1  0.93745438  0.34871699  0.35529576  1  0.069644  0  0.103295  0.099198  0  0.990778  0
H  H31  1  0.91772080  0.23070983  0.19435634  1  0.097507  0  0.101719  0.111676  0  1.025116  0
H  H32  1  0.27812988  0.22938933  0.38589510  1  0.084735  0  0.110206  0.116316  0  0.986735  0
H  H33  1  0.37616687  0.32705900  0.57834652  1  0.107506  0  0.110394  0.116123  0  0.983088  0
H  H34  1  0.21533755  0.24672842  0.68400026  1  0.095408  0  0.100555  0.110174  0  1.030439  0
H  H35  1  0.07556830  0.13440566  0.59445405  1  0.046122  0  0.105047  0.102039  0  0.984974  0
H  H36  1  0.97798262  0.03564728  0.40201019  1  0.050953  0  0.104105  0.10016  0  0.986741  0
H  H37  1  0.02123297  0.05087028  0.30173347  1  0.093652  0  0.10141  0.112147  0  1.028788  0
H  H38  1  0.28287045  0.13776488  0.03510542  1  0.078831  0  0.110718  0.116743  0  0.98553  0
H  H39  1  0.37878135  0.23495054  0.03616252  1  0.09066  0  0.110696  0.116388  0  0.983819  0
H  H40  1  0.21067248  0.41451514  0.95593822  1  0.05738  0  0.101096  0.111315  0  1.027417  0
H  H41  1  0.06950617  0.43380815  0.93045709  1  0.06605  0  0.103508  0.0999  0  0.989709  0
H  H42  1  0.97475473  0.33880597  0.93318513  1  0.041442  0  0.102505  0.09802  0  0.991555  0
H  H43  1  0.02174434  0.22515399  0.95995419  1  0.083386  0  0.100965  0.110537  0  1.030948  0
C  C44  1  0.84312414  0.84176786  0.98183125  1  1.560767  0  0.231147  0.611272  0  4.155891  0
C  C45  1  0.79205301  0.78130153  0.98464334  1  0.00292  0  -0.007153  -0.067196  0  3.931506  0
C  C46  1  0.73143505  0.80865482  0.00799009  1  -0.056137  0  -0.082873  -0.0965  0  4.002382  0
C  C47  1  0.67853930  0.75386010  0.00805371  1  0.031742  0  -0.081925  -0.093156  0  4.000161  0
C  C48  1  0.68610254  0.67157606  0.98548378  1  -0.079419  0  -0.008706  -0.071849  0  3.923757  0
C  C49  1  0.62409892  0.61654818  0.98328320  1  1.556722  0  0.231589  0.614821  0  4.150674  0
C  C50  1  0.75070106  0.64221308  0.96530824  1  -0.026517  0  0.002415  0.062879  0  3.933239  0
C  C51  1  0.76683400  0.56215801  0.95073616  1  0.004884  0  -0.093954  -0.13545  0  3.98148  0
C  C52  1  0.83208335  0.53809211  0.93581116  1  -0.078675  0  -0.091497  -0.078952  0  4.047835  0
C  C53  1  0.88454600  0.59275791  0.93454199  1  -0.002774  0  -0.091193  -0.079883  0  4.048035  0
C  C54  1  0.87114369  0.67091514  0.94856851  1  -0.050338  0  -0.094131  -0.134994  0  3.983371  0
C  C55  1  0.80463820  0.69825150  0.96446786  1  -0.005297  0  0.001434  0.060061  0  3.938493  0
C  C56  1  0.84249958  0.84548456  0.70844293  1  1.559244  0  0.231197  0.614492  0  4.152956  0
C  C57  1  0.77837448  0.78694378  0.59431629  1  0.012866  0  -0.008219  -0.070733  0  3.932487  0
C  C58  1  0.78163405  0.81656983  0.53955229  1  -0.11857  0  -0.081723  -0.094681  0  3.998375  0
C  C59  1  0.72746072  0.76283517  0.43170800  1  0.052244  0  -0.081783  -0.092491  0  3.996294  0
C  C60  1  0.66935700  0.67938937  0.37798486  1  -0.000291  0  -0.008615  -0.073024  0  3.928911  0
C  C61  1  0.61872668  0.62385666  0.26337811  1  1.542917  0  0.231372  0.615489  0  4.150737  0
C  C62  1  0.66005276  0.64823267  0.43158580  1  -0.01323  0  0.001932  0.061262  0  3.937102  0
C  C63  1  0.59515844  0.56728266  0.38042253  1  -0.030605  0  -0.093611  -0.133917  0  3.981055  0
C  C64  1  0.58603139  0.54118388  0.43482863  1  -0.0152  0  -0.091343  -0.080149  0  4.046263  0
C  C65  1  0.64119701  0.59480430  0.54325587  1  -0.096729  0  -0.090432  -0.080266  0  4.043336  0
C  C66  1  0.70454572  0.67395767  0.59573257  1  -0.01972  0  -0.093321  -0.133585  0  3.977016  0
C  C67  1  0.71612850  0.70318807  0.54239380  1  -0.026232  0  0.001133  0.062084  0  3.935707  0
C  C68  1  0.12030133  0.84366424  0.98512507  1  1.517154  0  0.232164  0.615528  0  4.148335  0
C  C69  1  0.17570238  0.78428929  0.97814879  1  -0.024173  0  -0.008281  -0.071609  0  3.931093  0
C  C70  1  0.25846281  0.81419122  0.06666565  1  -0.034965  0  -0.08163  -0.094094  0  4.000279  0
C  C71  1  0.31291219  0.76079653  0.06757766  1  -0.04457  0  -0.081633  -0.093119  0  3.998818  0
C  C72  1  0.28489068  0.67690561  0.98007353  1  0.009561  0  -0.008619  -0.070368  0  3.93133  0
C  C73  1  0.34468681  0.62226676  0.98861940  1  1.546633  0  0.231408  0.614465  0  4.149849  0
C  C74  1  0.20152673  0.64467203  0.88552723  1  0.021644  0  0.001427  0.059419  0  3.937359  0
C  C75  1  0.17340107  0.56239570  0.79163061  1  -0.088198  0  -0.093398  -0.13249  0  3.979507  0
C  C76  1  0.09460799  0.53525786  0.70118855  1  -0.027734  0  -0.091574  -0.080873  0  4.047742  0
C  C77  1  0.04010626  0.58921772  0.70006615  1  -0.008805  0  -0.091637  -0.080533  0  4.048845  0
C  C78  1  0.06504677  0.66941307  0.78937116  1  -0.026944  0  -0.093476  -0.134283  0  3.981826  0
C  C79  1  0.14569555  0.69972289  0.88445768  1  -0.00171  0  0.001692  0.062023  0  3.937082  0
C  C80  1  0.84977905  0.12747333  0.99477566  1  1.556134  0  0.231447  0.613906  0  4.15488  0
C  C81  1  0.79851097  0.19082120  0.00266021  1  -0.042212  0  -0.008421  -0.070511  0  3.931802  0
C  C82  1  0.73832587  0.18314610  0.91305181  1  0.008647  0  -0.082708  -0.095393  0  4.003664  0
C  C83  1  0.68357599  0.23619777  0.91205493  1  -0.043474  0  -0.083235  -0.096173  0  4.005124  0
C  C84  1  0.68873930  0.29752251  0.00074493  1  -0.005981  0  -0.008049  -0.070732  0  3.929655  0
C  C85  1  0.62400800  0.34708358  0.99112218  1  1.549405  0  0.231716  0.614972  0  4.153437  0
C  C86  1  0.75304892  0.31092424  0.09635936  1  -0.009831  0  0.002074  0.062718  0  3.933132  0
C  C87  1  0.76649263  0.37855013  0.19116217  1  0.014664  0  -0.092553  -0.132501  0  3.976896  0
C  C88  1  0.83139968  0.39168743  0.28213456  1  -0.092585  0  -0.091364  -0.080132  0  4.046369  0
C  C89  1  0.88611716  0.33790678  0.28298608  1  -0.059532  0  -0.091236  -0.080612  0  4.048434  0
C  C90  1  0.87524730  0.27177483  0.19279598  1  -0.036464  0  -0.093151  -0.133079  0  3.980657  0
C  C91  1  0.80912295  0.25612695  0.09727040  1  0.034248  0  0.001867  0.061181  0  3.937153  0
C  C92  1  0.11827524  0.11583748  0.26379504  1  1.514026  0  0.231509  0.615121  0  4.151722  0
C  C93  1  0.17395734  0.16744064  0.37850339  1  -0.004699  0  -0.009017  -0.075155  0  3.925654  0
C  C94  1  0.25676291  0.22578809  0.43036933  1  0.03398  0  -0.081969  -0.091656  0  3.996663  0
C  C95  1  0.31163573  0.28054893  0.53814658  1  -0.058406  0  -0.082704  -0.096332  0  4.000246  0
C  C96  1  0.28383818  0.27771050  0.59500883  1  -0.042831  0  -0.007496  -0.069088  0  3.932187  0
C  C97  1  0.34350282  0.34197927  0.70928416  1  1.586166  0  0.231904  0.615055  0  4.148493  0
C  C98  1  0.20067848  0.21559535  0.54504196  1  0.035326  0  0.000711  0.061169  0  3.935473  0
C  C99  1  0.17335325  0.20471932  0.60047983  1  -0.020466  0  -0.093663  -0.135079  0  3.982278  0
C  C100  1  0.09477432  0.14160138  0.55007239  1  -0.077813  0  -0.090711  -0.07903  0  4.042516  0
C  C101  1  0.03978243  0.08605472  0.44164582  1  -0.00751  0  -0.090668  -0.08039  0  4.045165  0
C  C102  1  0.06401513  0.09436905  0.38514755  1  -0.051086  0  -0.093668  -0.135066  0  3.979734  0
C  C103  1  0.14444314  0.15891135  0.43418086  1  -0.027672  0  0.001801  0.063571  0  3.929832  0
C  C104  1  0.12112686  0.12503181  0.98903162  1  1.573749  0  0.231756  0.616029  0  4.15229  0
C  C105  1  0.17623737  0.18932855  0.99401469  1  -0.070614  0  -0.008031  -0.071821  0  3.925434  0
C  C106  1  0.25981053  0.18507646  0.01799657  1  0.022874  0  -0.081802  -0.093013  0  3.997554  0
C  C107  1  0.31360778  0.23954080  0.01844707  1  -0.03126  0  -0.082099  -0.09534  0  4.001525  0
C  C108  1  0.28390458  0.29818904  0.99404559  1  0.024221  0  -0.007918  -0.06997  0  3.933955  0
C  C109  1  0.34302760  0.34962669  0.98999127  1  1.546337  0  0.231679  0.613446  0  4.149505  0
C  C110  1  0.19963285  0.30778745  0.97315428  1  -0.047237  0  0.001644  0.061256  0  3.938334  0
C  C111  1  0.16988459  0.37258758  0.95673068  1  -0.00678  0  -0.093225  -0.133555  0  3.979676  0
C  C112  1  0.09054150  0.38322241  0.94224389  1  -0.056446  0  -0.091202  -0.080183  0  4.046297  0
C  C113  1  0.03711216  0.32961290  0.94364341  1  -0.053236  0  -0.09153  -0.081336  0  4.049607  0
C  C114  1  0.06350041  0.26588351  0.95895874  1  0.01842  0  -0.093252  -0.131426  0  3.980509  0
C  C115  1  0.14476005  0.25252783  0.97383176  1  0.020469  0  0.002431  0.061895  0  3.934251  0
O  O116  1  0.98441454  0.98506760  0.98750000  1  -1.199845  0  -0.573917  -1.02826  0  2.550619  0
O  O117  1  0.87058978  0.92476028  0.05209052  1  -1.172974  0  -0.312493  -0.543433  0  2.31815  0
O  O118  1  0.85406179  0.80646849  0.90888718  1  -1.176017  0  -0.31247  -0.544787  0  2.357533  0
O  O119  1  0.59442431  0.53270617  0.91602836  1  -1.175614  0  -0.311572  -0.54493  0  2.356581  0
O  O120  1  0.60433684  0.65881855  0.04806909  1  -1.163281  0  -0.315309  -0.54911  0  2.329665  0
O  O121  1  0.85626030  0.92879972  0.75217858  1  -1.173395  0  -0.312662  -0.543922  0  2.320528  0
O  O122  1  0.88000236  0.80825751  0.75318311  1  -1.175269  0  -0.313086  -0.545594  0  2.353153  0
O  O123  1  0.60604404  0.54054143  0.21736204  1  -1.170583  0  -0.313286  -0.548548  0  2.361009  0
O  O124  1  0.59389365  0.66463321  0.22063185  1  -1.167668  0  -0.314741  -0.548116  0  2.317672  0
O  O125  1  0.16079799  0.92689556  0.04137181  1  -1.157854  0  -0.313142  -0.547337  0  2.317199  0
O  O126  1  0.03712801  0.80676122  0.93593135  1  -1.165608  0  -0.313459  -0.546288  0  2.360606  0
O  O127  1  0.30824369  0.53977879  0.94308661  1  -1.180355  0  -0.314304  -0.547524  0  2.356583  0
O  O128  1  0.42756397  0.66262097  0.04229509  1  -1.162773  0  -0.311667  -0.544311  0  2.311347  0
O  O129  1  0.87533675  0.10953316  0.93566999  1  -1.164905  0  -0.313966  -0.5476  0  2.323592  0
O  O130  1  0.86193647  0.09464490  0.04511596  1  -1.178794  0  -0.311257  -0.543283  0  2.356736  0
O  O131  1  0.58990020  0.35999079  0.04124284  1  -1.178105  0  -0.312629  -0.543416  0  2.35584  0
O  O132  1  0.60627227  0.37059608  0.93109411  1  -1.164501  0  -0.314293  -0.548979  0  2.320146  0
O  O133  1  0.15952839  0.09301377  0.22032027  1  -1.154937  0  -0.315502  -0.550903  0  2.325656  0
O  O134  1  0.03474772  0.10051123  0.21852810  1  -1.191969  0  -0.311882  -0.545462  0  2.358281  0
O  O135  1  0.30734936  0.38037995  0.75660371  1  -1.176623  0  -0.313203  -0.546504  0  2.353593  0
O  O136  1  0.42639543  0.35473611  0.75039155  1  -1.173326  0  -0.312549  -0.544449  0  2.314989  0
O  O137  1  0.16210142  0.10657502  0.05413227  1  -1.174799  0  -0.31499  -0.548586  0  2.319275  0
O  O138  1  0.03819853  0.09221309  0.91891395  1  -1.180762  0  -0.312942  -0.546539  0  2.360521  0
O  O139  1  0.30690777  0.35773331  0.91574703  1  -1.173685  0  -0.311673  -0.544877  0  2.351391  0
O  O140  1  0.42588336  0.37990247  0.06030315  1  -1.16625  0  -0.312594  -0.54441  0  2.319004  0
O  O141  1  0.48464094  0.48505412  0.98720759  1  -1.211256  0  -0.574127  -1.028645  0  2.551471  0
