# generated using pymatgen
data_LiH12C9NO3
_symmetry_space_group_name_H-M   'P 1'
_cell_length_a   5.40428727
_cell_length_b   7.47565770
_cell_length_c   11.76535097
_cell_angle_alpha   90.24932894
_cell_angle_beta   88.60581463
_cell_angle_gamma   79.52585921
_symmetry_Int_Tables_number   1
_chemical_formula_structural   LiH12C9NO3
_chemical_formula_sum   'Li2 H24 C18 N2 O6'
_cell_volume   467.24992239
_cell_formula_units_Z   2
loop_
 _symmetry_equiv_pos_site_id
 _symmetry_equiv_pos_as_xyz
  1  'x, y, z'
loop_
 _atom_site_type_symbol
 _atom_site_label
 _atom_site_symmetry_multiplicity
 _atom_site_fract_x
 _atom_site_fract_y
 _atom_site_fract_z
 _atom_site_occupancy
 _atom_site_hle17_bader_spin_density
 _atom_site_hle17_ddec_charge
 _atom_site_hle17_ddec_spin_density
 _atom_site_hle17_ddec_sum_bond_order
 _atom_site_hle17_magmom
 _atom_site_hse06_10hf_bader_spin_density
 _atom_site_hse06_10hf_ddec_charge
 _atom_site_hse06_10hf_ddec_spin_density
 _atom_site_hse06_10hf_ddec_sum_bond_order
 _atom_site_hse06_10hf_magmom
 _atom_site_hse06_bader_spin_density
 _atom_site_hse06_ddec_charge
 _atom_site_hse06_ddec_spin_density
 _atom_site_hse06_ddec_sum_bond_order
 _atom_site_hse06_magmom
 _atom_site_pbe_bader_spin_density
 _atom_site_pbe_cm5_charge
 _atom_site_pbe_ddec_charge
 _atom_site_pbe_ddec_spin_density
 _atom_site_pbe_ddec_sum_bond_order
 _atom_site_pbe_magmom
Li  Li0  1  0.34468663  0.95727654  0.41794436  1  0  0.857998  0  0.403331  0  0  0.817898  0  0.509793  0  0  0.827563  0  0.492474  0  0  0.523363  0.810885  0  0.522267  0
Li  Li1  1  0.65531552  0.04272419  0.58205478  1  0  0.858  0  0.403334  0  0  0.817886  0  0.509818  0  0  0.827552  0  0.492497  0  0  0.523379  0.810871  0  0.522287  0
H  H2  1  0.67191947  0.75529908  0.73342580  1  0  0.09773  0  1.002514  0  0  0.102057  0  1.076707  0  0  0.10591  0  1.072794  0  0  0.120536  0.099216  0  1.079657  0
H  H3  1  0.32807973  0.24470599  0.26657754  1  0  0.097724  0  1.002547  0  0  0.102131  0  1.076631  0  0  0.105981  0  1.072732  0  0  0.120548  0.099287  0  1.079578  0
H  H4  1  0.67728514  0.67248010  0.95944918  1  0  0.106213  0  0.967688  0  0  0.120137  0  1.021919  0  0  0.122692  0  1.021586  0  0  0.101569  0.118305  0  1.022236  0
H  H5  1  0.32269573  0.32752496  0.04055960  1  0  0.106189  0  0.967853  0  0  0.120077  0  1.022122  0  0  0.122631  0  1.021794  0  0  0.101532  0.118248  0  1.022428  0
H  H6  1  0.19040461  0.77283932  0.03777586  1  0  0.098254  0  0.996345  0  0  0.106045  0  1.063379  0  0  0.108885  0  1.062612  0  0  0.097679  0.104056  0  1.06392  0
H  H7  1  0.80956277  0.22716592  0.96221954  1  0  0.098372  0  0.996245  0  0  0.106152  0  1.063288  0  0  0.10899  0  1.062526  0  0  0.097684  0.104161  0  1.063831  0
H  H8  1  0.91835001  0.90560897  0.85497784  1  0  0.09644  0  0.99215  0  0  0.102897  0  1.062412  0  0  0.105493  0  1.061022  0  0  0.115599  0.101001  0  1.063472  0
H  H9  1  0.08163689  0.09439225  0.14501306  1  0  0.096381  0  0.992236  0  0  0.102865  0  1.062461  0  0  0.10546  0  1.061072  0  0  0.115572  0.100962  0  1.063522  0
H  H10  1  0.65737021  0.63579578  0.48481909  1  0  0.059132  0  0.954732  0  0  0.073815  0  1.020167  0  0  0.074346  0  1.01956  0  0  0.114743  0.073317  0  1.020753  0
H  H11  1  0.34261614  0.36420187  0.51517957  1  0  0.059071  0  0.954776  0  0  0.073749  0  1.020223  0  0  0.074283  0  1.019615  0  0  0.114722  0.073265  0  1.020791  0
H  H12  1  0.58338614  0.47300164  0.38499362  1  0  0.043831  0  0.950664  0  0  0.055398  0  1.020819  0  0  0.055565  0  1.021109  0  0  0.096914  0.055166  0  1.02074  0
H  H13  1  0.41661675  0.52699614  0.61500219  1  0  0.043848  0  0.950594  0  0  0.055379  0  1.020786  0  0  0.055548  0  1.021078  0  0  0.096904  0.055146  0  1.020707  0
H  H14  1  0.05205384  0.64601113  0.38739808  1  0  0.080126  0  0.941239  0  0  0.096665  0  1.000309  0  0  0.098425  0  0.999797  0  0  0.103216  0.095322  0  1.000803  0
H  H15  1  0.94793765  0.35399533  0.61260791  1  0  0.0802  0  0.941193  0  0  0.096713  0  1.000276  0  0  0.098472  0  0.999761  0  0  0.103292  0.095377  0  1.000761  0
H  H16  1  0.02143719  0.42447426  0.34210436  1  0  0.073763  0  0.965559  0  0  0.091837  0  1.027009  0  0  0.092049  0  1.028278  0  0  0.094206  0.091619  0  1.026187  0
H  H17  1  0.97857251  0.57552744  0.65790653  1  0  0.073697  0  0.965745  0  0  0.091798  0  1.027123  0  0  0.092008  0  1.028387  0  0  0.094176  0.091583  0  1.026305  0
H  H18  1  0.99728268  0.75150669  0.20417703  1  0  0.070738  0  0.959986  0  0  0.086722  0  1.024431  0  0  0.087502  0  1.02474  0  0  0.092495  0.086075  0  1.024329  0
H  H19  1  0.00274658  0.24848382  0.79582444  1  0  0.070685  0  0.960125  0  0  0.086693  0  1.024517  0  0  0.087471  0  1.024833  0  0  0.092499  0.086057  0  1.024401  0
H  H20  1  0.94676759  0.53632358  0.15419495  1  0  0.069219  0  0.955144  0  0  0.086536  0  1.0197  0  0  0.086721  0  1.021246  0  0  0.088755  0.086305  0  1.018716  0
H  H21  1  0.05325294  0.46366574  0.84581181  1  0  0.069229  0  0.955046  0  0  0.086523  0  1.019651  0  0  0.086725  0  1.021181  0  0  0.088737  0.086298  0  1.018664  0
H  H22  1  0.50650929  0.61543883  0.17660454  1  0  0.042731  0  0.948789  0  0  0.057772  0  1.012989  0  0  0.057623  0  1.014037  0  0  0.092883  0.057721  0  1.012425  0
H  H23  1  0.49351526  0.38456057  0.82338828  1  0  0.042791  0  0.948671  0  0  0.057774  0  1.012961  0  0  0.057625  0  1.014005  0  0  0.092916  0.05773  0  1.012397  0
H  H24  1  0.55517583  0.84676342  0.17293241  1  0  0.061062  0  0.940625  0  0  0.073857  0  1.005593  0  0  0.073448  0  1.006767  0  0  0.106757  0.074046  0  1.004856  0
H  H25  1  0.44485764  0.15323798  0.82706699  1  0  0.060959  0  0.940645  0  0  0.073763  0  1.005617  0  0  0.073352  0  1.006791  0  0  0.106719  0.073961  0  1.004875  0
C  C26  1  0.51988236  0.77025526  0.79621706  1  0  -0.024955  0  3.71439  0  0  -0.067313  0  3.980751  0  0  -0.061393  0  3.99577  0  0  -0.008293  -0.071051  0  3.970544  0
C  C27  1  0.48010849  0.22973985  0.20378329  1  0  -0.024972  0  3.714624  0  0  -0.067392  0  3.980964  0  0  -0.061481  0  3.995992  0  0  -0.008299  -0.071119  0  3.970743  0
C  C28  1  0.51547628  0.73163357  0.91051584  1  0  -0.159782  0  3.816541  0  0  -0.173853  0  4.071903  0  0  -0.177501  0  4.09236  0  0  -0.12132  -0.17128  0  4.057811  0
C  C29  1  0.48450052  0.26836542  0.08948551  1  0  -0.159568  0  3.816468  0  0  -0.173602  0  4.071801  0  0  -0.177249  0  4.092256  0  0  -0.121195  -0.171033  0  4.057712  0
C  C30  1  0.26061209  0.78344096  0.95147109  1  0  -0.164787  0  3.82092  0  0  -0.178306  0  4.076584  0  0  -0.182959  0  4.0981  0  0  -0.124157  -0.175067  0  4.061795  0
C  C31  1  0.73937573  0.21655814  0.04852836  1  0  -0.16518  0  3.82079  0  0  -0.178718  0  4.076518  0  0  -0.183374  0  4.098026  0  0  -0.124275  -0.175476  0  4.061736  0
C  C32  1  0.11723307  0.85143279  0.86102000  1  0  -0.013577  0  3.704026  0  0  -0.050513  0  3.955846  0  0  -0.045345  0  3.974254  0  0  -0.009648  -0.053756  0  3.943297  0
C  C33  1  0.88275729  0.14856327  0.13897437  1  0  -0.013288  0  3.703971  0  0  -0.05022  0  3.955748  0  0  -0.045046  0  3.974147  0  0  -0.009537  -0.053464  0  3.9432  0
C  C34  1  0.19678739  0.89867533  0.65384105  1  0  0.846658  0  3.896477  0  0  0.78158  0  4.202109  0  0  0.819455  0  4.188175  0  0  0.335865  0.755852  0  4.211084  0
C  C35  1  0.80319600  0.10132659  0.34616095  1  0  0.846391  0  3.896604  0  0  0.7815  0  4.201988  0  0  0.819378  0  4.188057  0  0  0.335825  0.755786  0  4.210946  0
C  C36  1  0.66786918  0.59541671  0.39502747  1  0  0.092361  0  3.601606  0  0  0.037534  0  3.870031  0  0  0.044311  0  3.876036  0  0  -0.064421  0.033004  0  3.865861  0
C  C37  1  0.33213048  0.40457994  0.60497268  1  0  0.092442  0  3.601567  0  0  0.037632  0  3.869966  0  0  0.044398  0  3.875982  0  0  -0.064373  0.033099  0  3.865781  0
C  C38  1  0.93231533  0.56835954  0.34119883  1  0  -0.141883  0  3.629888  0  0  -0.180533  0  3.885591  0  0  -0.182712  0  3.898634  0  0  -0.162369  -0.178858  0  3.876516  0
C  C39  1  0.06769250  0.43164200  0.65881040  1  0  -0.141921  0  3.630084  0  0  -0.180523  0  3.885695  0  0  -0.182692  0  3.898739  0  0  -0.162401  -0.17885  0  3.876621  0
C  C40  1  0.88969848  0.64249463  0.21916919  1  0  -0.139615  0  3.626657  0  0  -0.180425  0  3.880668  0  0  -0.182124  0  3.89369  0  0  -0.166569  -0.179081  0  3.871669  0
C  C41  1  0.11033187  0.35749875  0.78083388  1  0  -0.139597  0  3.626877  0  0  -0.180377  0  3.880777  0  0  -0.18209  0  3.893795  0  0  -0.166542  -0.17904  0  3.871777  0
C  C42  1  0.60511171  0.71575893  0.21590301  1  0  0.095518  0  3.578566  0  0  0.04688  0  3.838358  0  0  0.053594  0  3.844559  0  0  -0.067325  0.042407  0  3.83405  0
C  C43  1  0.39490402  0.28424622  0.78409662  1  0  0.095673  0  3.578433  0  0  0.047003  0  3.838312  0  0  0.053723  0  3.844511  0  0  -0.067275  0.042509  0  3.834017  0
N  N44  1  0.27577452  0.84281937  0.76580332  1  0  -0.202214  0  3.548875  0  0  -0.109279  0  3.761383  0  0  -0.130161  0  3.786316  0  0  -0.246316  -0.09536  0  3.744351  0
N  N45  1  0.72421954  0.15717683  0.23419183  1  0  -0.202208  0  3.548994  0  0  -0.109349  0  3.76148  0  0  -0.130232  0  3.786417  0  0  -0.246324  -0.095441  0  3.744445  0
O  O46  1  0.96415371  0.93918971  0.64084562  1  0  -0.736291  0  1.928443  0  0  -0.698216  0  2.173294  0  0  -0.717938  0  2.156989  0  0  -0.392951  -0.684595  0  2.184296  0
O  O47  1  0.03584989  0.06081972  0.35916007  1  0  -0.736467  0  1.92824  0  0  -0.698462  0  2.172984  0  0  -0.718181  0  2.156678  0  0  -0.393096  -0.684836  0  2.183962  0
O  O48  1  0.37235579  0.89930126  0.57988051  1  0  -0.809538  0  1.96334  0  0  -0.767985  0  2.212895  0  0  -0.787461  0  2.195088  0  0  -0.429318  -0.754481  0  2.224956  0
O  O49  1  0.62763965  0.10070338  0.42011780  1  0  -0.80923  0  1.963539  0  0  -0.767723  0  2.213005  0  0  -0.787198  0  2.195204  0  0  -0.429204  -0.754232  0  2.225065  0
O  O50  1  0.52080732  0.74274964  0.33344008  1  0  -0.399111  0  2.226875  0  0  -0.331189  0  2.479624  0  0  -0.345972  0  2.477786  0  0  -0.291902  -0.320762  0  2.480621  0
O  O51  1  0.47919582  0.25725356  0.66655472  1  0  -0.399239  0  2.226941  0  0  -0.33129  0  2.479687  0  0  -0.346072  0  2.477851  0  0  -0.291972  -0.320857  0  2.480685  0
