# generated using pymatgen
data_ZnH6C13N(ClO2)2
_symmetry_space_group_name_H-M   'P 1'
_cell_length_a   9.83375046
_cell_length_b   11.23387826
_cell_length_c   15.33228504
_cell_angle_alpha   90.70830780
_cell_angle_beta   102.68919737
_cell_angle_gamma   94.33620404
_symmetry_Int_Tables_number   1
_chemical_formula_structural   ZnH6C13N(ClO2)2
_chemical_formula_sum   'Zn2 H12 C26 N2 Cl4 O8'
_cell_volume   1646.94569175
_cell_formula_units_Z   2
loop_
 _symmetry_equiv_pos_site_id
 _symmetry_equiv_pos_as_xyz
  1  'x, y, z'
loop_
 _atom_site_type_symbol
 _atom_site_label
 _atom_site_symmetry_multiplicity
 _atom_site_fract_x
 _atom_site_fract_y
 _atom_site_fract_z
 _atom_site_occupancy
 _atom_site_pbe_bader_charge
 _atom_site_pbe_bader_spin_density
 _atom_site_pbe_cm5_charge
 _atom_site_pbe_ddec_charge
 _atom_site_pbe_ddec_spin_density
 _atom_site_pbe_ddec_sum_bond_order
 _atom_site_pbe_magmom
Zn  Zn0  1  0.63863882  0.48639242  0.52424114  1  1.28767  0  0.662334  0.820154  0  2.44659  0
Zn  Zn1  1  0.36178455  0.51364994  0.48036012  1  1.288628  0  0.662502  0.818978  0  2.450114  0
H  H2  1  0.28572941  0.49626430  0.19708495  1  0.118192  0  0.103719  0.115345  0  1.009802  0
H  H3  1  0.29758544  0.10352869  0.48179367  1  0.092001  0  0.107119  0.125054  0  0.986429  0
H  H4  1  0.86847774  0.56187762  0.44766566  1  0.207056  0  0.141709  0.128691  0  0.991276  0
H  H5  1  0.13080990  0.43670229  0.55433451  1  0.19892  0  0.141844  0.128622  0  0.992528  0
H  H6  1  0.71397812  0.50461999  0.80751136  1  0.123569  0  0.104442  0.116508  0  1.009348  0
H  H7  1  0.73278270  0.49970805  0.25321191  1  0.096886  0  0.091969  0.096994  0  1.05603  0
H  H8  1  0.26687153  0.49984154  0.75116413  1  0.097167  0  0.092208  0.097643  0  1.056173  0
H  H9  1  0.85060867  0.50648807  0.96373011  1  0.084784  0  0.099687  0.116167  0  1.021462  0
H  H10  1  0.14889005  0.49343830  0.04068727  1  0.087697  0  0.099695  0.116247  0  1.022368  0
H  H11  1  0.38148936  0.89587594  0.49412167  1  0.116058  0  0.107185  0.106722  0  0.986424  0
H  H12  1  0.61912091  0.10430473  0.52151460  1  0.112272  0  0.107213  0.105946  0  0.987708  0
H  H13  1  0.70287263  0.89663332  0.53020762  1  0.088602  0  0.107372  0.125375  0  0.985646  0
C  C14  1  0.43462253  0.26950608  0.49549037  1  1.555961  0  0.206738  0.636131  0  4.171619  0
C  C15  1  0.92659092  0.50598114  0.49851608  1  0.587071  0  0.093879  0.086999  0  3.840959  0
C  C16  1  0.48842287  0.50235224  0.67262911  1  1.561251  0  0.216815  0.600782  0  4.147412  0
C  C17  1  0.51149957  0.49795871  0.33193026  1  1.559038  0  0.218181  0.602542  0  4.146585  0
C  C18  1  0.38146704  0.49735489  0.17224374  1  -0.014459  0  -0.077153  -0.13232  0  3.910149  0
C  C19  1  0.61820174  0.50333961  0.83230047  1  -0.045209  0  -0.078065  -0.134264  0  3.910515  0
C  C20  1  0.50950204  0.49829215  0.23376444  1  -0.034122  0  -0.016041  -0.019012  0  3.983908  0
C  C21  1  0.49020667  0.50218942  0.77075297  1  0.007552  0  -0.015942  -0.017706  0  3.984051  0
C  C22  1  0.63435021  0.49959887  0.20412164  1  0.003509  0  -0.086761  -0.134699  0  3.941016  0
C  C23  1  0.36526924  0.50032934  0.80032770  1  -0.007471  0  -0.08771  -0.136775  0  3.942557  0
C  C24  1  0.63366689  0.50088722  0.11261200  1  0.035728  0  -0.011093  0.018992  0  4.014517  0
C  C25  1  0.56578058  0.73054362  0.51273746  1  1.563898  0  0.206726  0.636015  0  4.172812  0
C  C26  1  0.36591108  0.49894481  0.89185519  1  -0.005197  0  -0.010122  0.019637  0  4.013595  0
C  C27  1  0.50265508  0.49955659  0.04896528  1  -0.009808  0  0.006087  0.010514  0  3.917695  0
C  C28  1  0.49691162  0.50038236  0.95556043  1  -0.008826  0  0.005834  0.009752  0  3.915956  0
C  C29  1  0.37576494  0.49739843  0.08012824  1  -0.00532  0  -0.005202  0.093026  0  4.041919  0
C  C30  1  0.62380249  0.50283610  0.92439321  1  -0.012548  0  -0.004836  0.094043  0  4.040982  0
C  C31  1  0.75856733  0.50341089  0.07769820  1  0.011222  0  0.013681  0.109156  0  4.035123  0
C  C32  1  0.24095161  0.49619123  0.92671938  1  0.061534  0  0.013023  0.108587  0  4.034472  0
C  C33  1  0.75438218  0.50446344  0.98813983  1  0.009491  0  -0.094432  -0.198917  0  3.973145  0
C  C34  1  0.24517920  0.49547936  0.01632521  1  -0.002223  0  -0.094585  -0.198907  0  3.972319  0
C  C35  1  0.40714497  0.13808948  0.49482887  1  -0.066144  0  -0.090128  -0.225779  0  3.87758  0
C  C36  1  0.59334006  0.86208054  0.51752031  1  -0.091999  0  -0.089991  -0.225061  0  3.876068  0
C  C37  1  0.51152950  0.06410586  0.50873860  1  -0.026375  0  -0.073311  -0.02571  0  4.012977  0
C  C38  1  0.48905902  0.93608238  0.50641805  1  -0.08003  0  -0.073393  -0.027563  0  4.012913  0
C  C39  1  0.07314823  0.49324384  0.50377506  1  0.63966  0  0.092493  0.084176  0  3.845923  0
N  N40  1  0.14937803  0.54405727  0.45396124  1  -0.859011  0  -0.247225  -0.096257  0  3.33336  0
N  N41  1  0.85099028  0.45579740  0.54898148  1  -0.870395  0  -0.246675  -0.097219  0  3.329884  0
Cl  Cl42  1  0.92004603  0.50529779  0.15220702  1  -0.225907  0  -0.016557  -0.099587  0  1.520033  0
Cl  Cl43  1  0.07950441  0.49384163  0.85212468  1  -0.22735  0  -0.016518  -0.09937  0  1.519757  0
Cl  Cl44  1  0.92365260  0.36491773  0.63146432  1  0.136506  0  0.155314  0.079804  0  1.461819  0
Cl  Cl45  1  0.07776987  0.63609344  0.37203536  1  0.13442  0  0.155286  0.079749  0  1.46014  0
O  O46  1  0.56198025  0.31251652  0.51113432  1  -1.162319  0  -0.324581  -0.560782  0  2.32571  0
O  O47  1  0.43846427  0.68740042  0.49687483  1  -1.162967  0  -0.324594  -0.560344  0  2.326118  0
O  O48  1  0.32764520  0.33058602  0.47992640  1  -1.148753  0  -0.326912  -0.551394  0  2.257998  0
O  O49  1  0.67267762  0.66943945  0.52483389  1  -1.150662  0  -0.327251  -0.552057  0  2.258556  0
O  O50  1  0.60590719  0.49681992  0.65111381  1  -1.161573  0  -0.318931  -0.548125  0  2.330333  0
O  O51  1  0.39440848  0.50542167  0.35358646  1  -1.159104  0  -0.319313  -0.548666  0  2.332296  0
O  O52  1  0.37090537  0.50795055  0.61819563  1  -1.163555  0  -0.317578  -0.548338  0  2.309994  0
O  O53  1  0.62866804  0.49022769  0.38629647  1  -1.165015  0  -0.318156  -0.549497  0  2.309558  0
