# generated using pymatgen
data_CdH12C18(N3O2)2
_symmetry_space_group_name_H-M   'P 1'
_cell_length_a   8.35711732
_cell_length_b   17.70730339
_cell_length_c   19.15976340
_cell_angle_alpha   89.99991065
_cell_angle_beta   90.00002586
_cell_angle_gamma   90.00006550
_symmetry_Int_Tables_number   1
_chemical_formula_structural   CdH12C18(N3O2)2
_chemical_formula_sum   'Cd4 H48 C72 N24 O16'
_cell_volume   2835.30033274
_cell_formula_units_Z   4
loop_
 _symmetry_equiv_pos_site_id
 _symmetry_equiv_pos_as_xyz
  1  'x, y, z'
loop_
 _atom_site_type_symbol
 _atom_site_label
 _atom_site_symmetry_multiplicity
 _atom_site_fract_x
 _atom_site_fract_y
 _atom_site_fract_z
 _atom_site_occupancy
 _atom_site_pbe_bader_charge
 _atom_site_pbe_bader_spin_density
 _atom_site_pbe_cm5_charge
 _atom_site_pbe_ddec_charge
 _atom_site_pbe_ddec_spin_density
 _atom_site_pbe_ddec_sum_bond_order
 _atom_site_pbe_magmom
Cd  Cd0  1  0.48037031  0.08593131  0.03156196  1  1.236243  0  0.774208  0.861645  0  2.18073  0
Cd  Cd1  1  0.51963254  0.58593045  0.96843799  1  1.236361  0  0.774167  0.86161  0  2.180819  0
Cd  Cd2  1  0.51962932  0.08593260  0.53156292  1  1.236272  0  0.774227  0.861716  0  2.180623  0
Cd  Cd3  1  0.48036635  0.58593311  0.46843860  1  1.236272  0  0.774188  0.861612  0  2.180729  0
H  H4  1  0.64535466  0.08333908  0.86667668  1  0.174175  0  0.137465  0.109836  0  0.99112  0
H  H5  1  0.35464459  0.58333725  0.13332537  1  0.174162  0  0.137451  0.109819  0  0.99112  0
H  H6  1  0.35464291  0.08334054  0.36667465  1  0.174156  0  0.137469  0.109844  0  0.991116  0
H  H7  1  0.64535754  0.58333974  0.63332479  1  0.174142  0  0.137459  0.109821  0  0.991109  0
H  H8  1  0.15879580  0.11028824  0.91462866  1  0.160089  0  0.150376  0.126601  0  0.986407  0
H  H9  1  0.84120233  0.61028902  0.08537126  1  0.160112  0  0.150363  0.126571  0  0.986418  0
H  H10  1  0.84120070  0.11029053  0.41462882  1  0.160098  0  0.150376  0.126554  0  0.98645  0
H  H11  1  0.15879862  0.61029124  0.58537162  1  0.160112  0  0.150375  0.126557  0  0.986428  0
H  H12  1  0.98531034  0.04305355  0.83803025  1  0.060686  0  0.1048  0.110931  0  1.024534  0
H  H13  1  0.01468762  0.54305376  0.16197133  1  0.060738  0  0.104817  0.110951  0  1.024553  0
H  H14  1  0.01468950  0.04305032  0.33802972  1  0.060697  0  0.104795  0.110929  0  1.02455  0
H  H15  1  0.98531085  0.54305586  0.66196925  1  0.060763  0  0.104796  0.110937  0  1.024541  0
H  H16  1  0.76772809  0.04378886  0.74764132  1  0.119878  0  0.109449  0.117927  0  1.004215  0
H  H17  1  0.23227227  0.54379129  0.25235817  1  0.120143  0  0.109427  0.11791  0  1.004236  0
H  H18  1  0.23227645  0.04379026  0.24764292  1  0.120116  0  0.109478  0.117973  0  1.004147  0
H  H19  1  0.76772750  0.54379102  0.75235761  1  0.120184  0  0.109422  0.117907  0  1.004217  0
H  H20  1  0.09919974  0.12544438  0.59485173  1  0.082866  0  0.099101  0.097173  0  1.060998  0
H  H21  1  0.90080321  0.62544805  0.40514816  1  0.082864  0  0.099076  0.097168  0  1.06106  0
H  H22  1  0.90080962  0.12545010  0.09485346  1  0.082702  0  0.099116  0.097198  0  1.061058  0
H  H23  1  0.09919931  0.62544177  0.90515061  1  0.082821  0  0.099092  0.097181  0  1.061013  0
H  H24  1  0.31879824  0.12678618  0.68474900  1  0.111975  0  0.107681  0.114165  0  1.030684  0
H  H25  1  0.68120352  0.62678706  0.31525089  1  0.111984  0  0.10767  0.114147  0  1.030654  0
H  H26  1  0.68120643  0.12678783  0.18474912  1  0.112023  0  0.107677  0.114152  0  1.030616  0
H  H27  1  0.31879891  0.62678316  0.81525286  1  0.111941  0  0.107641  0.114102  0  1.030677  0
H  H28  1  0.41039907  0.25600115  0.13107350  1  0.135953  0  0.147299  0.116935  0  0.950676  0
H  H29  1  0.58960060  0.75599823  0.86892516  1  0.135912  0  0.147286  0.116938  0  0.950618  0
H  H30  1  0.58958432  0.25600078  0.63108125  1  0.135985  0  0.147227  0.116823  0  0.950575  0
H  H31  1  0.41039860  0.75600199  0.36892628  1  0.135945  0  0.147309  0.116945  0  0.950649  0
H  H32  1  0.79990884  0.19782763  0.00315916  1  0.185262  0  0.151708  0.136678  0  0.984072  0
H  H33  1  0.20009428  0.69782823  0.99683959  1  0.185305  0  0.151654  0.136621  0  0.983947  0
H  H34  1  0.20008624  0.19782874  0.50315797  1  0.185217  0  0.151694  0.136661  0  0.984145  0
H  H35  1  0.79991090  0.69782825  0.49684130  1  0.18526  0  0.151685  0.136661  0  0.984058  0
H  H36  1  0.71367966  0.44284681  0.03847987  1  0.127944  0  0.109369  0.120738  0  1.016178  0
H  H37  1  0.28632645  0.94284640  0.96152009  1  0.127865  0  0.109381  0.120752  0  1.016127  0
H  H38  1  0.28631605  0.44284459  0.53847921  1  0.128  0  0.109388  0.120801  0  1.016141  0
H  H39  1  0.71368288  0.94284749  0.46151813  1  0.127964  0  0.109386  0.120735  0  1.016205  0
H  H40  1  0.94081788  0.53192822  0.01050766  1  0.090956  0  0.099679  0.102492  0  1.058974  0
H  H41  1  0.05919082  0.03192895  0.98949132  1  0.091055  0  0.099698  0.102485  0  1.05907  0
H  H42  1  0.05918280  0.53192700  0.51050749  1  0.090964  0  0.099684  0.102529  0  1.058936  0
H  H43  1  0.94081633  0.03192961  0.48948941  1  0.090819  0  0.099708  0.102496  0  1.059112  0
H  H44  1  0.27544948  0.34919439  0.02615041  1  0.130291  0  0.105456  0.109608  0  1.009509  0
H  H45  1  0.72455520  0.84919588  0.97384655  1  0.130618  0  0.105461  0.109583  0  1.009589  0
H  H46  1  0.72454359  0.34919861  0.52615089  1  0.130456  0  0.105454  0.109562  0  1.0096  0
H  H47  1  0.27544673  0.84919618  0.47384868  1  0.130594  0  0.105464  0.109619  0  1.009524  0
H  H48  1  0.05296837  0.25958325  0.05481104  1  0.113391  0  0.105733  0.12104  0  1.024908  0
H  H49  1  0.94703490  0.75958492  0.94518658  1  0.113429  0  0.105739  0.121052  0  1.024938  0
H  H50  1  0.94701734  0.25958647  0.55481208  1  0.113402  0  0.105705  0.120957  0  1.024988  0
H  H51  1  0.05297037  0.75958453  0.44518762  1  0.113399  0  0.105728  0.121011  0  1.024987  0
C  C52  1  0.51663803  0.08773893  0.86054558  1  0.95888  0  0.149993  0.141644  0  3.989752  0
C  C53  1  0.48336123  0.58773773  0.13945541  1  0.958876  0  0.150043  0.141729  0  3.98984  0
C  C54  1  0.48336075  0.08774159  0.36054462  1  0.958885  0  0.150031  0.141683  0  3.989585  0
C  C55  1  0.51664091  0.58774014  0.63945533  1  0.958861  0  0.150092  0.141755  0  3.989609  0
C  C56  1  0.27032346  0.10069281  0.88714556  1  1.003795  0  0.170619  0.095639  0  3.880089  0
C  C57  1  0.72967464  0.60069066  0.11285437  1  1.003813  0  0.170686  0.095692  0  3.880124  0
C  C58  1  0.72967657  0.10069392  0.38714518  1  1.003799  0  0.170608  0.095657  0  3.880137  0
C  C59  1  0.27032512  0.60069295  0.61285476  1  1.003805  0  0.170637  0.095667  0  3.880118  0
C  C60  1  0.16190921  0.08829969  0.76638729  1  0.282037  0  0.100927  0.148097  0  4.01426  0
C  C61  1  0.83809006  0.58829966  0.23361318  1  0.282087  0  0.100958  0.148139  0  4.014304  0
C  C62  1  0.83809426  0.08829973  0.26638744  1  0.28201  0  0.100933  0.148105  0  4.014214  0
C  C63  1  0.16191219  0.58829850  0.73361303  1  0.282047  0  0.100895  0.148026  0  4.01431  0
C  C64  1  0.00877744  0.06356973  0.78531654  1  -0.102991  0  -0.091478  -0.173453  0  3.988418  0
C  C65  1  0.99121938  0.56356868  0.21468449  1  -0.103095  0  -0.091493  -0.173464  0  3.988529  0
C  C66  1  0.99122240  0.06356702  0.28531620  1  -0.103051  0  -0.091497  -0.173472  0  3.988495  0
C  C67  1  0.00878040  0.56357026  0.71468326  1  -0.102621  0  -0.091458  -0.173438  0  3.988465  0
C  C68  1  0.88804591  0.06339663  0.73521632  1  0.04357  0  -0.076727  -0.071729  0  3.953201  0
C  C69  1  0.11195449  0.56339898  0.26478262  1  0.042994  0  -0.076708  -0.071689  0  3.953192  0
C  C70  1  0.11195866  0.06339797  0.23521894  1  0.043229  0  -0.076677  -0.071744  0  3.953156  0
C  C71  1  0.88804653  0.56339821  0.76478261  1  0.042857  0  -0.076666  -0.07164  0  3.953094  0
C  C72  1  0.91995523  0.08774710  0.66698686  1  -0.011936  0  -0.016042  -0.023515  0  3.958296  0
C  C73  1  0.08004523  0.58775214  0.33301152  1  -0.011998  0  -0.015974  -0.023548  0  3.958335  0
C  C74  1  0.08005172  0.08775294  0.16699000  1  -0.012101  0  -0.016026  -0.023446  0  3.958278  0
C  C75  1  0.91995473  0.58774856  0.83301308  1  -0.011879  0  -0.01602  -0.023594  0  3.958346  0
C  C76  1  0.07525250  0.10979259  0.64874750  1  -0.049362  0  -0.082511  -0.078026  0  3.967293  0
C  C77  1  0.92474922  0.60979467  0.35125242  1  -0.048753  0  -0.082524  -0.07806  0  3.967445  0
C  C78  1  0.92475688  0.10979776  0.14874976  1  -0.04846  0  -0.082584  -0.078171  0  3.96754  0
C  C79  1  0.07525081  0.60979177  0.85125329  1  -0.049326  0  -0.082505  -0.07805  0  3.967348  0
C  C80  1  0.19719170  0.11016475  0.69805814  1  0.068954  0  -0.085854  -0.150893  0  3.962989  0
C  C81  1  0.80280882  0.61016628  0.30194178  1  0.068945  0  -0.085858  -0.150876  0  3.962933  0
C  C82  1  0.80281295  0.11016815  0.19805829  1  0.068812  0  -0.08584  -0.150833  0  3.962841  0
C  C83  1  0.19719236  0.61016231  0.80194372  1  0.068886  0  -0.085818  -0.150778  0  3.962856  0
C  C84  1  0.78907515  0.09069618  0.61373045  1  1.526641  0  0.186379  0.55201  0  4.244263  0
C  C85  1  0.21092652  0.59070007  0.38626741  1  1.526302  0  0.186398  0.552177  0  4.244107  0
C  C86  1  0.21093295  0.09070096  0.11373466  1  1.526206  0  0.186336  0.552064  0  4.244196  0
C  C87  1  0.78907231  0.59069698  0.88626790  1  1.526574  0  0.186407  0.55217  0  4.244197  0
C  C88  1  0.52281102  0.25907282  0.10284508  1  0.987536  0  0.153121  0.14201  0  3.99684  0
C  C89  1  0.47718866  0.75907092  0.89715201  1  0.987488  0  0.153192  0.142104  0  3.996666  0
C  C90  1  0.47717234  0.25907295  0.60285386  1  0.98788  0  0.153246  0.142203  0  3.996502  0
C  C91  1  0.52281178  0.75907530  0.39715419  1  0.987558  0  0.153101  0.141993  0  3.996874  0
C  C92  1  0.71963361  0.22777849  0.03800142  1  1.004261  0  0.170533  0.093312  0  3.877238  0
C  C93  1  0.28037078  0.72777694  0.96199728  1  1.003766  0  0.170531  0.093308  0  3.876999  0
C  C94  1  0.28036039  0.22777683  0.53800285  1  1.004789  0  0.170464  0.093182  0  3.877375  0
C  C95  1  0.71963204  0.72777917  0.46199898  1  1.004256  0  0.17054  0.093315  0  3.877262  0
C  C96  1  0.87214568  0.34775896  0.04889657  1  0.260775  0  0.097939  0.144486  0  4.018412  0
C  C97  1  0.12785900  0.84775961  0.95110195  1  0.260827  0  0.098  0.144477  0  4.018464  0
C  C98  1  0.12784742  0.34775778  0.54889850  1  0.261046  0  0.09787  0.144436  0  4.01839  0
C  C99  1  0.87214769  0.84775966  0.45109951  1  0.260934  0  0.097968  0.1445  0  4.018459  0
C  C100  1  0.83772719  0.42385751  0.03706077  1  -0.045106  0  -0.085664  -0.154533  0  3.973  0
C  C101  1  0.16227887  0.92385815  0.96293816  1  -0.045155  0  -0.085648  -0.154475  0  3.972787  0
C  C102  1  0.16227086  0.42385521  0.53706166  1  -0.045321  0  -0.085745  -0.154682  0  3.972955  0
C  C103  1  0.83772682  0.92385762  0.46293467  1  -0.045264  0  -0.08567  -0.154489  0  3.972947  0
C  C104  1  0.96340336  0.47270689  0.02231735  1  -0.023038  0  -0.085697  -0.092976  0  3.986122  0
C  C105  1  0.03660163  0.97270744  0.97768047  1  -0.023157  0  -0.085704  -0.092952  0  3.986153  0
C  C106  1  0.03659719  0.47270566  0.52231717  1  -0.022961  0  -0.085704  -0.093054  0  3.986063  0
C  C107  1  0.96339941  0.97270811  0.47767856  1  -0.022825  0  -0.085713  -0.092964  0  3.98616  0
C  C108  1  0.12106741  0.44598492  0.01903228  1  0.013809  0  -0.014645  -0.022106  0  3.955784  0
C  C109  1  0.87893750  0.94598705  0.98096402  1  0.013817  0  -0.014713  -0.022246  0  3.955837  0
C  C110  1  0.87892948  0.44598640  0.51903383  1  0.013783  0  -0.014682  -0.022077  0  3.955595  0
C  C111  1  0.12106347  0.94598670  0.48096560  1  0.013707  0  -0.014691  -0.022253  0  3.955793  0
C  C112  1  0.15234725  0.36910252  0.02959301  1  -0.063058  0  -0.078338  -0.069969  0  3.957354  0
C  C113  1  0.84765628  0.86910465  0.97040287  1  -0.063332  0  -0.078292  -0.069834  0  3.95731  0
C  C114  1  0.84764707  0.36910511  0.52959195  1  -0.0633  0  -0.078263  -0.069886  0  3.957354  0
C  C115  1  0.15234450  0.86910432  0.47040655  1  -0.063362  0  -0.078336  -0.06992  0  3.957276  0
C  C116  1  0.02817161  0.31932640  0.04524302  1  -0.016664  0  -0.089341  -0.171672  0  3.973037  0
C  C117  1  0.97183181  0.81932806  0.95475398  1  -0.01662  0  -0.089455  -0.171807  0  3.973212  0
C  C118  1  0.97181902  0.31932793  0.54524407  1  -0.016698  0  -0.089273  -0.171505  0  3.973006  0
C  C119  1  0.02817362  0.81932766  0.45475450  1  -0.016624  0  -0.089408  -0.171711  0  3.973139  0
C  C120  1  0.25412292  0.50050428  0.00468187  1  1.559228  0  0.188564  0.558919  0  4.236918  0
C  C121  1  0.74588092  0.00050594  0.99531769  1  1.559212  0  0.188748  0.559216  0  4.23679  0
C  C122  1  0.74587648  0.50050682  0.50468287  1  1.559208  0  0.188717  0.559101  0  4.236767  0
C  C123  1  0.25411779  0.00050623  0.49531721  1  1.55919  0  0.188771  0.559244  0  4.236951  0
N  N124  1  0.41539383  0.09828704  0.91587767  1  -1.220138  0  -0.349257  -0.320984  0  3.507215  0
N  N125  1  0.58460426  0.59828656  0.08412279  1  -1.220102  0  -0.349304  -0.321016  0  3.507348  0
N  N126  1  0.58460503  0.09829033  0.41587673  1  -1.220091  0  -0.349325  -0.321045  0  3.507159  0
N  N127  1  0.41539546  0.59828892  0.58412321  1  -1.220093  0  -0.349316  -0.321003  0  3.507207  0
N  N128  1  0.28490978  0.09101212  0.81748657  1  -0.85553  0  -0.10981  0.141318  0  3.751697  0
N  N129  1  0.71509069  0.59101154  0.18251390  1  -0.855533  0  -0.109802  0.141336  0  3.751611  0
N  N130  1  0.71509135  0.09101209  0.31748566  1  -0.855282  0  -0.109777  0.141361  0  3.751539  0
N  N131  1  0.28491151  0.59101214  0.68251429  1  -0.855527  0  -0.109824  0.14131  0  3.751694  0
N  N132  1  0.44248683  0.08343226  0.79965704  1  -0.643388  0  -0.210322  -0.240203  0  3.067766  0
N  N133  1  0.55751362  0.58343100  0.20034344  1  -0.643429  0  -0.210361  -0.240281  0  3.067774  0
N  N134  1  0.55751427  0.08343271  0.29965662  1  -0.643639  0  -0.210323  -0.240228  0  3.067664  0
N  N135  1  0.44248858  0.58343281  0.70034334  1  -0.643427  0  -0.21033  -0.240219  0  3.067787  0
N  N136  1  0.58103316  0.20148702  0.06256540  1  -1.227321  0  -0.34869  -0.321763  0  3.510235  0
N  N137  1  0.41897236  0.70148559  0.93743334  1  -1.226979  0  -0.348719  -0.321819  0  3.510091  0
N  N138  1  0.41896199  0.20148826  0.56256895  1  -1.227937  0  -0.348696  -0.321707  0  3.509998  0
N  N139  1  0.58103277  0.70148887  0.43743397  1  -1.227183  0  -0.348667  -0.321713  0  3.510244  0
N  N140  1  0.74273736  0.29797833  0.06310241  1  -0.861457  0  -0.111322  0.142839  0  3.758316  0
N  N141  1  0.25726600  0.79797794  0.93689723  1  -0.861413  0  -0.111276  0.142935  0  3.758317  0
N  N142  1  0.25725084  0.29797665  0.56310540  1  -0.861624  0  -0.111188  0.142897  0  3.758398  0
N  N143  1  0.74274056  0.79797905  0.43689633  1  -0.861526  0  -0.11127  0.142834  0  3.758403  0
N  N144  1  0.61729703  0.31915483  0.10453661  1  -0.656926  0  -0.217135  -0.252465  0  3.050888  0
N  N145  1  0.38270519  0.81915345  0.89546248  1  -0.656917  0  -0.21714  -0.252512  0  3.050898  0
N  N146  1  0.38268529  0.31915435  0.60454172  1  -0.65698  0  -0.217199  -0.252504  0  3.051064  0
N  N147  1  0.61729898  0.81915619  0.39546259  1  -0.657026  0  -0.217153  -0.252467  0  3.051002  0
O  O148  1  0.65796531  0.05666554  0.62865027  1  -1.133954  0  -0.337661  -0.539747  0  2.185808  0
O  O149  1  0.34203627  0.55667009  0.37134868  1  -1.133863  0  -0.337674  -0.539801  0  2.185788  0
O  O150  1  0.34204033  0.05667095  0.12865242  1  -1.133941  0  -0.337614  -0.539691  0  2.185872  0
O  O151  1  0.65796245  0.55666693  0.87134915  1  -1.133929  0  -0.33767  -0.539761  0  2.185782  0
O  O152  1  0.81080155  0.12680337  0.55701104  1  -1.189446  0  -0.345218  -0.583306  0  2.127137  0
O  O153  1  0.18919900  0.62680658  0.44298729  1  -1.189441  0  -0.345276  -0.583387  0  2.127025  0
O  O154  1  0.18920059  0.12680870  0.05701420  1  -1.189379  0  -0.345268  -0.583424  0  2.126987  0
O  O155  1  0.81079997  0.62680182  0.94298830  1  -1.189397  0  -0.345274  -0.583417  0  2.12715  0
O  O156  1  0.22910960  0.57062787  0.01455981  1  -1.194182  0  -0.343966  -0.59221  0  2.160881  0
O  O157  1  0.77089441  0.07063013  0.98543860  1  -1.194274  0  -0.34404  -0.592313  0  2.160725  0
O  O158  1  0.77089357  0.57063043  0.51455873  1  -1.194266  0  -0.344035  -0.592296  0  2.160783  0
O  O159  1  0.22910805  0.07063040  0.48543968  1  -1.194296  0  -0.344049  -0.592327  0  2.160786  0
O  O160  1  0.38802364  0.47378628  0.98344294  1  -1.144751  0  -0.34072  -0.546508  0  2.161006  0
O  O161  1  0.61198494  0.97378592  0.01655749  1  -1.14455  0  -0.340789  -0.546641  0  2.161186  0
O  O162  1  0.61197620  0.47378788  0.48344410  1  -1.144696  0  -0.340773  -0.546588  0  2.161094  0
O  O163  1  0.38801443  0.97378657  0.51655894  1  -1.144602  0  -0.340823  -0.546679  0  2.16123  0
