# generated using pymatgen
data_Cu2H36C28N6O7
_symmetry_space_group_name_H-M   'P 1'
_cell_length_a   13.41469439
_cell_length_b   14.34278534
_cell_length_c   16.09538478
_cell_angle_alpha   89.99998011
_cell_angle_beta   90.00013526
_cell_angle_gamma   90.00010710
_symmetry_Int_Tables_number   1
_chemical_formula_structural   Cu2H36C28N6O7
_chemical_formula_sum   'Cu8 H144 C112 N24 O28'
_cell_volume   3096.81773401
_cell_formula_units_Z   4
loop_
 _symmetry_equiv_pos_site_id
 _symmetry_equiv_pos_as_xyz
  1  'x, y, z'
loop_
 _atom_site_type_symbol
 _atom_site_label
 _atom_site_symmetry_multiplicity
 _atom_site_fract_x
 _atom_site_fract_y
 _atom_site_fract_z
 _atom_site_occupancy
 _atom_site_pbe_bader_charge
 _atom_site_pbe_bader_spin_density
 _atom_site_pbe_cm5_charge
 _atom_site_pbe_ddec_charge
 _atom_site_pbe_ddec_spin_density
 _atom_site_pbe_ddec_sum_bond_order
 _atom_site_pbe_magmom
Cu  Cu0  1  0.29126173  0.79286013  0.33908929  1  1.053395  0.581753  0.75681  0.741108  0.733529  2.372521  0.579
Cu  Cu1  1  0.20874041  0.20714389  0.83909350  1  1.053206  0.581755  0.756771  0.74102  0.733536  2.372565  0.579
Cu  Cu2  1  0.79126306  0.70713936  0.66091062  1  1.053273  0.581759  0.756788  0.741061  0.733538  2.372502  0.579
Cu  Cu3  1  0.70873601  0.29286281  0.16090640  1  1.053293  0.58176  0.756759  0.74102  0.733535  2.372485  0.579
Cu  Cu4  1  0.56540275  0.54291239  0.41204530  1  1.054534  0.582732  0.753906  0.744174  0.737829  2.364796  0.58
Cu  Cu5  1  0.93459330  0.45708550  0.91204676  1  1.05457  0.582734  0.753885  0.744171  0.737833  2.36481  0.58
Cu  Cu6  1  0.06540246  0.95708880  0.58795666  1  1.054647  0.582727  0.75389  0.744189  0.737823  2.364712  0.58
Cu  Cu7  1  0.43459598  0.04291253  0.08795483  1  1.054605  0.582726  0.753895  0.744061  0.737825  2.364915  0.58
H  H8  1  0.21775855  0.12114389  0.66971702  1  0.558879  0.000471  0.318843  0.275557  0.000488  0.999996  0.0
H  H9  1  0.28223863  0.87885949  0.16971463  1  0.558873  0.000471  0.31882  0.275587  0.000488  0.99997  0.0
H  H10  1  0.71776077  0.37885933  0.33028414  1  0.558871  0.000471  0.318812  0.275553  0.000488  1.000022  0.0
H  H11  1  0.78224027  0.62113789  0.83028589  1  0.558845  0.000471  0.318831  0.275517  0.000488  0.999994  0.0
H  H12  1  0.63608595  0.55453917  0.58469175  1  0.556923  0.000304  0.318639  0.277491  0.000314  0.998653  0.0
H  H13  1  0.86390992  0.44546024  0.08469276  1  0.556882  0.000304  0.31861  0.277481  0.000314  0.998683  0.0
H  H14  1  0.13608589  0.94546075  0.41530786  1  0.556921  0.000304  0.318637  0.277489  0.000314  0.998654  0.0
H  H15  1  0.36391199  0.05453836  0.91530807  1  0.556905  0.000304  0.318634  0.277487  0.000314  0.998657  0.0
H  H16  1  0.50964645  0.84586185  0.52535594  1  0.046093  0.000205  0.094575  0.138446  0.000141  1.001335  0.0
H  H17  1  0.99035074  0.15414526  0.02535915  1  0.046324  0.000205  0.094599  0.138482  0.000141  1.001443  0.0
H  H18  1  0.00964672  0.65413576  0.47464342  1  0.046093  0.000205  0.094579  0.138448  0.000141  1.001352  0.0
H  H19  1  0.49034835  0.34586333  0.97464131  1  0.04608  0.000205  0.09458  0.138472  0.000141  1.001357  0.0
H  H20  1  0.42259281  0.91540404  0.58259212  1  0.032359  0.000321  0.090089  0.124463  0.000164  1.023349  0.0
H  H21  1  0.07740487  0.08460147  0.08259579  1  0.032385  0.000321  0.090128  0.124517  0.000164  1.023333  0.0
H  H22  1  0.92259171  0.58459638  0.41740618  1  0.03233  0.000321  0.090071  0.124457  0.000164  1.023349  0.0
H  H23  1  0.57740212  0.41540500  0.91740324  1  0.032295  0.000321  0.090103  0.124465  0.000164  1.023394  0.0
H  H24  1  0.43401223  0.92917546  0.47243695  1  0.037214  0.000299  0.090408  0.127126  0.000203  1.024597  0.0
H  H25  1  0.06598581  0.07083060  0.97244217  1  0.037225  0.000299  0.09039  0.127056  0.000203  1.024552  0.0
H  H26  1  0.93401291  0.57082220  0.52756075  1  0.037248  0.000299  0.09043  0.127182  0.000203  1.024518  0.0
H  H27  1  0.56598280  0.42917794  0.02755746  1  0.037271  0.000299  0.090431  0.127157  0.000203  1.024597  0.0
H  H28  1  0.35458659  0.75402599  0.56140713  1  0.073724  0.004028  0.114786  0.085062  0.002167  0.952964  0.002
H  H29  1  0.14541699  0.24597674  0.06141274  1  0.073654  0.004028  0.114793  0.085084  0.002167  0.952842  0.002
H  H30  1  0.85458662  0.74597292  0.43859291  1  0.073749  0.004027  0.114789  0.085068  0.002167  0.952977  0.002
H  H31  1  0.64541025  0.25402914  0.93858766  1  0.073757  0.004027  0.114805  0.085109  0.002167  0.952965  0.002
H  H32  1  0.47313274  0.54810939  0.19744704  1  0.101919  0.00321  0.11316  0.07781  0.001741  1.003672  0.002
H  H33  1  0.02686750  0.45188771  0.69744771  1  0.101949  0.003209  0.113177  0.07787  0.00174  1.003603  0.002
H  H34  1  0.97313198  0.95189391  0.80255385  1  0.101906  0.003209  0.11318  0.077817  0.001741  1.003706  0.002
H  H35  1  0.52687048  0.04811100  0.30255059  1  0.101891  0.00321  0.113198  0.077851  0.00174  1.003636  0.002
H  H36  1  0.55964619  0.69760833  0.17211065  1  0.045799  0.000152  0.095499  0.139955  0.000109  1.012985  0.0
H  H37  1  0.94035216  0.30238966  0.67211031  1  0.045769  0.000152  0.09551  0.139969  0.000109  1.012956  0.0
H  H38  1  0.05964180  0.80239355  0.82788819  1  0.045775  0.000152  0.095493  0.13992  0.000109  1.013026  0.0
H  H39  1  0.44035732  0.19760838  0.32788756  1  0.045738  0.000152  0.095484  0.139898  0.000109  1.013066  0.0
H  H40  1  0.62913327  0.60353950  0.12801486  1  0.063872  0.000508  0.092881  0.131334  0.00028  1.028307  0.0
H  H41  1  0.87086570  0.39646129  0.62801498  1  0.063763  0.000508  0.092867  0.131316  0.00028  1.028264  0.0
H  H42  1  0.12913217  0.89646041  0.87198473  1  0.063901  0.000508  0.092874  0.131316  0.00028  1.028299  0.0
H  H43  1  0.37086931  0.10354011  0.37198276  1  0.063842  0.000508  0.092856  0.13129  0.00028  1.028307  0.0
H  H44  1  0.66861255  0.65527424  0.22341491  1  0.040252  0.000187  0.089974  0.123481  6e-05  1.023967  0.0
H  H45  1  0.83138595  0.34472582  0.72341435  1  0.040229  0.000187  0.089975  0.12347  6e-05  1.02397  0.0
H  H46  1  0.16860884  0.84472574  0.77658414  1  0.040292  0.000187  0.089989  0.12346  6e-05  1.024001  0.0
H  H47  1  0.33139088  0.15527552  0.27658456  1  0.040269  0.000187  0.08998  0.123472  6e-05  1.023981  0.0
H  H48  1  0.31025016  0.06392359  0.53755439  1  0.045751  -5.3e-05  0.102574  0.152758  -7.6e-05  0.994087  0.0
H  H49  1  0.18974441  0.93607845  0.03755428  1  0.045752  -5.3e-05  0.102596  0.152758  -7.6e-05  0.994108  0.0
H  H50  1  0.81025511  0.43607770  0.46244696  1  0.045764  -5.3e-05  0.102593  0.152776  -7.6e-05  0.994058  0.0
H  H51  1  0.68974332  0.56391947  0.96245102  1  0.045715  -5.3e-05  0.10259  0.152759  -7.6e-05  0.99412  0.0
H  H52  1  0.42922791  0.11242753  0.51343454  1  0.058155  0.000176  0.10053  0.140948  8.2e-05  1.006246  0.0
H  H53  1  0.07076733  0.88757452  0.01343422  1  0.058034  0.000176  0.100498  0.140929  8.2e-05  1.006297  0.0
H  H54  1  0.92923134  0.38757328  0.48656704  1  0.058047  0.000176  0.1005  0.140915  8.2e-05  1.006299  0.0
H  H55  1  0.57076716  0.61242598  0.98656712  1  0.058005  0.000176  0.100514  0.140954  8.2e-05  1.006317  0.0
H  H56  1  0.31917774  0.17711989  0.49373064  1  0.0527  -0.00016  0.098746  0.138837  -0.000148  0.996942  0.0
H  H57  1  0.18081664  0.82288267  0.99372963  1  0.052818  -0.00016  0.098759  0.138878  -0.000148  0.99696  0.0
H  H58  1  0.81918184  0.32288142  0.50626886  1  0.052785  -0.00016  0.098747  0.13887  -0.000148  0.996942  0.0
H  H59  1  0.68081679  0.67711594  0.00627130  1  0.0528  -0.00016  0.098761  0.138892  -0.000148  0.996998  0.0
H  H60  1  0.39858681  0.27609997  0.87137933  1  0.091404  -0.000273  0.098593  0.137407  -0.000397  1.030046  0.0
H  H61  1  0.10141243  0.72389776  0.37137787  1  0.091299  -0.000273  0.098592  0.137415  -0.000397  1.030046  0.0
H  H62  1  0.89858443  0.22390009  0.12862157  1  0.091354  -0.000273  0.098584  0.13741  -0.000397  1.030069  0.0
H  H63  1  0.60141380  0.77609931  0.62862539  1  0.091443  -0.000273  0.098552  0.137337  -0.000397  1.029992  0.0
H  H64  1  0.44129147  0.36504160  0.80255528  1  0.070541  -0.0002  0.09501  0.134643  -0.000186  0.999814  0.0
H  H65  1  0.05870907  0.63495686  0.30255439  1  0.070381  -0.0002  0.095004  0.134623  -0.000186  0.999826  0.0
H  H66  1  0.94129208  0.13495923  0.19744508  1  0.070291  -0.0002  0.094977  0.134565  -0.000186  0.999864  0.0
H  H67  1  0.55870933  0.86503944  0.69744817  1  0.070307  -0.0002  0.094983  0.134558  -0.000186  0.999802  0.0
H  H68  1  0.51790888  0.26713111  0.82464058  1  0.036694  -1.4e-05  0.096606  0.137145  -1e-05  1.005994  0.0
H  H69  1  0.98209066  0.73286612  0.32463863  1  0.036722  -1.4e-05  0.096594  0.137072  -1e-05  1.006047  0.0
H  H70  1  0.01790771  0.23286967  0.17535895  1  0.036703  -1.4e-05  0.096596  0.13712  -1e-05  1.006014  0.0
H  H71  1  0.48209247  0.76713023  0.67536228  1  0.036257  -1.4e-05  0.096605  0.13709  -1e-05  1.006061  0.0
H  H72  1  0.55928846  0.19746202  0.58504587  1  0.059791  0.000342  0.100882  0.100168  0.00017  1.004537  0.0
H  H73  1  0.94071039  0.80253600  0.08504381  1  0.060035  0.000342  0.100861  0.10012  0.00017  1.004559  0.0
H  H74  1  0.05928961  0.30253674  0.41495623  1  0.060026  0.000342  0.100858  0.100114  0.00017  1.004543  0.0
H  H75  1  0.44070753  0.69746306  0.91495702  1  0.059975  0.000342  0.100861  0.100124  0.00017  1.004542  0.0
H  H76  1  0.58887038  0.23646700  0.68545293  1  0.010957  0.000422  0.095403  0.086931  0.000199  1.032849  0.0
H  H77  1  0.91112875  0.76353377  0.18545269  1  0.010918  0.000422  0.095456  0.08704  0.000199  1.032894  0.0
H  H78  1  0.08887042  0.26353321  0.31454736  1  0.01096  0.000422  0.0954  0.086893  0.000199  1.032851  0.0
H  H79  1  0.41113090  0.73646664  0.81454869  1  0.010982  0.000422  0.095367  0.086849  0.000199  1.032898  0.0
H  H80  1  0.49890381  0.35407524  0.38955620  1  0.044905  -0.000231  0.095066  0.13816  -0.000301  1.032036  0.0
H  H81  1  0.00109698  0.64592179  0.88955987  1  0.044946  -0.000231  0.095044  0.138153  -0.000301  1.032037  0.0
H  H82  1  0.99890264  0.14592569  0.61044116  1  0.044954  -0.000231  0.095078  0.138177  -0.000301  1.032057  0.0
H  H83  1  0.50109703  0.85407511  0.11044133  1  0.04495  -0.000231  0.09506  0.13814  -0.000301  1.032043  0.0
H  H84  1  0.40592225  0.31227085  0.45918353  1  0.061123  -0.000168  0.091798  0.129874  -0.00014  1.012136  0.0
H  H85  1  0.09407725  0.68772684  0.95918985  1  0.061143  -0.000168  0.091803  0.129899  -0.00014  1.01212  0.0
H  H86  1  0.90592245  0.18772991  0.54081179  1  0.061137  -0.000168  0.091807  0.129897  -0.00014  1.012095  0.0
H  H87  1  0.59407851  0.81227021  0.04081278  1  0.061106  -0.000168  0.091798  0.129879  -0.00014  1.012098  0.0
H  H88  1  0.51913160  0.24901058  0.44529831  1  0.082708  -0.000137  0.095704  0.14592  -0.000124  1.038595  0.0
H  H89  1  0.98086827  0.75098730  0.94530040  1  0.082733  -0.000137  0.095712  0.145989  -0.000124  1.03857  0.0
H  H90  1  0.01913304  0.25098951  0.55470060  1  0.082801  -0.000137  0.095698  0.145946  -0.000124  1.038545  0.0
H  H91  1  0.48086754  0.74901043  0.05470113  1  0.082709  -0.000137  0.095704  0.145962  -0.000124  1.038528  0.0
H  H92  1  0.64657078  0.37164859  0.75872490  1  0.075023  0.000377  0.096472  0.133826  0.000246  1.0211  0.0
H  H93  1  0.85342260  0.62835215  0.25872460  1  0.074761  0.000377  0.096491  0.133801  0.000246  1.021099  0.0
H  H94  1  0.14657556  0.12834893  0.24127488  1  0.074792  0.000377  0.096482  0.133803  0.000246  1.021117  0.0
H  H95  1  0.35342406  0.87164955  0.74127482  1  0.074761  0.000377  0.096504  0.133848  0.000246  1.021089  0.0
H  H96  1  0.57736320  0.47676061  0.76313913  1  0.044695  -0.000163  0.09559  0.133539  -0.000151  0.996237  0.0
H  H97  1  0.92262795  0.52323943  0.26314396  1  0.044763  -0.000163  0.095572  0.133509  -0.000151  0.996362  0.0
H  H98  1  0.07736850  0.02323679  0.23685990  1  0.044728  -0.000163  0.095554  0.133481  -0.000151  0.996327  0.0
H  H99  1  0.42263260  0.97676099  0.73685994  1  0.044739  -0.000163  0.095547  0.133517  -0.000151  0.996305  0.0
H  H100  1  0.70133243  0.47818305  0.72572542  1  0.079909  -0.000121  0.100345  0.147932  -0.000141  1.007188  0.0
H  H101  1  0.79866011  0.52181771  0.22572441  1  0.079804  -0.000121  0.100348  0.147974  -0.000141  1.007158  0.0
H  H102  1  0.20133709  0.02181527  0.27427820  1  0.079886  -0.000121  0.100371  0.147974  -0.000141  1.007131  0.0
H  H103  1  0.29866337  0.97818459  0.77427613  1  0.079893  -0.000121  0.100364  0.147984  -0.000141  1.007168  0.0
H  H104  1  0.11553452  0.53717816  0.16133448  1  0.054343  -0.0  0.094472  0.089551  -6e-06  1.042651  0.0
H  H105  1  0.38447308  0.46282244  0.66133647  1  0.053905  -0.0  0.094464  0.089562  -6e-06  1.042702  0.0
H  H106  1  0.61553164  0.96281894  0.83866074  1  0.054273  -0.0  0.094509  0.089624  -6e-06  1.042595  0.0
H  H107  1  0.88446942  0.03718316  0.33866130  1  0.05422  -0.0  0.09449  0.08959  -6e-06  1.042631  0.0
H  H108  1  0.09454186  0.39753230  0.25125839  1  0.06635  1.4e-05  0.095259  0.089228  5e-06  1.029801  0.0
H  H109  1  0.40546376  0.60246826  0.75126224  1  0.066218  1.4e-05  0.095231  0.089267  5e-06  1.029809  0.0
H  H110  1  0.59454024  0.10246583  0.74873818  1  0.066299  1.4e-05  0.095255  0.089286  5e-06  1.029799  0.0
H  H111  1  0.90546206  0.89753840  0.24873603  1  0.066267  1.4e-05  0.095259  0.089273  5e-06  1.029843  0.0
H  H112  1  0.23455763  0.28335795  0.26598140  1  0.046596  2.2e-05  0.092424  0.080563  8e-06  1.049224  0.0
H  H113  1  0.26544505  0.71663983  0.76598494  1  0.046649  2.2e-05  0.092421  0.080547  8e-06  1.049225  0.0
H  H114  1  0.73455620  0.21663973  0.73401607  1  0.046661  2.2e-05  0.092418  0.080578  8e-06  1.049225  0.0
H  H115  1  0.76544830  0.78336102  0.23401554  1  0.046555  2.2e-05  0.092414  0.080529  8e-06  1.049262  0.0
H  H116  1  0.39253878  0.30834906  0.18849164  1  0.057669  -1.9e-05  0.100181  0.104246  -7.1e-05  1.001837  0.0
H  H117  1  0.10746517  0.69164665  0.68849488  1  0.057777  -1.9e-05  0.100218  0.104294  -7.1e-05  1.00182  0.0
H  H118  1  0.89253752  0.19165029  0.81150739  1  0.057717  -1.9e-05  0.100202  0.104293  -7.1e-05  1.001787  0.0
H  H119  1  0.60746869  0.80834764  0.31150716  1  0.057845  -1.9e-05  0.100153  0.104191  -7.1e-05  1.001884  0.0
H  H120  1  0.41289781  0.44818735  0.09958665  1  0.0721  0.000169  0.101592  0.098401  0.000103  1.028733  0.0
H  H121  1  0.08710738  0.55180840  0.59958865  1  0.071893  0.000169  0.101605  0.098476  0.000103  1.028687  0.0
H  H122  1  0.91289503  0.05181134  0.90041242  1  0.072092  0.000169  0.101623  0.098463  0.000103  1.028697  0.0
H  H123  1  0.58710770  0.94818586  0.40041273  1  0.0719  0.000169  0.101568  0.098433  0.000103  1.028665  0.0
H  H124  1  0.35310472  0.66061115  0.15871779  1  0.63512  0.000271  0.295048  0.342587  0.000374  0.967972  0.0
H  H125  1  0.14689840  0.33939015  0.65872122  1  0.635048  0.000271  0.295061  0.342553  0.000374  0.968033  0.0
H  H126  1  0.85310533  0.83938706  0.84128038  1  0.635073  0.000271  0.29507  0.34264  0.000374  0.967944  0.0
H  H127  1  0.64689947  0.16061296  0.34128043  1  0.63505  0.000271  0.295067  0.342587  0.000374  0.968  0.0
H  H128  1  0.29940872  0.63142694  0.94588128  1  -0.012451  8e-06  0.087746  0.08157  8e-06  0.996389  0.0
H  H129  1  0.20059521  0.36857006  0.44588510  1  -0.012433  8e-06  0.087745  0.081592  8e-06  0.99638  0.0
H  H130  1  0.79940566  0.86857047  0.05411554  1  -0.012425  8e-06  0.087744  0.081589  8e-06  0.996344  0.0
H  H131  1  0.70059235  0.13142756  0.55411665  1  -0.012449  8e-06  0.087743  0.081591  8e-06  0.996379  0.0
H  H132  1  0.37536418  0.53680103  0.97654854  1  0.019376  1.5e-05  0.088742  0.084131  -1e-06  0.985987  0.0
H  H133  1  0.12464133  0.46319596  0.47655157  1  0.019436  1.5e-05  0.088758  0.084156  -1e-06  0.986063  0.0
H  H134  1  0.87536197  0.96319652  0.02344842  1  0.019411  1.5e-05  0.088729  0.084121  -1e-06  0.986102  0.0
H  H135  1  0.62463819  0.03680222  0.52344817  1  0.019398  1.5e-05  0.08873  0.084129  -1e-06  0.986096  0.0
H  H136  1  0.20801815  0.62904465  0.07547951  1  0.025482  1.6e-05  0.091976  0.0281  2e-06  0.990902  0.0
H  H137  1  0.29198697  0.37095250  0.57548259  1  0.025344  1.6e-05  0.091943  0.027994  2e-06  0.990961  0.0
H  H138  1  0.70801682  0.87095121  0.92451713  1  0.02541  1.6e-05  0.091979  0.028076  2e-06  0.990935  0.0
H  H139  1  0.79198523  0.12904667  0.42451934  1  0.025406  1.6e-05  0.091964  0.028043  2e-06  0.990908  0.0
H  H140  1  0.23835379  0.49043965  0.87452352  1  0.046962  -1.9e-05  0.082447  0.116136  -3.7e-05  1.013017  0.0
H  H141  1  0.26164845  0.50955599  0.37452369  1  0.047059  -1.9e-05  0.082449  0.116119  -3.7e-05  1.013083  0.0
H  H142  1  0.73835394  0.00955734  0.12547396  1  0.047099  -1.9e-05  0.082461  0.116142  -3.7e-05  1.013078  0.0
H  H143  1  0.76164651  0.99044136  0.62547492  1  0.047063  -1.9e-05  0.082451  0.116148  -3.7e-05  1.013063  0.0
H  H144  1  0.14779353  0.52036121  0.95047874  1  0.015385  -0.000176  0.08027  0.101041  -0.000267  1.053428  0.0
H  H145  1  0.35221116  0.47963579  0.45047785  1  0.015227  -0.000176  0.080227  0.100946  -0.000267  1.053472  0.0
H  H146  1  0.64779218  0.97963803  0.04951965  1  0.015347  -0.000176  0.080251  0.100976  -0.000267  1.053479  0.0
H  H147  1  0.85220806  0.02036279  0.54952109  1  0.015291  -0.000176  0.080271  0.10101  -0.000267  1.053444  0.0
H  H148  1  0.23148602  0.42762198  0.96966384  1  0.041223  -2.3e-05  0.081874  0.113989  -6.9e-05  1.019973  0.0
H  H149  1  0.26851798  0.57237572  0.46966338  1  0.040914  -2.3e-05  0.081859  0.113948  -6.9e-05  1.019802  0.0
H  H150  1  0.73148528  0.07237639  0.03033425  1  0.041215  -2.3e-05  0.081867  0.11399  -6.9e-05  1.019962  0.0
H  H151  1  0.76851490  0.92762234  0.53033524  1  0.040863  -2.3e-05  0.08185  0.113959  -6.9e-05  1.019939  0.0
C  C152  1  0.25342590  0.85229553  0.50462179  1  1.563071  -0.000193  0.218415  0.585116  -0.000562  4.088489  0.0
C  C153  1  0.24657230  0.14770374  0.00462577  1  1.563196  -0.000192  0.218351  0.585148  -0.000562  4.088351  0.0
C  C154  1  0.75342813  0.64770460  0.49538115  1  1.56336  -0.000193  0.218491  0.585103  -0.000562  4.088373  0.0
C  C155  1  0.74656890  0.35229744  0.99537421  1  1.563196  -0.000192  0.218289  0.585073  -0.000562  4.088491  0.0
C  C156  1  0.43594819  0.87880936  0.52381629  1  -0.045754  0.000999  -0.240758  -0.404384  0.000726  3.886849  0.001
C  C157  1  0.06404932  0.12119618  0.02381992  1  -0.045951  0.000999  -0.240819  -0.404422  0.000726  3.886765  0.001
C  C158  1  0.93594957  0.62119039  0.47618267  1  -0.045787  0.000998  -0.240766  -0.404436  0.000726  3.886821  0.001
C  C159  1  0.56404741  0.37881166  0.97617846  1  -0.045844  0.000998  -0.240794  -0.404396  0.000726  3.886851  0.001
C  C160  1  0.35539389  0.80421709  0.50942638  1  0.333178  0.002201  0.007591  0.072376  0.001781  3.896496  0.0
C  C161  1  0.14460880  0.19578636  0.00943139  1  0.332947  0.002201  0.007627  0.072354  0.001781  3.896278  0.0
C  C162  1  0.85539621  0.69578113  0.49057366  1  0.333084  0.0022  0.007535  0.072298  0.00178  3.89642  0.0
C  C163  1  0.64460156  0.30422092  0.99056777  1  0.332891  0.002201  0.007609  0.072277  0.001781  3.89649  0.0
C  C164  1  0.43575478  0.69043872  0.41852526  1  1.381911  -0.002319  0.211879  0.354723  -0.002116  4.218704  -0.001
C  C165  1  0.06424758  0.30956597  0.91853040  1  1.381939  -0.002319  0.211842  0.354637  -0.002116  4.21861  -0.001
C  C166  1  0.93575236  0.80955894  0.58147493  1  1.381843  -0.002319  0.211893  0.354699  -0.002115  4.218854  -0.001
C  C167  1  0.56424574  0.19044326  0.08147108  1  1.381897  -0.00232  0.211829  0.354638  -0.002116  4.218889  -0.001
C  C168  1  0.44202909  0.66240304  0.32790178  1  1.378375  -0.001011  0.213382  0.360771  -0.001234  4.199314  0.0
C  C169  1  0.05797451  0.33760168  0.82790628  1  1.378232  -0.001011  0.213388  0.360812  -0.001234  4.199431  0.0
C  C170  1  0.94202549  0.83759881  0.67209843  1  1.37915  -0.00101  0.213359  0.360813  -0.001233  4.199155  0.0
C  C171  1  0.55797286  0.16240684  0.17209271  1  1.378269  -0.00101  0.213259  0.360622  -0.001234  4.19957  0.0
C  C172  1  0.53979851  0.56520654  0.23444280  1  0.336894  0.002354  0.003829  0.066339  0.002028  3.91729  0.0
C  C173  1  0.96020077  0.43479142  0.73444495  1  0.336835  0.002354  0.003865  0.066242  0.002029  3.917298  0.0
C  C174  1  0.03979719  0.93479670  0.76555848  1  0.336788  0.002355  0.003798  0.066356  0.002029  3.917381  0.0
C  C175  1  0.46020176  0.06520596  0.26555545  1  0.336808  0.002355  0.003822  0.066298  0.00203  3.917229  0.0
C  C176  1  0.60360242  0.63524252  0.18609111  1  -0.081801  0.000891  -0.240806  -0.398158  0.000618  3.876639  0.0
C  C177  1  0.89639820  0.36475546  0.68609129  1  -0.081669  0.000891  -0.240812  -0.398134  0.000618  3.876655  0.0
C  C178  1  0.10359886  0.86475735  0.81390844  1  -0.081784  0.000891  -0.240854  -0.398132  0.000618  3.87672  0.0
C  C179  1  0.39640022  0.13524598  0.31390712  1  -0.0817  0.000891  -0.240792  -0.398058  0.000618  3.876642  0.0
C  C180  1  0.59857056  0.47520385  0.24812071  1  1.556022  0.000432  0.218268  0.579402  6.2e-05  4.104848  0.0
C  C181  1  0.90142876  0.52479201  0.74812271  1  1.555527  0.000431  0.218372  0.579692  6.2e-05  4.104845  0.0
C  C182  1  0.09856912  0.02479568  0.75187898  1  1.555303  0.00043  0.21821  0.579306  6.1e-05  4.10479  0.0
C  C183  1  0.40143128  0.97520767  0.25187617  1  1.55543  0.00043  0.218294  0.579452  6.1e-05  4.104791  0.0
C  C184  1  0.35456208  0.12828631  0.53734940  1  -0.027629  0.000492  -0.229664  -0.428563  0.000247  3.956974  0.0
C  C185  1  0.14543174  0.87171783  0.03734860  1  -0.027685  0.000492  -0.22966  -0.428585  0.000247  3.956968  0.0
C  C186  1  0.85456615  0.37171716  0.46265142  1  -0.027664  0.000492  -0.229668  -0.428594  0.000247  3.95691  0.0
C  C187  1  0.64543228  0.62828002  0.96265475  1  -0.027717  0.000492  -0.22969  -0.428646  0.000247  3.957006  0.0
C  C188  1  0.36037154  0.16894646  0.62222714  1  0.410876  -0.000563  0.101539  0.198213  -0.000719  3.987235  0.0
C  C189  1  0.13962401  0.83105555  0.12222697  1  0.411166  -0.000563  0.101644  0.198367  -0.00072  3.987144  0.0
C  C190  1  0.86037306  0.33105562  0.37777244  1  0.410902  -0.000563  0.101539  0.198324  -0.000719  3.987198  0.0
C  C191  1  0.63962737  0.66894089  0.87777451  1  0.410996  -0.000563  0.101576  0.198347  -0.00072  3.987169  0.0
C  C192  1  0.43423841  0.22051878  0.66344026  1  0.047576  0.002463  -0.040519  -0.135584  0.001604  3.986659  0.002
C  C193  1  0.06575950  0.77948182  0.16344121  1  0.047513  0.002463  -0.040501  -0.135636  0.001604  3.98671  0.002
C  C194  1  0.93423822  0.27948133  0.33655822  1  0.047556  0.002463  -0.040448  -0.135668  0.001604  3.986751  0.002
C  C195  1  0.56576060  0.72051589  0.83656075  1  0.047543  0.002463  -0.040553  -0.13579  0.001604  3.986827  0.002
C  C196  1  0.39536103  0.23800836  0.74352405  1  0.410649  0.000503  0.093534  0.202704  7e-06  4.027453  0.001
C  C197  1  0.10463935  0.76199221  0.24352321  1  0.410629  0.000503  0.093556  0.202767  7e-06  4.027486  0.001
C  C198  1  0.89536057  0.26199308  0.25647622  1  0.410607  0.000504  0.093558  0.202817  7e-06  4.02756  0.001
C  C199  1  0.60463877  0.73800487  0.75647944  1  0.410636  0.000503  0.09361  0.202902  7e-06  4.027545  0.001
C  C200  1  0.44057652  0.28946144  0.81416670  1  -0.080671  0.00028  -0.233967  -0.428755  -2.8e-05  3.969925  0.0
C  C201  1  0.05942480  0.71053701  0.31416454  1  -0.080375  0.00028  -0.233942  -0.42867  -2.8e-05  3.970004  0.0
C  C202  1  0.94057501  0.21054078  0.18583429  1  -0.080306  0.00028  -0.23393  -0.42867  -2.8e-05  3.970065  0.0
C  C203  1  0.55942412  0.78945929  0.68583678  1  -0.079876  0.00028  -0.233919  -0.428562  -2.8e-05  3.969834  0.0
C  C204  1  0.53657617  0.24697678  0.63370885  1  0.038841  0.001639  -0.14988  -0.157204  0.001123  4.021826  0.001
C  C205  1  0.96342282  0.75302122  0.13371059  1  0.03862  0.001639  -0.149945  -0.157302  0.001123  4.021937  0.001
C  C206  1  0.03657410  0.25302125  0.36629009  1  0.038688  0.001639  -0.149871  -0.157086  0.001123  4.021764  0.001
C  C207  1  0.46342364  0.74697579  0.86629153  1  0.038656  0.001639  -0.149853  -0.15698  0.001123  4.021601  0.001
C  C208  1  0.48673363  0.31917963  0.44926772  1  -0.062183  0.000159  -0.242152  -0.442228  -8.2e-05  3.968601  0.0
C  C209  1  0.01326510  0.68081877  0.94927140  1  -0.062701  0.000159  -0.242166  -0.442324  -8.2e-05  3.968733  0.0
C  C210  1  0.98673459  0.18082058  0.55073086  1  -0.062295  0.000159  -0.242164  -0.442302  -8.2e-05  3.968615  0.0
C  C211  1  0.51326640  0.81918024  0.05073045  1  -0.062179  0.000159  -0.242141  -0.442241  -8.2e-05  3.968554  0.0
C  C212  1  0.53374566  0.37263789  0.51794086  1  0.446866  0.001184  0.096219  0.210583  0.000751  4.018294  0.002
C  C213  1  0.96625226  0.62736016  0.01794388  1  0.447424  0.001183  0.096185  0.210498  0.000751  4.018372  0.002
C  C214  1  0.03374590  0.12736153  0.48205808  1  0.446857  0.001183  0.096177  0.21057  0.000751  4.018242  0.002
C  C215  1  0.46625441  0.87263895  0.98205761  1  0.446836  0.001183  0.096161  0.210535  0.000751  4.018382  0.002
C  C216  1  0.55202644  0.34393217  0.60063043  1  0.023514  0.002942  -0.040426  -0.133402  0.001919  3.973778  0.002
C  C217  1  0.94797320  0.65606585  0.10063402  1  0.023505  0.002942  -0.040362  -0.133316  0.001919  3.973707  0.002
C  C218  1  0.05202651  0.15606659  0.39936730  1  0.023444  0.002942  -0.040351  -0.133302  0.001919  3.973643  0.002
C  C219  1  0.44797356  0.84393253  0.89936806  1  0.023482  0.002942  -0.040413  -0.133485  0.001919  3.973706  0.002
C  C220  1  0.59573611  0.42107900  0.63995415  1  0.365837  -0.000224  0.09762  0.192033  -0.00046  3.987568  0.0
C  C221  1  0.90426290  0.57892039  0.13995769  1  0.365791  -0.000224  0.097514  0.191898  -0.00046  3.987591  0.0
C  C222  1  0.09573591  0.07892053  0.36004491  1  0.365814  -0.000224  0.097579  0.191898  -0.00046  3.987591  0.0
C  C223  1  0.40426256  0.92107790  0.86004493  1  0.365818  -0.000224  0.097617  0.192009  -0.00046  3.987572  0.0
C  C224  1  0.63215228  0.43740220  0.72619816  1  -0.079632  0.000439  -0.230683  -0.421037  0.000258  3.953938  0.0
C  C225  1  0.86784175  0.56259716  0.22619977  1  -0.079457  0.000439  -0.230614  -0.420908  0.000258  3.953969  0.0
C  C226  1  0.13215553  0.06259599  0.27380283  1  -0.079436  0.000439  -0.230656  -0.42093  0.000258  3.953948  0.0
C  C227  1  0.36784418  0.93740317  0.77380216  1  -0.079436  0.000439  -0.23066  -0.421036  0.000258  3.953978  0.0
C  C228  1  0.17650493  0.48721790  0.16817564  1  -0.017342  4.1e-05  -0.093588  -0.125762  2.6e-05  3.973739  0.0
C  C229  1  0.32350119  0.51278061  0.66817749  1  -0.016714  4.1e-05  -0.093622  -0.12574  2.6e-05  3.973821  0.0
C  C230  1  0.67650337  0.01277968  0.83182172  1  -0.017038  4.1e-05  -0.093621  -0.125793  2.6e-05  3.973728  0.0
C  C231  1  0.82349841  0.98722104  0.33182124  1  -0.01698  4.1e-05  -0.09363  -0.12574  2.6e-05  3.973778  0.0
C  C232  1  0.16473798  0.40847306  0.21837636  1  -0.072484  0.000252  -0.098252  -0.088252  0.000169  4.0383  0.0
C  C233  1  0.33526754  0.59152473  0.71837884  1  -0.07253  0.000252  -0.098122  -0.088193  0.000169  4.037906  0.0
C  C234  1  0.66473569  0.09152519  0.78162097  1  -0.072538  0.000252  -0.098177  -0.088211  0.000169  4.038142  0.0
C  C235  1  0.83526670  0.90847903  0.28161930  1  -0.072643  0.000252  -0.098166  -0.088241  0.000169  4.038045  0.0
C  C236  1  0.24263459  0.34447859  0.22624765  1  -0.053822  0.000187  -0.099079  -0.102214  0.000137  4.041756  0.0
C  C237  1  0.25736722  0.65551850  0.72625057  1  -0.053947  0.000187  -0.099136  -0.102272  0.000137  4.041531  0.0
C  C238  1  0.74263241  0.15551911  0.77374922  1  -0.054028  0.000187  -0.09909  -0.102316  0.000137  4.041667  0.0
C  C239  1  0.75736847  0.84448163  0.27374865  1  -0.053674  0.000187  -0.099096  -0.102213  0.000137  4.041499  0.0
C  C240  1  0.33194706  0.35874508  0.18320807  1  -0.020683  0.000282  -0.09235  -0.074211  0.000172  4.002267  0.0
C  C241  1  0.16805538  0.64125133  0.68321144  1  -0.020297  0.000282  -0.092365  -0.074245  0.000172  4.002441  0.0
C  C242  1  0.83194571  0.14125207  0.81678959  1  -0.020187  0.000282  -0.092369  -0.074209  0.000172  4.002261  0.0
C  C243  1  0.66805902  0.85874586  0.31678947  1  -0.020811  0.000282  -0.09231  -0.074109  0.000172  4.002272  0.0
C  C244  1  0.34321307  0.43739579  0.13318441  1  -0.1023  0.000233  -0.090534  -0.124184  0.000154  3.971587  0.0
C  C245  1  0.15679072  0.56260343  0.63318841  1  -0.102558  0.000233  -0.090578  -0.124188  0.000154  3.97161  0.0
C  C246  1  0.84321096  0.06260208  0.86681265  1  -0.102949  0.000233  -0.090606  -0.124232  0.000154  3.971616  0.0
C  C247  1  0.65679167  0.93739514  0.36681435  1  -0.102286  0.000233  -0.090546  -0.124153  0.000154  3.971554  0.0
C  C248  1  0.26586809  0.50274774  0.12560078  1  -0.066622  0.000231  -0.016126  0.043008  0.000142  3.949832  0.0
C  C249  1  0.23413941  0.49725008  0.62560433  1  -0.06614  0.000231  -0.016131  0.042767  0.000142  3.949752  0.0
C  C250  1  0.76586538  0.99724892  0.87439659  1  -0.066645  0.000231  -0.016155  0.042818  0.000142  3.949877  0.0
C  C251  1  0.73413578  0.00274899  0.37439686  1  -0.066149  0.00023  -0.016126  0.042728  0.000142  3.949927  0.0
C  C252  1  0.29911201  0.56527173  0.98057633  1  0.00508  0.000115  -0.167271  -0.152497  9.8e-05  3.944514  0.0
C  C253  1  0.20089276  0.43472596  0.48057826  1  0.005005  0.000115  -0.167291  -0.152639  9.8e-05  3.944625  0.0
C  C254  1  0.79911123  0.93472639  0.01942049  1  0.005227  0.000115  -0.167247  -0.152541  9.8e-05  3.944569  0.0
C  C255  1  0.70088893  0.06527305  0.51942225  1  0.005098  0.000115  -0.167237  -0.152568  9.8e-05  3.944626  0.0
C  C256  1  0.27822395  0.58859790  0.07184376  1  0.489474  5.9e-05  -0.002592  0.182472  4.1e-05  3.900704  0.0
C  C257  1  0.22178265  0.41139925  0.57184482  1  0.489146  6e-05  -0.002498  0.182788  4.1e-05  3.900261  0.0
C  C258  1  0.77822272  0.91139948  0.92815302  1  0.489502  5.9e-05  -0.002534  0.182631  4.1e-05  3.900709  0.0
C  C259  1  0.72177935  0.08859980  0.42815511  1  0.489155  5.9e-05  -0.00257  0.182708  4.1e-05  3.900466  0.0
C  C260  1  0.22514226  0.49718378  0.94162597  1  -0.08201  4e-06  -0.252316  -0.356596  -0.000141  3.962798  0.0
C  C261  1  0.27486091  0.50281253  0.44162617  1  -0.081537  4e-06  -0.252274  -0.356417  -0.000141  3.96267  0.0
C  C262  1  0.72514072  0.00281458  0.05837210  1  -0.082194  4e-06  -0.252353  -0.35657  -0.000141  3.962834  0.0
C  C263  1  0.77485806  0.99718554  0.55837371  1  -0.081632  4e-06  -0.252327  -0.356555  -0.000141  3.962796  0.0
N  N264  1  0.37164606  0.75779517  0.43110892  1  -1.194325  0.112094  -0.422403  -0.414561  0.071522  3.645377  0.091
N  N265  1  0.12835708  0.24221160  0.93111421  1  -1.194219  0.112099  -0.422375  -0.414513  0.071527  3.645223  0.091
N  N266  1  0.87165167  0.74220656  0.56889115  1  -1.194272  0.11209  -0.422286  -0.414355  0.07152  3.645417  0.091
N  N267  1  0.62834639  0.25779356  0.06888616  1  -1.19423  0.112095  -0.422303  -0.414428  0.071525  3.645462  0.091
N  N268  1  0.51268884  0.60139125  0.31483476  1  -1.226853  0.105661  -0.418502  -0.416057  0.067482  3.646367  0.087
N  N269  1  0.98731067  0.39860599  0.81483821  1  -1.226833  0.10566  -0.418545  -0.416076  0.067481  3.646529  0.087
N  N270  1  0.01268498  0.89861195  0.68516647  1  -1.227587  0.10566  -0.418476  -0.416055  0.067482  3.646219  0.087
N  N271  1  0.48731299  0.10139283  0.18516224  1  -1.226634  0.105664  -0.418503  -0.415985  0.067484  3.646251  0.087
N  N272  1  0.30432501  0.19943628  0.75004012  1  -0.73666  0.048467  -0.299024  -0.251202  0.032653  3.609857  0.041
N  N273  1  0.19567464  0.80056499  0.25003820  1  -0.736885  0.048465  -0.299105  -0.251329  0.032653  3.609839  0.041
N  N274  1  0.80432535  0.30056640  0.24996122  1  -0.736736  0.048473  -0.299069  -0.251317  0.032657  3.609907  0.041
N  N275  1  0.69567471  0.69943225  0.74996525  1  -0.736899  0.048475  -0.299016  -0.25129  0.032658  3.609736  0.041
N  N276  1  0.28387043  0.15901177  0.67622267  1  -0.859018  0.003321  -0.282714  -0.134963  0.001708  3.679265  0.002
N  N277  1  0.21612827  0.84099022  0.17622140  1  -0.859137  0.00332  -0.282754  -0.135043  0.001707  3.679293  0.002
N  N278  1  0.78387106  0.34099157  0.32377738  1  -0.858935  0.003321  -0.282695  -0.135002  0.001708  3.679427  0.002
N  N279  1  0.71612996  0.65900566  0.82378084  1  -0.858791  0.003318  -0.282724  -0.134995  0.001708  3.679351  0.002
N  N280  1  0.60129269  0.48945485  0.58219225  1  -0.831368  0.002293  -0.282925  -0.132199  0.000974  3.666998  0.001
N  N281  1  0.89870466  0.51054456  0.08219517  1  -0.831405  0.002294  -0.282919  -0.132259  0.000974  3.667033  0.001
N  N282  1  0.10129326  0.01054538  0.41780744  1  -0.831403  0.002294  -0.282931  -0.13216  0.000974  3.667069  0.001
N  N283  1  0.39870537  0.98945443  0.91780744  1  -0.831358  0.002294  -0.282934  -0.132195  0.000974  3.667068  0.001
N  N284  1  0.56543635  0.46092621  0.50805233  1  -0.727067  0.047153  -0.294361  -0.255548  0.031692  3.603712  0.04
N  N285  1  0.93456004  0.53907184  0.00805532  1  -0.726982  0.047154  -0.294302  -0.255416  0.031693  3.603579  0.04
N  N286  1  0.06543793  0.03907396  0.49194667  1  -0.727009  0.047152  -0.294384  -0.255612  0.031692  3.603727  0.04
N  N287  1  0.43456240  0.96092651  0.99194674  1  -0.727012  0.047151  -0.294335  -0.255483  0.03169  3.603755  0.04
O  O288  1  0.22016176  0.89289708  0.56745529  1  -1.170491  0.028944  -0.316966  -0.546057  0.017802  2.232098  0.025
O  O289  1  0.27983364  0.10710146  0.06745810  1  -1.170643  0.02894  -0.316945  -0.546007  0.017801  2.232065  0.025
O  O290  1  0.72016224  0.60710159  0.43254759  1  -1.170689  0.028947  -0.317053  -0.546093  0.017805  2.231824  0.025
O  O291  1  0.77983163  0.39289978  0.93254256  1  -1.170635  0.02894  -0.316899  -0.545987  0.0178  2.23214  0.025
O  O292  1  0.20882844  0.85099241  0.43274089  1  -1.121287  0.104377  -0.314211  -0.534339  0.065837  2.330114  0.096
O  O293  1  0.29116875  0.14900739  0.93274466  1  -1.121104  0.104373  -0.31419  -0.534364  0.065834  2.329903  0.096
O  O294  1  0.70883087  0.64900764  0.56726072  1  -1.121372  0.104367  -0.314212  -0.534293  0.065831  2.330242  0.096
O  O295  1  0.79116793  0.35099178  0.06725416  1  -1.121098  0.104364  -0.314159  -0.534319  0.065829  2.329936  0.096
O  O296  1  0.38299528  0.70002958  0.27433170  1  -1.12676  0.105516  -0.309981  -0.495093  0.066918  2.29064  0.095
O  O297  1  0.11701115  0.29997446  0.77433695  1  -1.126519  0.10552  -0.309908  -0.49506  0.066921  2.290672  0.095
O  O298  1  0.88299026  0.79997286  0.72566590  1  -1.126685  0.105508  -0.30991  -0.495053  0.066913  2.290668  0.095
O  O299  1  0.61700675  0.20003347  0.22566154  1  -1.126662  0.105514  -0.30989  -0.494978  0.066916  2.290762  0.095
O  O300  1  0.49150860  0.64980787  0.47206241  1  -1.096369  0.125547  -0.310081  -0.465515  0.079502  2.262229  0.111
O  O301  1  0.00849167  0.35019470  0.97206680  1  -1.09654  0.12555  -0.310075  -0.465436  0.079504  2.262122  0.111
O  O302  1  0.99151058  0.85019406  0.52793789  1  -1.096396  0.125569  -0.310135  -0.465611  0.079514  2.262156  0.111
O  O303  1  0.50848438  0.14980816  0.02793333  1  -1.09658  0.12558  -0.31006  -0.465452  0.079523  2.26196  0.112
O  O304  1  0.61706678  0.45100562  0.32450971  1  -1.12412  0.096441  -0.313201  -0.532593  0.061246  2.331274  0.089
O  O305  1  0.88293946  0.54899370  0.82451043  1  -1.124088  0.096436  -0.313265  -0.532736  0.061243  2.331429  0.089
O  O306  1  0.11706443  0.04899882  0.67549188  1  -1.124102  0.096434  -0.313194  -0.532518  0.061243  2.331291  0.089
O  O307  1  0.38293799  0.95100387  0.17548966  1  -1.124084  0.096433  -0.313231  -0.532589  0.061241  2.331318  0.089
O  O308  1  0.62806793  0.43075645  0.18606445  1  -1.178223  0.030471  -0.314307  -0.547449  0.018999  2.267913  0.027
O  O309  1  0.87192823  0.56923525  0.68606576  1  -1.177685  0.030473  -0.314401  -0.547616  0.019001  2.267861  0.027
O  O310  1  0.12806900  0.06924662  0.81393841  1  -1.177556  0.030476  -0.314258  -0.547443  0.019002  2.267666  0.027
O  O311  1  0.37192934  0.93076160  0.31393555  1  -1.177606  0.030471  -0.314344  -0.547538  0.018999  2.267652  0.027
O  O312  1  0.36014988  0.64565662  0.09926163  1  -1.150016  0.001393  -0.40753  -0.522736  0.00084  2.24481  0.001
O  O313  1  0.13985456  0.35434331  0.59926503  1  -1.150033  0.001393  -0.407587  -0.52277  0.00084  2.244653  0.001
O  O314  1  0.86014845  0.85434161  0.90073593  1  -1.149887  0.001393  -0.407572  -0.522816  0.00084  2.244769  0.001
O  O315  1  0.63985353  0.14565699  0.40073473  1  -1.150053  0.001393  -0.407553  -0.52277  0.000839  2.244794  0.001
