# generated using pymatgen
data_Zn4H34C36O25
_symmetry_space_group_name_H-M   'P 1'
_cell_length_a   13.90249635
_cell_length_b   15.17121023
_cell_length_c   16.45218690
_cell_angle_alpha   89.83851140
_cell_angle_beta   89.77549037
_cell_angle_gamma   92.37823705
_symmetry_Int_Tables_number   1
_chemical_formula_structural   Zn4H34C36O25
_chemical_formula_sum   'Zn8 H68 C72 O50'
_cell_volume   3467.02639914
_cell_formula_units_Z   2
loop_
 _symmetry_equiv_pos_site_id
 _symmetry_equiv_pos_as_xyz
  1  'x, y, z'
loop_
 _atom_site_type_symbol
 _atom_site_label
 _atom_site_symmetry_multiplicity
 _atom_site_fract_x
 _atom_site_fract_y
 _atom_site_fract_z
 _atom_site_occupancy
 _atom_site_pbe_bader_charge
 _atom_site_pbe_bader_spin_density
 _atom_site_pbe_cm5_charge
 _atom_site_pbe_ddec_charge
 _atom_site_pbe_ddec_spin_density
 _atom_site_pbe_ddec_sum_bond_order
 _atom_site_pbe_magmom
Zn  Zn0  1  0.47910159  0.39728968  0.91398955  1  1.311079  0  0.679168  0.967001  0  2.392531  0
Zn  Zn1  1  0.50423078  0.39133540  0.10615271  1  1.317924  0  0.684632  0.974183  0  2.348677  0
Zn  Zn2  1  0.00576686  0.45453445  0.41201528  1  1.312205  0  0.676532  0.964723  0  2.400921  0
Zn  Zn3  1  0.98367028  0.44170850  0.59807922  1  1.321167  0  0.681747  0.976709  0  2.349591  0
Zn  Zn4  1  0.37471070  0.54002465  0.02620397  1  1.320369  0  0.682244  0.976117  0  2.360462  0
Zn  Zn5  1  0.87414015  0.59317487  0.50224185  1  1.314556  0  0.681008  0.967906  0  2.352612  0
Zn  Zn6  1  0.59768435  0.55422852  0.00013880  1  1.320172  0  0.687563  0.967813  0  2.379148  0
Zn  Zn7  1  0.10513353  0.61116956  0.51533751  1  1.324756  0  0.690586  0.989628  0  2.298943  0
H  H8  1  0.35231374  0.79499680  0.08382700  1  0.105116  0  0.106791  0.129353  0  1.015252  0
H  H9  1  0.78624368  0.75980654  0.69704157  1  0.034875  0  0.083887  0.114878  0  1.00191  0
H  H10  1  0.69850890  0.84145058  0.69154042  1  0.019005  0  0.079451  0.100884  0  1.021046  0
H  H11  1  0.20744786  0.85529604  0.33104961  1  0.089571  0  0.109535  0.090544  0  0.959287  0
H  H12  1  0.11847703  0.93648294  0.32224970  1  0.038539  0  0.091681  0.045601  0  1.017878  0
H  H13  1  0.08232721  0.73591651  0.33249532  1  0.022225  0  0.084891  0.08218  0  0.999724  0
H  H14  1  0.98927274  0.81264427  0.33338999  1  0.016853  0  0.086699  0.080682  0  0.991016  0
H  H15  1  0.04284208  0.86831129  0.19473140  1  0.00341  0  0.082127  0.103288  0  1.01675  0
H  H16  1  0.01056986  0.75449761  0.19301233  1  0.022918  0  0.083223  0.108608  0  1.015295  0
H  H17  1  0.13423831  0.78931127  0.19373408  1  0.045038  0  0.08468  0.11777  0  1.024006  0
H  H18  1  0.73116622  0.98291700  0.77051825  1  0.041339  0  0.106474  0.076112  0  0.97372  0
H  H19  1  0.82532210  0.85571478  0.53433033  1  0.1305  0  0.114671  0.139255  0  0.988513  0
H  H20  1  0.73521156  0.09181850  0.81117306  1  0.07595  0  0.101105  0.064029  0  1.014992  0
H  H21  1  0.55617395  0.98952786  0.74726898  1  0.01255  0  0.08697  0.077028  0  0.991722  0
H  H22  1  0.55375186  0.09397502  0.79495398  1  0.022751  0  0.092252  0.090415  0  0.996657  0
H  H23  1  0.66033671  0.16173119  0.68772125  1  0.00593  0  0.088653  0.118886  0  0.992154  0
H  H24  1  0.55815348  0.10866167  0.64215437  1  -0.017059  0  0.083444  0.106191  0  1.021836  0
H  H25  1  0.67108631  0.05791883  0.63982755  1  0.055332  0  0.0841  0.112543  0  1.04196  0
H  H26  1  0.33796981  0.02081904  0.37212273  1  0.07234  0  0.109931  0.082382  0  0.952614  0
H  H27  1  0.32625109  0.12641895  0.41738923  1  0.038688  0  0.096416  0.053069  0  1.036091  0
H  H28  1  0.21630217  0.05557743  0.26837610  1  0.020126  0  0.088541  0.080124  0  1.000265  0
H  H29  1  0.19830261  0.15944038  0.31348649  1  0.022122  0  0.087987  0.084238  0  1.018295  0
H  H30  1  0.40579438  0.10322402  0.08000824  1  0.093421  0  0.107977  0.111606  0  1.039356  0
H  H31  1  0.37467059  0.20314232  0.28781115  1  0.026532  0  0.084352  0.112794  0  1.003755  0
H  H32  1  0.30946484  0.18160765  0.19768723  1  0.015141  0  0.087646  0.122569  0  1.00474  0
H  H33  1  0.38753591  0.10137871  0.23593605  1  0.016639  0  0.084482  0.112961  0  1.014216  0
H  H34  1  0.19546829  0.95498076  0.15518134  1  0.033102  0  0.101091  0.064284  0  0.999275  0
H  H35  1  0.22109164  0.89223019  0.06708957  1  0.051191  0  0.099911  0.062626  0  0.984278  0
H  H36  1  0.22271209  0.09460542  0.07634403  1  0.031708  0  0.093448  0.088796  0  0.978066  0
H  H37  1  0.24918401  0.03377073  0.98800312  1  0.029127  0  0.090758  0.084885  0  0.977645  0
H  H38  1  0.08036673  0.96473446  0.98940185  1  0.0354  0  0.088071  0.113767  0  0.999448  0
H  H39  1  0.07708508  0.08163226  0.98742165  1  0.032141  0  0.089076  0.116685  0  0.999533  0
H  H40  1  0.05409937  0.02344373  0.07948589  1  0.01007  0  0.085427  0.108189  0  1.007438  0
H  H41  1  0.88473639  0.16274581  0.52183783  1  0.091297  0  0.110451  0.121856  0  1.000869  0
H  H42  1  0.72697672  0.97437309  0.41614930  1  0.042544  0  0.096824  0.058307  0  0.968675  0
H  H43  1  0.78676788  0.08033143  0.40647994  1  0.011802  0  0.091987  0.048649  0  0.990822  0
H  H44  1  0.60063176  0.04021404  0.50325123  1  0.025007  0  0.095636  0.090193  0  0.974752  0
H  H45  1  0.65974538  0.14514223  0.49427059  1  0.037742  0  0.09499  0.090653  0  0.967916  0
H  H46  1  0.63364491  0.14115511  0.34121981  1  0.043862  0  0.083683  0.10818  0  1.008032  0
H  H47  1  0.52317080  0.13055914  0.39500374  1  0.027333  0  0.088095  0.11561  0  1.015435  0
H  H48  1  0.57367622  0.03612838  0.35130294  1  0.022699  0  0.087092  0.111357  0  1.001449  0
H  H49  1  0.79494340  0.21438249  0.89585576  1  0.081987  0  0.107166  0.08278  0  0.974357  0
H  H50  1  0.77787414  0.12554326  0.96725339  1  0.030802  0  0.097932  0.061388  0  0.982179  0
H  H51  1  0.71332331  0.31517919  0.98975078  1  0.015621  0  0.086042  0.082215  0  0.984961  0
H  H52  1  0.58585511  0.86044272  0.81148498  1  0.032853  0  0.091522  0.044297  0  1.023615  0
H  H53  1  0.69773751  0.22977222  0.06300538  1  0.012868  0  0.084785  0.078383  0  0.994351  0
H  H54  1  0.87905175  0.22054843  0.07304484  1  0.033151  0  0.080658  0.101669  0  1.011157  0
H  H55  1  0.84207449  0.32866151  0.09547033  1  0.041546  0  0.081889  0.115712  0  1.017312  0
H  H56  1  0.89303634  0.30664299  0.99943237  1  0.066466  0  0.08885  0.125142  0  0.999757  0
H  H57  1  0.26673504  0.14842570  0.55850411  1  0.076121  0  0.102002  0.066368  0  0.977075  0
H  H58  1  0.19909330  0.24056845  0.58826108  1  0.057498  0  0.096291  0.061351  0  0.975694  0
H  H59  1  0.38825455  0.25324029  0.49051236  1  0.040034  0  0.094589  0.090036  0  0.975538  0
H  H60  1  0.32361291  0.34372153  0.52554817  1  0.050653  0  0.095579  0.101453  0  0.974019  0
H  H61  1  0.34922341  0.29726946  0.67084440  1  0.037488  0  0.080127  0.105432  0  1.015908  0
H  H62  1  0.46111409  0.31130638  0.61962399  1  0.052708  0  0.091293  0.129215  0  1.002866  0
H  H63  1  0.56284193  0.74718651  0.83916790  1  0.047982  0  0.09106  0.058901  0  0.993317  0
H  H64  1  0.41064101  0.20351410  0.63716314  1  0.028882  0  0.084254  0.107279  0  1.013945  0
H  H65  1  0.42023048  0.68519850  0.23141590  1  0.622711  0  0.353561  0.391179  0  0.836013  0
H  H66  1  0.46651474  0.58886327  0.73127533  1  0.64655  0  0.309726  0.366633  0  0.971193  0
H  H67  1  0.95211899  0.52120579  0.83994379  1  0.65303  0  0.314752  0.374837  0  0.948848  0
H  H68  1  0.97636762  0.59251703  0.20848602  1  0.638721  0  0.350942  0.392052  0  0.841142  0
H  H69  1  0.49802412  0.48521650  0.62597980  1  0.658797  0  0.316852  0.372206  0  0.940761  0
H  H70  1  0.70879038  0.33195312  0.31914955  1  0.619392  0  0.343674  0.379964  0  0.85987  0
H  H71  1  0.21610675  0.31367042  0.39375277  1  0.665594  0  0.319649  0.365989  0  0.936297  0
H  H72  1  0.14180379  0.34304190  0.82155142  1  0.622322  0  0.356943  0.39235  0  0.835606  0
H  H73  1  0.76496148  0.83373184  0.83332179  1  0.023942  0  0.093963  0.089169  0  0.978375  0
H  H74  1  0.73462583  0.71947390  0.83843051  1  0.022273  0  0.092142  0.092768  0  0.969537  0
H  H75  1  0.66215155  0.72779668  0.69621687  1  0.057314  0  0.079259  0.114282  0  1.033827  0
C  C76  1  0.33932004  0.46064340  0.18872291  1  1.636892  0  0.237788  0.6338  0  4.177122  0
C  C77  1  0.05255406  0.91284163  0.46609047  1  0.596889  0  0.102101  0.225767  0  3.962949  0
C  C78  1  0.40454320  0.84035134  0.05470927  1  -0.068427  0  -0.109924  -0.226676  0  4.03998  0
C  C79  1  0.88666249  0.89857891  0.51662768  1  0.037128  0  -0.095557  -0.201635  0  4.001847  0
C  C80  1  0.40145105  0.92931359  0.06737230  1  0.514809  0  0.074223  0.197892  0  4.08449  0
C  C81  1  0.87726476  0.98786404  0.51028065  1  0.430649  0  0.074334  0.191598  0  4.07297  0
C  C82  1  0.73295527  0.47603555  0.78331755  1  -0.004899  0  0.023794  -0.097963  0  3.814125  0
C  C83  1  0.76287343  0.50282213  0.20950660  1  0.144241  0  -0.004253  -0.162879  0  3.882714  0
C  C84  1  0.25904427  0.54561416  0.29778400  1  0.014892  0  0.004216  -0.146023  0  3.820256  0
C  C85  1  0.24470658  0.50961188  0.72650302  1  0.046964  0  0.002168  -0.150832  0  3.859409  0
C  C86  1  0.27872391  0.46733312  0.26418472  1  0.048272  0  0.023401  -0.095872  0  3.776897  0
C  C87  1  0.29789901  0.47557646  0.86842638  1  1.618486  0  0.230244  0.619466  0  4.214539  0
C  C88  1  0.22298905  0.48495738  0.80330169  1  -0.020752  0  0.006823  -0.161288  0  3.889938  0
C  C89  1  0.71226943  0.49595678  0.70573102  1  0.070935  0  0.000104  -0.16493  0  3.846138  0
C  C90  1  0.74472889  0.48172859  0.28778091  1  -0.121926  0  0.010341  -0.143043  0  3.875129  0
C  C91  1  0.65757064  0.47374360  0.84838202  1  1.625748  0  0.237362  0.621979  0  4.184178  0
C  C92  1  0.68457142  0.49068199  0.14781631  1  1.635862  0  0.236358  0.637595  0  4.164173  0
C  C93  1  0.18032096  0.55094130  0.36031023  1  1.622323  0  0.235322  0.633262  0  4.16747  0
C  C94  1  0.16788584  0.51709144  0.66341047  1  1.611222  0  0.235423  0.633324  0  4.16479  0
C  C95  1  0.48044110  0.70727466  0.00454587  1  1.47533  0  0.224419  0.617959  0  4.13747  0
C  C96  1  0.97997186  0.76308891  0.50531813  1  1.540738  0  0.231262  0.628853  0  4.145198  0
C  C97  1  0.50360021  0.23421126  0.00424415  1  1.569508  0  0.237102  0.637553  0  4.153922  0
C  C98  1  0.78972394  0.50256007  0.64288419  1  1.569266  0  0.236446  0.635986  0  4.165615  0
C  C99  1  0.02278300  0.28920487  0.49688473  1  1.577978  0  0.232695  0.629723  0  4.144417  0
C  C100  1  0.47863601  0.80497589  0.00648044  1  0.058817  0  -0.034517  -0.144881  0  3.989023  0
C  C101  1  0.97529973  0.86055889  0.49705783  1  -0.025824  0  -0.026419  -0.13483  0  3.976852  0
C  C102  1  0.52205376  0.13864745  0.99856945  1  -0.059403  0  -0.021426  -0.103724  0  4.038491  0
C  C103  1  0.03224077  0.19205696  0.48843033  1  0.041127  0  -0.023465  -0.10411  0  4.041143  0
C  C104  1  0.60538678  0.01858447  0.93407698  1  0.547586  0  0.089648  0.136637  0  4.012195  0
C  C105  1  0.13014644  0.06723782  0.45234089  1  0.591932  0  0.092393  0.144832  0  4.021228  0
C  C106  1  0.59610860  0.10908575  0.94747554  1  0.540223  0  0.069448  0.102901  0  4.059074  0
C  C107  1  0.12129267  0.15772964  0.46520016  1  0.408597  0  0.060672  0.088769  0  4.033194  0
C  C108  1  0.46165891  0.07988279  0.04001464  1  0.048734  0  -0.09575  -0.153703  0  4.009029  0
C  C109  1  0.81782913  0.49508896  0.35391918  1  1.604391  0  0.228016  0.624944  0  4.215041  0
C  C110  1  0.95256311  0.13665120  0.50170259  1  -0.049011  0  -0.095389  -0.150851  0  3.994816  0
C  C111  1  0.61447223  0.80401370  0.84465453  1  0.409082  0  -0.067316  0.046776  0  3.879288  0
C  C112  1  0.71301213  0.78230859  0.81192669  1  -0.009104  0  -0.167276  -0.128001  0  3.964562  0
C  C113  1  0.71486279  0.77754738  0.71905898  1  -0.07197  0  -0.247948  -0.354222  0  3.973977  0
C  C114  1  0.13298681  0.87035807  0.34627988  1  0.370628  0  -0.064617  0.037939  0  3.857542  0
C  C115  1  0.06237428  0.80127364  0.31083767  1  0.000342  0  -0.17651  -0.138619  0  3.977967  0
C  C116  1  0.06284019  0.80350682  0.21794906  1  -0.048114  0  -0.244962  -0.350117  0  3.970936  0
C  C117  1  0.68976921  0.03147910  0.80378490  1  0.37735  0  -0.064896  0.029319  0  3.870194  0
C  C118  1  0.59848717  0.05139552  0.75792436  1  0.025689  0  -0.173166  -0.141949  0  3.994189  0
C  C119  1  0.62347195  0.09722806  0.67737594  1  -0.035846  0  -0.244734  -0.353764  0  3.970893  0
C  C120  1  0.46961384  0.98865432  0.02864033  1  0.004192  0  -0.012464  0.010427  0  4.026802  0
C  C121  1  0.28810621  0.07395096  0.38289045  1  0.369875  0  -0.06498  0.030395  0  3.881877  0
C  C122  1  0.25210442  0.10965191  0.30277659  1  0.024832  0  -0.174671  -0.146331  0  3.985984  0
C  C123  1  0.33586286  0.15091318  0.25332419  1  -0.022663  0  -0.244475  -0.348085  0  3.9528  0
C  C124  1  0.23570177  0.95605153  0.09751256  1  0.418304  0  -0.064182  0.035202  0  3.887581  0
C  C125  1  0.20577551  0.03236923  0.04418345  1  -0.024926  0  -0.170341  -0.140152  0  3.986046  0
C  C126  1  0.09852403  0.02505923  0.02394874  1  -0.056161  0  -0.241364  -0.349316  0  3.982746  0
C  C127  1  0.73953795  0.03870070  0.44648745  1  0.419951  0  -0.065844  0.039521  0  3.900054  0
C  C128  1  0.64518753  0.08240179  0.46227716  1  -0.004766  0  -0.166655  -0.132816  0  3.984128  0
C  C129  1  0.59110683  0.09836490  0.38318118  1  -0.083688  0  -0.241305  -0.349491  0  3.975878  0
C  C130  1  0.74916995  0.18814304  0.94568514  1  0.386746  0  -0.06577  0.025731  0  3.870385  0
C  C131  1  0.95921614  0.04474210  0.49244895  1  0.055135  0  -0.012056  0.008638  0  4.025931  0
C  C132  1  0.74534010  0.25537908  0.01396675  1  0.014798  0  -0.175343  -0.134318  0  3.987209  0
C  C133  1  0.84552757  0.27884347  0.04739312  1  -0.121627  0  -0.244575  -0.348573  0  3.964175  0
C  C134  1  0.25025285  0.21684666  0.54250603  1  0.320961  0  -0.065671  0.034667  0  3.863237  0
C  C135  1  0.34116113  0.27536861  0.53973470  1  -0.016904  0  -0.168251  -0.136205  0  3.970124  0
C  C136  1  0.39339214  0.27157502  0.62133476  1  -0.087669  0  -0.242133  -0.346149  0  3.959057  0
C  C137  1  0.30384762  0.63190712  0.27068207  1  1.541557  0  0.239488  0.601679  0  4.120551  0
C  C138  1  0.34684342  0.52918478  0.70018844  1  1.587769  0  0.247247  0.623553  0  4.101197  0
C  C139  1  0.83182745  0.45841120  0.81510245  1  1.644332  0  0.232829  0.60843  0  4.163287  0
C  C140  1  0.85895968  0.53418145  0.17752553  1  1.526148  0  0.235212  0.59768  0  4.120946  0
C  C141  1  0.61209493  0.52073782  0.68424445  1  1.574657  0  0.256311  0.634917  0  4.080982  0
C  C142  1  0.54271718  0.95518026  0.97614381  1  0.032269  0  -0.01303  -0.097396  0  3.924826  0
C  C143  1  0.64873633  0.44382712  0.31785598  1  1.581634  0  0.236534  0.593086  0  4.131956  0
C  C144  1  0.23506530  0.38042577  0.29364681  1  1.610727  0  0.235508  0.599592  0  4.120336  0
C  C145  1  0.12179560  0.46665001  0.83278676  1  1.580542  0  0.251713  0.613391  0  4.111486  0
C  C146  1  0.04832632  0.00752404  0.46797879  1  -0.014172  0  -0.013574  -0.105447  0  3.929669  0
C  C147  1  0.54833515  0.86102521  0.96824043  1  0.555841  0  0.10168  0.224513  0  3.969965  0
O  O148  1  0.48765411  0.46884663  0.01196650  1  -1.236294  0  -0.575294  -1.039688  0  2.549805  0
O  O149  1  0.09550549  0.46295525  0.67037968  1  -1.162723  0  -0.306265  -0.549724  0  2.343131  0
O  O150  1  0.28809109  0.52213851  0.93130956  1  -1.147602  0  -0.292684  -0.506364  0  2.300143  0
O  O151  1  0.31058027  0.50467548  0.12833367  1  -1.162602  0  -0.306086  -0.538728  0  2.331353  0
O  O152  1  0.80645509  0.56012481  0.39996560  1  -1.137192  0  -0.29081  -0.502025  0  2.309125  0
O  O153  1  0.77859856  0.55858881  0.58625868  1  -1.148013  0  -0.301497  -0.525078  0  2.298093  0
O  O154  1  0.67659902  0.55429140  0.09837981  1  -1.159995  0  -0.300234  -0.517913  0  2.307294  0
O  O155  1  0.68163052  0.51490073  0.91264989  1  -1.148701  0  -0.293867  -0.513386  0  2.324955  0
O  O156  1  0.18250593  0.57715687  0.61069226  1  -1.141182  0  -0.292956  -0.510816  0  2.297083  0
O  O157  1  0.19738674  0.59409879  0.42479902  1  -1.144287  0  -0.293268  -0.513592  0  2.286139  0
O  O158  1  0.40737302  0.66529149  0.03692712  1  -1.172245  0  -0.325341  -0.563268  0  2.342005  0
O  O159  1  0.99280540  0.52747466  0.50903244  1  -1.2337  0  -0.573056  -1.038868  0  2.532635  0
O  O160  1  0.89947660  0.71940629  0.49771589  1  -1.16586  0  -0.316567  -0.548974  0  2.336315  0
O  O161  1  0.50171725  0.26753676  0.07527905  1  -1.158023  0  -0.309926  -0.541944  0  2.326833  0
O  O162  1  0.48772284  0.27306532  0.93715458  1  -1.158035  0  -0.312472  -0.541216  0  2.350508  0
O  O163  1  0.98789644  0.31758072  0.56323729  1  -1.164623  0  -0.310572  -0.539924  0  2.292983  0
O  O164  1  0.04851260  0.33604527  0.43536444  1  -1.164987  0  -0.309728  -0.544545  0  2.359949  0
O  O165  1  0.55249594  0.66976925  0.97350657  1  -1.16445  0  -0.310066  -0.540737  0  2.394283  0
O  O166  1  0.06079715  0.73050314  0.52168042  1  -1.159225  0  -0.311584  -0.545507  0  2.363269  0
O  O167  1  0.62530634  0.82756622  0.92937070  1  -1.071291  0  -0.198517  -0.225643  0  2.579077  0
O  O168  1  0.12991797  0.87216891  0.43447202  1  -1.062023  0  -0.199289  -0.223025  0  2.534315  0
O  O169  1  0.67269919  0.98841218  0.88205886  1  -1.060917  0  -0.183617  -0.20206  0  2.58732  0
O  O170  1  0.40934131  0.40989698  0.19229145  1  -1.147519  0  -0.293974  -0.513443  0  2.317985  0
O  O171  1  0.21438873  0.03029354  0.43343039  1  -1.060032  0  -0.179057  -0.191889  0  2.59755  0
O  O172  1  0.33602024  0.96456690  0.12009053  1  -1.086541  0  -0.204381  -0.235689  0  2.514673  0
O  O173  1  0.78868919  0.02427525  0.52283624  1  -1.06409  0  -0.206364  -0.24714  0  2.492615  0
O  O174  1  0.65545804  0.17061692  0.90860106  1  -1.074473  0  -0.202628  -0.225461  0  2.551013  0
O  O175  1  0.20229250  0.21509988  0.46343585  1  -1.069629  0  -0.196541  -0.24244  0  2.562518  0
O  O176  1  0.26012760  0.70007633  0.26783741  1  -1.1288  0  -0.268033  -0.471226  0  2.110969  0
O  O177  1  0.39810304  0.62669430  0.25111961  1  -1.106943  0  -0.316456  -0.459084  0  2.23691  0
O  O178  1  0.38010404  0.49244205  0.63972477  1  -1.136742  0  -0.266361  -0.482083  0  2.136641  0
O  O179  1  0.39466519  0.58500057  0.74804641  1  -1.14379  0  -0.315508  -0.460893  0  2.261686  0
O  O180  1  0.85232087  0.38552196  0.83966928  1  -1.12035  0  -0.282049  -0.474473  0  2.063397  0
O  O181  1  0.35978975  0.41851033  0.85340807  1  -1.151324  0  -0.304601  -0.532969  0  2.33118  0
O  O182  1  0.88680606  0.53240104  0.81686382  1  -1.153625  0  -0.331622  -0.477909  0  2.260884  0
O  O183  1  0.88772651  0.51501186  0.11005728  1  -1.098158  0  -0.270759  -0.452725  0  2.045878  0
O  O184  1  0.91188858  0.58251219  0.23211713  1  -1.122453  0  -0.325622  -0.476263  0  2.246165  0
O  O185  1  0.57531829  0.58398365  0.71853027  1  -1.147753  0  -0.265796  -0.487393  0  2.204347  0
O  O186  1  0.56868662  0.46995922  0.62952457  1  -1.144425  0  -0.308226  -0.451154  0  2.254431  0
O  O187  1  0.57965108  0.48803207  0.32981166  1  -1.071853  0  -0.255125  -0.407538  0  2.045419  0
O  O188  1  0.64814997  0.35643706  0.33691490  1  -1.102348  0  -0.326858  -0.46255  0  2.188681  0
O  O189  1  0.19796926  0.32606943  0.24764333  1  -1.117687  0  -0.27732  -0.459403  0  2.051842  0
O  O190  1  0.24570760  0.37090832  0.37424498  1  -1.170128  0  -0.326675  -0.477762  0  2.302951  0
O  O191  1  0.06990585  0.52636940  0.85144373  1  -1.109098  0  -0.237729  -0.415805  0  2.136902  0
O  O192  1  0.85992085  0.45257014  0.65295017  1  -1.162598  0  -0.301385  -0.535414  0  2.373978  0
O  O193  1  0.09391788  0.38161011  0.84430817  1  -1.083849  0  -0.303204  -0.438635  0  2.214801  0
O  O194  1  0.88062646  0.43632626  0.35794718  1  -1.1478  0  -0.315745  -0.549389  0  2.309516  0
O  O195  1  0.57918024  0.43086955  0.83363463  1  -1.157928  0  -0.300017  -0.525228  0  2.331458  0
O  O196  1  0.63250404  0.41988804  0.15287873  1  -1.175084  0  -0.301931  -0.542506  0  2.341123  0
O  O197  1  0.10110840  0.51152526  0.33987014  1  -1.170467  0  -0.313635  -0.553776  0  2.34686  0
