# generated using pymatgen
data_HgH8C9(SN3)2
_symmetry_space_group_name_H-M   'P 1'
_cell_length_a   9.15333318
_cell_length_b   10.85339478
_cell_length_c   13.91633776
_cell_angle_alpha   89.99996983
_cell_angle_beta   107.23770416
_cell_angle_gamma   89.99998947
_symmetry_Int_Tables_number   1
_chemical_formula_structural   HgH8C9(SN3)2
_chemical_formula_sum   'Hg4 H32 C36 S8 N24'
_cell_volume   1320.41728884
_cell_formula_units_Z   4
loop_
 _symmetry_equiv_pos_site_id
 _symmetry_equiv_pos_as_xyz
  1  'x, y, z'
loop_
 _atom_site_type_symbol
 _atom_site_label
 _atom_site_symmetry_multiplicity
 _atom_site_fract_x
 _atom_site_fract_y
 _atom_site_fract_z
 _atom_site_occupancy
 _atom_site_hle17_bader_spin_density
 _atom_site_hle17_ddec_charge
 _atom_site_hle17_ddec_spin_density
 _atom_site_hle17_ddec_sum_bond_order
 _atom_site_hle17_magmom
 _atom_site_hse06_10hf_bader_spin_density
 _atom_site_hse06_10hf_ddec_charge
 _atom_site_hse06_10hf_ddec_spin_density
 _atom_site_hse06_10hf_ddec_sum_bond_order
 _atom_site_hse06_10hf_magmom
 _atom_site_hse06_bader_spin_density
 _atom_site_hse06_ddec_charge
 _atom_site_hse06_ddec_spin_density
 _atom_site_hse06_ddec_sum_bond_order
 _atom_site_hse06_magmom
 _atom_site_pbe_bader_spin_density
 _atom_site_pbe_cm5_charge
 _atom_site_pbe_ddec_charge
 _atom_site_pbe_ddec_spin_density
 _atom_site_pbe_ddec_sum_bond_order
 _atom_site_pbe_magmom
Hg  Hg0  1  0.65043049  0.90609883  0.33386169  1  0  0.628936  0  2.106371  0  0  0.47819  0  2.582546  0  0  0.517752  0  2.559659  0  0  0.523017  0.451611  0  2.597869  0
Hg  Hg1  1  0.84957127  0.40610030  0.66613935  1  0  0.628927  0  2.106391  0  0  0.478164  0  2.582568  0  0  0.517735  0  2.559675  0  0  0.523001  0.451588  0  2.597892  0
Hg  Hg2  1  0.34957074  0.09389940  0.66613735  1  0  0.628959  0  2.106349  0  0  0.478199  0  2.582528  0  0  0.51777  0  2.559633  0  0  0.523012  0.451624  0  2.597852  0
Hg  Hg3  1  0.15042767  0.59389793  0.33386140  1  0  0.628956  0  2.10638  0  0  0.478203  0  2.582563  0  0  0.517768  0  2.559675  0  0  0.523014  0.451625  0  2.597885  0
H  H4  1  0.11578049  0.25611700  0.27540838  1  0  0.096548  0  0.937576  0  0  0.106254  0  1.004442  0  0  0.106359  0  1.005174  0  0  0.129699  0.106068  0  1.004105  0
H  H5  1  0.38422357  0.75612075  0.72459069  1  0  0.096566  0  0.937589  0  0  0.106259  0  1.004478  0  0  0.106361  0  1.005213  0  0  0.129717  0.106072  0  1.00414  0
H  H6  1  0.88422074  0.74388031  0.72459138  1  0  0.096573  0  0.937531  0  0  0.106261  0  1.004431  0  0  0.106366  0  1.005164  0  0  0.129693  0.106074  0  1.004092  0
H  H7  1  0.61577766  0.24387932  0.27540907  1  0  0.096537  0  0.9375  0  0  0.106239  0  1.004425  0  0  0.106343  0  1.005157  0  0  0.1297  0.106052  0  1.004087  0
H  H8  1  0.06109200  0.27455183  0.14075613  1  0  0.097885  0  0.926022  0  0  0.103813  0  0.998758  0  0  0.105066  0  0.997739  0  0  0.129845  0.102879  0  0.999614  0
H  H9  1  0.43891091  0.77455549  0.85924199  1  0  0.097903  0  0.925972  0  0  0.103811  0  0.998729  0  0  0.105066  0  0.997707  0  0  0.129841  0.102877  0  0.999583  0
H  H10  1  0.93890809  0.72544639  0.85924197  1  0  0.097893  0  0.926026  0  0  0.103814  0  0.998774  0  0  0.105066  0  0.997757  0  0  0.129842  0.10288  0  0.999629  0
H  H11  1  0.56108803  0.22544550  0.14075732  1  0  0.097836  0  0.926004  0  0  0.103782  0  0.998737  0  0  0.105038  0  0.997715  0  0  0.129822  0.102846  0  0.999594  0
H  H12  1  0.96081906  0.10906338  0.34883490  1  0  0.103874  0  0.977574  0  0  0.10679  0  1.056047  0  0  0.109584  0  1.051985  0  0  0.124532  0.104642  0  1.05906  0
H  H13  1  0.53918399  0.60906816  0.65116508  1  0  0.103977  0  0.977421  0  0  0.106846  0  1.055933  0  0  0.109641  0  1.051871  0  0  0.124554  0.104691  0  1.058961  0
H  H14  1  0.03918332  0.89093300  0.65116508  1  0  0.103974  0  0.977416  0  0  0.106842  0  1.055933  0  0  0.109636  0  1.051872  0  0  0.124552  0.104688  0  1.058959  0
H  H15  1  0.46081953  0.39093375  0.34883585  1  0  0.103974  0  0.977388  0  0  0.106819  0  1.055948  0  0  0.109614  0  1.051885  0  0  0.124542  0.104666  0  1.058974  0
H  H16  1  0.66484498  0.95493156  0.08283373  1  0  0.101498  0  0.97862  0  0  0.112659  0  1.037953  0  0  0.114367  0  1.038018  0  0  0.113578  0.111412  0  1.038051  0
H  H17  1  0.83515218  0.45493102  0.91716639  1  0  0.101533  0  0.978601  0  0  0.112676  0  1.037951  0  0  0.114384  0  1.038015  0  0  0.113593  0.111428  0  1.038051  0
H  H18  1  0.33515167  0.04506852  0.91716729  1  0  0.101508  0  0.978579  0  0  0.112659  0  1.037923  0  0  0.114367  0  1.037987  0  0  0.113576  0.11141  0  1.038027  0
H  H19  1  0.16484675  0.54506905  0.08283507  1  0  0.101518  0  0.978634  0  0  0.112663  0  1.037977  0  0  0.114372  0  1.038041  0  0  0.113582  0.111416  0  1.038076  0
H  H20  1  0.87245733  0.11305672  0.03222262  1  0  0.120474  0  0.986315  0  0  0.127117  0  1.052955  0  0  0.129683  0  1.05213  0  0  0.119939  0.125258  0  1.053619  0
H  H21  1  0.62754114  0.61305850  0.96777646  1  0  0.120398  0  0.986411  0  0  0.127052  0  1.053043  0  0  0.129609  0  1.052248  0  0  0.119898  0.125193  0  1.053706  0
H  H22  1  0.12753932  0.88694059  0.96777696  1  0  0.120478  0  0.986322  0  0  0.127101  0  1.05298  0  0  0.129662  0  1.052173  0  0  0.119914  0.125242  0  1.053643  0
H  H23  1  0.37245780  0.38694249  0.03222429  1  0  0.120469  0  0.986341  0  0  0.127127  0  1.052967  0  0  0.129682  0  1.052175  0  0  0.119924  0.125267  0  1.053631  0
H  H24  1  0.33496530  0.10281930  0.35547673  1  0  0.094132  0  0.969958  0  0  0.10076  0  1.04174  0  0  0.102445  0  1.039867  0  0  0.124449  0.099369  0  1.043297  0
H  H25  1  0.16503882  0.60282498  0.64452241  1  0  0.094046  0  0.970027  0  0  0.100727  0  1.041705  0  0  0.102404  0  1.03984  0  0  0.124423  0.099335  0  1.043263  0
H  H26  1  0.66503707  0.89717524  0.64452181  1  0  0.094097  0  0.970058  0  0  0.100769  0  1.041761  0  0  0.102446  0  1.039897  0  0  0.12444  0.099377  0  1.043317  0
H  H27  1  0.83496126  0.39717601  0.35547640  1  0  0.094102  0  0.970007  0  0  0.100779  0  1.041716  0  0  0.102443  0  1.039864  0  0  0.124445  0.099396  0  1.043265  0
H  H28  1  0.42309166  0.96609950  0.09383041  1  0  0.101192  0  0.978627  0  0  0.112103  0  1.038544  0  0  0.113689  0  1.038759  0  0  0.113937  0.110887  0  1.038576  0
H  H29  1  0.07691344  0.46609902  0.90616878  1  0  0.101212  0  0.978625  0  0  0.112128  0  1.038525  0  0  0.113699  0  1.038765  0  0  0.113963  0.110912  0  1.038558  0
H  H30  1  0.57691530  0.03390517  0.90616689  1  0  0.101187  0  0.978614  0  0  0.112106  0  1.038519  0  0  0.113669  0  1.038775  0  0  0.113968  0.110905  0  1.038536  0
H  H31  1  0.92308436  0.53390198  0.09382959  1  0  0.101207  0  0.978609  0  0  0.112109  0  1.038531  0  0  0.113672  0  1.038782  0  0  0.113948  0.110909  0  1.038546  0
H  H32  1  0.16863431  0.12250635  0.03736057  1  0  0.121779  0  0.985486  0  0  0.128809  0  1.051714  0  0  0.13135  0  1.050827  0  0  0.121225  0.126933  0  1.052467  0
H  H33  1  0.33136981  0.62250811  0.96263857  1  0  0.121832  0  0.985405  0  0  0.128818  0  1.051676  0  0  0.13136  0  1.050787  0  0  0.121228  0.126943  0  1.052427  0
H  H34  1  0.83137036  0.87749741  0.96263843  1  0  0.121767  0  0.985515  0  0  0.128802  0  1.051738  0  0  0.131345  0  1.050856  0  0  0.121224  0.126927  0  1.052488  0
H  H35  1  0.66862799  0.37749289  0.03735908  1  0  0.121806  0  0.985429  0  0  0.128791  0  1.0517  0  0  0.131331  0  1.050814  0  0  0.121208  0.126916  0  1.052453  0
C  C36  1  0.08721903  0.20833566  0.20298799  1  0  0.094599  0  3.593505  0  0  0.020943  0  3.828992  0  0  0.030192  0  3.838127  0  0  0.059671  0.014616  0  3.823145  0
C  C37  1  0.41278390  0.70834029  0.79701016  1  0  0.09454  0  3.593414  0  0  0.020893  0  3.828938  0  0  0.030144  0  3.838072  0  0  0.059639  0.014564  0  3.823089  0
C  C38  1  0.91278220  0.79166164  0.79701177  1  0  0.094514  0  3.593538  0  0  0.020879  0  3.828973  0  0  0.030126  0  3.838111  0  0  0.059656  0.014551  0  3.823123  0
C  C39  1  0.58721618  0.29166163  0.20298866  1  0  0.094695  0  3.593231  0  0  0.020933  0  3.828905  0  0  0.030186  0  3.838038  0  0  0.059684  0.014605  0  3.823057  0
C  C40  1  0.90596488  0.08582829  0.27043591  1  0  0.149208  0  3.658632  0  0  0.085607  0  3.932671  0  0  0.099505  0  3.945851  0  0  0.133316  0.076722  0  3.923213  0
C  C41  1  0.59403703  0.58583116  0.72956314  1  0  0.149102  0  3.658509  0  0  0.085548  0  3.932557  0  0  0.099445  0  3.945734  0  0  0.133287  0.076663  0  3.923094  0
C  C42  1  0.09403635  0.91416994  0.72956313  1  0  0.149108  0  3.658513  0  0  0.085542  0  3.932576  0  0  0.099438  0  3.945755  0  0  0.133292  0.076655  0  3.923113  0
C  C43  1  0.40596420  0.41417167  0.27043734  1  0  0.149085  0  3.658564  0  0  0.085531  0  3.932607  0  0  0.099426  0  3.945787  0  0  0.133286  0.076643  0  3.923146  0
C  C44  1  0.75546902  0.01124062  0.13024816  1  0  -0.011319  0  3.747064  0  0  -0.042519  0  4.008937  0  0  -0.041134  0  4.029874  0  0  -0.009221  -0.043431  0  3.994662  0
C  C45  1  0.74453063  0.51124154  0.86975263  1  0  -0.011411  0  3.74717  0  0  -0.042616  0  4.009058  0  0  -0.04123  0  4.029994  0  0  -0.009275  -0.043529  0  3.994782  0
C  C46  1  0.24452992  0.98875853  0.86975187  1  0  -0.011333  0  3.747133  0  0  -0.042539  0  4.009004  0  0  -0.041154  0  4.029941  0  0  -0.009239  -0.043452  0  3.994728  0
C  C47  1  0.25546945  0.48875946  0.13024978  1  0  -0.011436  0  3.747297  0  0  -0.042635  0  4.009174  0  0  -0.041246  0  4.030103  0  0  -0.009271  -0.043547  0  3.994899  0
C  C48  1  0.85844047  0.08582927  0.10395128  1  0  -0.056788  0  3.655871  0  0  -0.097492  0  3.914771  0  0  -0.095603  0  3.933121  0  0  -0.000232  -0.098573  0  3.902162  0
C  C49  1  0.64156029  0.58583110  0.89604826  1  0  -0.056677  0  3.656028  0  0  -0.097384  0  3.914912  0  0  -0.095499  0  3.933256  0  0  -0.000158  -0.098465  0  3.902299  0
C  C50  1  0.14155962  0.91416988  0.89604753  1  0  -0.056783  0  3.655931  0  0  -0.097477  0  3.914845  0  0  -0.095591  0  3.933193  0  0  -0.000186  -0.098559  0  3.902232  0
C  C51  1  0.35843864  0.41417081  0.10395321  1  0  -0.056755  0  3.655953  0  0  -0.097474  0  3.914833  0  0  -0.09559  0  3.933179  0  0  -0.000193  -0.098556  0  3.902222  0
C  C52  1  0.32781741  0.08560351  0.27738730  1  0  0.16048  0  3.660148  0  0  0.096123  0  3.933357  0  0  0.110288  0  3.947218  0  0  0.137178  0.087004  0  3.923707  0
C  C53  1  0.17218672  0.58560730  0.72261186  1  0  0.160593  0  3.660069  0  0  0.096218  0  3.933303  0  0  0.11039  0  3.947177  0  0  0.137192  0.087103  0  3.923639  0
C  C54  1  0.67218496  0.91439379  0.72261125  1  0  0.160464  0  3.66019  0  0  0.09608  0  3.933408  0  0  0.110254  0  3.947275  0  0  0.137127  0.08696  0  3.923758  0
C  C55  1  0.82781222  0.41439369  0.27738674  1  0  0.16045  0  3.66011  0  0  0.096055  0  3.93335  0  0  0.110234  0  3.947229  0  0  0.13712  0.086932  0  3.92368  0
C  C56  1  0.36836250  0.01857107  0.13964208  1  0  -0.008595  0  3.741518  0  0  -0.039766  0  4.002217  0  0  -0.038146  0  4.023031  0  0  -0.008358  -0.040834  0  3.988163  0
C  C57  1  0.13164167  0.51857201  0.86035639  1  0  -0.00854  0  3.741518  0  0  -0.039697  0  4.002189  0  0  -0.038067  0  4.023019  0  0  -0.008337  -0.040769  0  3.988139  0
C  C58  1  0.63164331  0.98143176  0.86035570  1  0  -0.008512  0  3.741472  0  0  -0.039678  0  4.002153  0  0  -0.038047  0  4.022993  0  0  -0.008347  -0.040762  0  3.988097  0
C  C59  1  0.86835728  0.48143082  0.13964221  1  0  -0.008571  0  3.741524  0  0  -0.039725  0  4.002205  0  0  -0.03809  0  4.023041  0  0  -0.008346  -0.040809  0  3.988146  0
C  C60  1  0.24154456  0.09265667  0.11020283  1  0  -0.057557  0  3.652762  0  0  -0.098498  0  3.911895  0  0  -0.096516  0  3.930022  0  0  5.7e-05  -0.099626  0  3.899493  0
C  C61  1  0.25845958  0.59265941  0.88979561  1  0  -0.057639  0  3.652739  0  0  -0.098553  0  3.911901  0  0  -0.096569  0  3.930021  0  0  1.5e-05  -0.099683  0  3.8995  0
C  C62  1  0.75846011  0.90734432  0.88979545  1  0  -0.057562  0  3.652802  0  0  -0.098514  0  3.91191  0  0  -0.096536  0  3.930037  0  0  3.5e-05  -0.099644  0  3.899517  0
C  C63  1  0.74153822  0.40734342  0.11020276  1  0  -0.057588  0  3.652748  0  0  -0.098484  0  3.911873  0  0  -0.096499  0  3.929994  0  0  6.4e-05  -0.099615  0  3.899479  0
C  C64  1  0.67960391  0.14681100  0.46734592  1  0  0.229432  0  3.96082  0  0  0.220989  0  4.263486  0  0  0.23785  0  4.278914  0  0  0.124829  0.209737  0  4.252502  0
C  C65  1  0.82039909  0.64681397  0.53265906  1  0  0.229435  0  3.960436  0  0  0.220992  0  4.263103  0  0  0.237856  0  4.278527  0  0  0.124758  0.209741  0  4.252114  0
C  C66  1  0.32039846  0.85318815  0.53265262  1  0  0.229382  0  3.960615  0  0  0.220932  0  4.2633  0  0  0.237795  0  4.278729  0  0  0.124788  0.209681  0  4.252316  0
C  C67  1  0.17959869  0.35318794  0.46734433  1  0  0.229435  0  3.960613  0  0  0.220994  0  4.263277  0  0  0.237858  0  4.278704  0  0  0.124825  0.209744  0  4.252296  0
C  C68  1  0.55817962  0.72890641  0.14665813  1  0  0.25504  0  3.925736  0  0  0.246645  0  4.228061  0  0  0.264229  0  4.242423  0  0  0.137396  0.234666  0  4.218321  0
C  C69  1  0.94181993  0.22890498  0.85334184  1  0  0.255099  0  3.925697  0  0  0.246704  0  4.228025  0  0  0.264289  0  4.242389  0  0  0.13741  0.234726  0  4.218289  0
C  C70  1  0.44181932  0.27109458  0.85334119  1  0  0.25513  0  3.925619  0  0  0.246739  0  4.227942  0  0  0.264324  0  4.242301  0  0  0.137459  0.234762  0  4.218206  0
C  C71  1  0.05817671  0.77109601  0.14666205  1  0  0.255119  0  3.925481  0  0  0.246731  0  4.227806  0  0  0.264317  0  4.242166  0  0  0.137411  0.234752  0  4.218068  0
S  S72  1  0.76369391  0.01074388  0.49739778  1  0  -0.215483  0  2.342529  0  0  -0.176825  0  2.703392  0  0  -0.193953  0  2.696913  0  0  -0.097675  -0.165621  0  2.70855  0
S  S73  1  0.73630573  0.51075333  0.50260516  1  0  -0.215468  0  2.342542  0  0  -0.176791  0  2.703375  0  0  -0.193921  0  2.696896  0  0  -0.097636  -0.165597  0  2.708547  0
S  S74  1  0.23630732  0.98925251  0.50260126  1  0  -0.21544  0  2.342575  0  0  -0.176761  0  2.703431  0  0  -0.193891  0  2.696956  0  0  -0.097632  -0.165559  0  2.708588  0
S  S75  1  0.26368517  0.48925319  0.49740120  1  0  -0.215532  0  2.342515  0  0  -0.176884  0  2.703385  0  0  -0.194015  0  2.696909  0  0  -0.097712  -0.165677  0  2.708533  0
S  S76  1  0.60572742  0.69322536  0.26785659  1  0  -0.211715  0  2.298116  0  0  -0.180777  0  2.653163  0  0  -0.198156  0  2.649555  0  0  -0.105207  -0.169005  0  2.655205  0
S  S77  1  0.89427329  0.19322587  0.73214505  1  0  -0.211712  0  2.298174  0  0  -0.18077  0  2.653225  0  0  -0.198152  0  2.649619  0  0  -0.105197  -0.168999  0  2.65527  0
S  S78  1  0.39426695  0.30677379  0.73214110  1  0  -0.21177  0  2.298108  0  0  -0.180831  0  2.653161  0  0  -0.198214  0  2.649553  0  0  -0.105224  -0.16906  0  2.6552  0
S  S79  1  0.10573135  0.80677420  0.26786113  1  0  -0.211775  0  2.298093  0  0  -0.180839  0  2.653145  0  0  -0.198219  0  2.649534  0  0  -0.105226  -0.169073  0  2.655199  0
N  N80  1  0.95297847  0.13219260  0.19347199  1  0  -0.082601  0  3.563166  0  0  0.008439  0  3.785346  0  0  -0.007045  0  3.810954  0  0  -0.245132  0.018797  0  3.767703  0
N  N81  1  0.54702341  0.63219636  0.80652775  1  0  -0.082569  0  3.563178  0  0  0.008459  0  3.785356  0  0  -0.007024  0  3.810962  0  0  -0.245134  0.018817  0  3.767708  0
N  N82  1  0.04702276  0.86780470  0.80652777  1  0  -0.082552  0  3.563107  0  0  0.008487  0  3.785272  0  0  -0.006993  0  3.810879  0  0  -0.245143  0.018846  0  3.767623  0
N  N83  1  0.45297667  0.36780556  0.19347251  1  0  -0.082578  0  3.563116  0  0  0.008489  0  3.785304  0  0  -0.006993  0  3.810912  0  0  -0.245131  0.018849  0  3.767658  0
N  N84  1  0.78560779  0.01300593  0.23380158  1  0  -0.346322  0  3.260838  0  0  -0.272333  0  3.542535  0  0  -0.292884  0  3.563077  0  0  -0.340292  -0.258256  0  3.527958  0
N  N85  1  0.71439415  0.51300692  0.76619894  1  0  -0.346303  0  3.260814  0  0  -0.272286  0  3.542475  0  0  -0.292836  0  3.563012  0  0  -0.340272  -0.258209  0  3.527894  0
N  N86  1  0.21439344  0.98699230  0.76619890  1  0  -0.34633  0  3.26087  0  0  -0.272314  0  3.542535  0  0  -0.292866  0  3.563076  0  0  -0.340272  -0.258238  0  3.527954  0
N  N87  1  0.28560707  0.48699315  0.23380298  1  0  -0.346232  0  3.260961  0  0  -0.272202  0  3.542595  0  0  -0.292752  0  3.563137  0  0  -0.340235  -0.258126  0  3.528016  0
N  N88  1  0.21723245  0.13422981  0.19821739  1  0  -0.082503  0  3.562296  0  0  0.007956  0  3.785724  0  0  -0.007437  0  3.810976  0  0  -0.244616  0.018111  0  3.768459  0
N  N89  1  0.28277166  0.63423445  0.80178246  1  0  -0.082515  0  3.562333  0  0  0.007951  0  3.785758  0  0  -0.007444  0  3.811009  0  0  -0.244622  0.018107  0  3.768487  0
N  N90  1  0.78277106  0.86576750  0.80178210  1  0  -0.08254  0  3.562467  0  0  0.007929  0  3.785882  0  0  -0.007463  0  3.811134  0  0  -0.244613  0.018085  0  3.768612  0
N  N91  1  0.71722843  0.36576747  0.19821635  1  0  -0.082457  0  3.562322  0  0  0.008039  0  3.785742  0  0  -0.007355  0  3.810995  0  0  -0.24457  0.018198  0  3.768475  0
N  N92  1  0.42144299  0.01567056  0.24379627  1  0  -0.343763  0  3.244784  0  0  -0.268618  0  3.526097  0  0  -0.289398  0  3.546222  0  0  -0.336824  -0.25449  0  3.51198  0
N  N93  1  0.07856118  0.51567342  0.75620292  1  0  -0.343803  0  3.244824  0  0  -0.268669  0  3.526173  0  0  -0.28945  0  3.546291  0  0  -0.336798  -0.254542  0  3.51206  0
N  N94  1  0.57855939  0.98432859  0.75620156  1  0  -0.343721  0  3.244716  0  0  -0.268587  0  3.526057  0  0  -0.289362  0  3.546165  0  0  -0.33677  -0.25446  0  3.511945  0
N  N95  1  0.92143891  0.48432850  0.24379518  1  0  -0.343775  0  3.24478  0  0  -0.268642  0  3.526127  0  0  -0.289418  0  3.546235  0  0  -0.336798  -0.254514  0  3.512019  0
N  N96  1  0.62207930  0.24466427  0.44844750  1  0  -0.464298  0  2.676199  0  0  -0.437138  0  2.91709  0  0  -0.450458  0  2.926974  0  0  -0.353477  -0.428059  0  2.910732  0
N  N97  1  0.87792825  0.74467275  0.55155618  1  0  -0.464316  0  2.675847  0  0  -0.437169  0  2.916743  0  0  -0.45049  0  2.926622  0  0  -0.353432  -0.428089  0  2.910382  0
N  N98  1  0.37792536  0.75533120  0.55155294  1  0  -0.46428  0  2.675948  0  0  -0.437133  0  2.91687  0  0  -0.450455  0  2.926755  0  0  -0.353464  -0.428055  0  2.910508  0
N  N99  1  0.12207641  0.25533009  0.44844497  1  0  -0.464265  0  2.676027  0  0  -0.437122  0  2.916938  0  0  -0.450444  0  2.92682  0  0  -0.353436  -0.428048  0  2.910578  0
N  N100  1  0.52380865  0.75118518  0.05972795  1  0  -0.474166  0  2.643587  0  0  -0.449244  0  2.876652  0  0  -0.461632  0  2.886164  0  0  -0.351648  -0.44082  0  2.87037  0
N  N101  1  0.97618974  0.25118277  0.94027465  1  0  -0.474217  0  2.643502  0  0  -0.449301  0  2.876564  0  0  -0.461694  0  2.886081  0  0  -0.351658  -0.440873  0  2.870278  0
N  N102  1  0.47618571  0.24881489  0.94027118  1  0  -0.474217  0  2.643503  0  0  -0.449307  0  2.876577  0  0  -0.461693  0  2.886088  0  0  -0.351694  -0.440881  0  2.870294  0
N  N103  1  0.02380804  0.74881730  0.05973018  1  0  -0.474185  0  2.643353  0  0  -0.449275  0  2.876427  0  0  -0.461665  0  2.885941  0  0  -0.351635  -0.440851  0  2.870152  0
