# generated using pymatgen
data_ZnH12C15(N2O)3
_symmetry_space_group_name_H-M   'P 1'
_cell_length_a   7.80096247
_cell_length_b   8.77966846
_cell_length_c   12.42001106
_cell_angle_alpha   86.92329039
_cell_angle_beta   81.09520853
_cell_angle_gamma   85.96571311
_symmetry_Int_Tables_number   1
_chemical_formula_structural   ZnH12C15(N2O)3
_chemical_formula_sum   'Zn2 H24 C30 N12 O6'
_cell_volume   837.51927968
_cell_formula_units_Z   2
loop_
 _symmetry_equiv_pos_site_id
 _symmetry_equiv_pos_as_xyz
  1  'x, y, z'
loop_
 _atom_site_type_symbol
 _atom_site_label
 _atom_site_symmetry_multiplicity
 _atom_site_fract_x
 _atom_site_fract_y
 _atom_site_fract_z
 _atom_site_occupancy
 _atom_site_hle17_bader_spin_density
 _atom_site_hle17_ddec_charge
 _atom_site_hle17_ddec_spin_density
 _atom_site_hle17_ddec_sum_bond_order
 _atom_site_hle17_magmom
 _atom_site_hse06_10hf_bader_spin_density
 _atom_site_hse06_10hf_ddec_charge
 _atom_site_hse06_10hf_ddec_spin_density
 _atom_site_hse06_10hf_ddec_sum_bond_order
 _atom_site_hse06_10hf_magmom
 _atom_site_hse06_bader_spin_density
 _atom_site_hse06_ddec_charge
 _atom_site_hse06_ddec_spin_density
 _atom_site_hse06_ddec_sum_bond_order
 _atom_site_hse06_magmom
 _atom_site_pbe_bader_spin_density
 _atom_site_pbe_cm5_charge
 _atom_site_pbe_ddec_charge
 _atom_site_pbe_ddec_spin_density
 _atom_site_pbe_ddec_sum_bond_order
 _atom_site_pbe_magmom
Zn  Zn0  1  0.99999807  0.50000269  0.50000041  1  0  1.118531  0  1.889882  0  0  0.962529  0  2.346762  0  0  1.003822  0  2.293935  0  0  0.748344  0.933945  0  2.38295  0
Zn  Zn1  1  0.00000205  0.99999810  0.99999961  1  0  1.109935  0  1.807457  0  0  0.944659  0  2.249054  0  0  0.989176  0  2.195061  0  0  0.723027  0.913378  0  2.286258  0
H  H2  1  0.98473575  0.74174268  0.68606444  1  0  0.06875  0  0.972809  0  0  0.080452  0  1.050771  0  0  0.080792  0  1.051355  0  0  0.08518  0.080156  0  1.050399  0
H  H3  1  0.01526650  0.25825426  0.31393744  1  0  0.068802  0  0.972838  0  0  0.080489  0  1.050799  0  0  0.080831  0  1.051382  0  0  0.085206  0.080189  0  1.050437  0
H  H4  1  0.05536088  0.63503883  0.80007142  1  0  0.083183  0  0.945902  0  0  0.10042  0  1.011681  0  0  0.10104  0  1.011296  0  0  0.097898  0.099908  0  1.012033  0
H  H5  1  0.94463895  0.36495582  0.19992996  1  0  0.083182  0  0.945888  0  0  0.100407  0  1.011673  0  0  0.101042  0  1.011268  0  0  0.097893  0.099894  0  1.012026  0
H  H6  1  0.84177598  0.61808510  0.76895348  1  0  0.0746  0  0.940025  0  0  0.093808  0  1.002778  0  0  0.094283  0  1.002841  0  0  0.09271  0.093386  0  1.002838  0
H  H7  1  0.15822359  0.38191297  0.23104861  1  0  0.074615  0  0.939941  0  0  0.093819  0  1.002702  0  0  0.094287  0  1.002775  0  0  0.092701  0.093396  0  1.002764  0
H  H8  1  0.40214622  0.10130545  0.94417166  1  0  0.075079  0  0.937926  0  0  0.090351  0  1.005428  0  0  0.091469  0  1.004721  0  0  0.088767  0.089451  0  1.006038  0
H  H9  1  0.59785620  0.89868920  0.05583028  1  0  0.075077  0  0.937939  0  0  0.090324  0  1.005471  0  0  0.091441  0  1.004767  0  0  0.088754  0.089424  0  1.006079  0
H  H10  1  0.39915444  0.26968602  0.02002787  1  0  0.079256  0  0.957438  0  0  0.09469  0  1.025726  0  0  0.095441  0  1.025094  0  0  0.091125  0.094075  0  1.026246  0
H  H11  1  0.60084669  0.73030863  0.97997420  1  0  0.079252  0  0.95739  0  0  0.094681  0  1.025687  0  0  0.095433  0  1.025055  0  0  0.09111  0.09406  0  1.026215  0
H  H12  1  0.28179426  0.27168892  0.90670736  1  0  0.083889  0  0.962312  0  0  0.098756  0  1.031125  0  0  0.099109  0  1.031548  0  0  0.092757  0.098415  0  1.030922  0
H  H13  1  0.71820817  0.72830573  0.09329458  1  0  0.083865  0  0.962342  0  0  0.098752  0  1.031128  0  0  0.099106  0  1.031551  0  0  0.092744  0.098412  0  1.03092  0
H  H14  1  0.13367309  0.72796425  0.18661615  1  0  0.08307  0  0.945109  0  0  0.098116  0  1.012574  0  0  0.098514  0  1.013071  0  0  0.094089  0.097721  0  1.012356  0
H  H15  1  0.86632563  0.27202811  0.81338542  1  0  0.083062  0  0.945053  0  0  0.098059  0  1.01258  0  0  0.098455  0  1.01308  0  0  0.094098  0.097666  0  1.01236  0
H  H16  1  0.26650898  0.60482712  0.09320813  1  0  0.076031  0  0.930824  0  0  0.095986  0  0.992308  0  0  0.096384  0  0.992093  0  0  0.098143  0.095613  0  0.992539  0
H  H17  1  0.73349103  0.39516525  0.90679331  1  0  0.075905  0  0.930666  0  0  0.095805  0  0.992245  0  0  0.096204  0  0.992027  0  0  0.098003  0.095434  0  0.992475  0
H  H18  1  0.03828838  0.63511024  0.08760121  1  0  0.074212  0  0.934113  0  0  0.094744  0  0.993825  0  0  0.09562  0  0.993331  0  0  0.093732  0.093984  0  0.994324  0
H  H19  1  0.96171164  0.36488213  0.91239943  1  0  0.074146  0  0.934217  0  0  0.094725  0  0.993851  0  0  0.095604  0  0.993361  0  0  0.09375  0.093964  0  0.994354  0
H  H20  1  0.15142548  0.45855536  0.68374882  1  0  0.375755  0  0.920187  0  0  0.34619  0  1.000575  0  0  0.35643  0  0.988942  0  0  0.296562  0.33898  0  1.008783  0
H  H21  1  0.84857289  0.54144158  0.31625182  1  0  0.375736  0  0.920198  0  0  0.346173  0  1.000582  0  0  0.35641  0  0.988952  0  0  0.296559  0.338963  0  1.008793  0
H  H22  1  0.26066496  0.77807960  0.96118248  1  0  0.371662  0  0.924742  0  0  0.344632  0  1.000928  0  0  0.35461  0  0.989785  0  0  0.296475  0.337641  0  1.008675  0
H  H23  1  0.73933765  0.22191278  0.03881791  1  0  0.371699  0  0.924666  0  0  0.344673  0  1.000849  0  0  0.354649  0  0.989712  0  0  0.296492  0.337683  0  1.008594  0
H  H24  1  0.20428583  0.11553814  0.11617537  1  0  0.370257  0  0.923304  0  0  0.343635  0  0.998069  0  0  0.353561  0  0.98727  0  0  0.296375  0.336648  0  1.005641  0
H  H25  1  0.79571522  0.88445765  0.88382586  1  0  0.370244  0  0.923255  0  0  0.343615  0  0.998035  0  0  0.353541  0  0.987239  0  0  0.29637  0.336626  0  1.005616  0
C  C26  1  0.97793088  0.63269753  0.73371707  1  0  -0.016244  0  3.638953  0  0  -0.111054  0  3.907346  0  0  -0.104557  0  3.911641  0  0  -0.155785  -0.115341  0  3.904343  0
C  C27  1  0.02206878  0.36729940  0.26628505  1  0  -0.016315  0  3.638941  0  0  -0.111104  0  3.907346  0  0  -0.104613  0  3.91163  0  0  -0.155799  -0.115392  0  3.90435  0
C  C28  1  0.32207657  0.20239751  0.97540748  1  0  -0.027965  0  3.635137  0  0  -0.11993  0  3.900706  0  0  -0.113705  0  3.904888  0  0  -0.157492  -0.124018  0  3.897791  0
C  C29  1  0.67792578  0.79759829  0.02459362  1  0  -0.02793  0  3.635141  0  0  -0.119898  0  3.900727  0  0  -0.113666  0  3.904894  0  0  -0.157451  -0.123985  0  3.897811  0
C  C30  1  0.15480374  0.68919874  0.10296409  1  0  -0.015471  0  3.647105  0  0  -0.109152  0  3.916014  0  0  -0.102881  0  3.920551  0  0  -0.150385  -0.113296  0  3.912916  0
C  C31  1  0.84519636  0.31079249  0.89703738  1  0  -0.015138  0  3.646981  0  0  -0.108749  0  3.915841  0  0  -0.102482  0  3.920389  0  0  -0.150236  -0.112896  0  3.912739  0
C  C32  1  0.27810566  0.91788859  0.57081332  1  0  0.037413  0  3.807526  0  0  0.030767  0  4.057437  0  0  0.035421  0  4.076677  0  0  0.018067  0.027782  0  4.044091  0
C  C33  1  0.72189270  0.08212550  0.42918592  1  0  0.037397  0  3.807562  0  0  0.030794  0  4.057425  0  0  0.035444  0  4.076658  0  0  0.018086  0.027809  0  4.044078  0
C  C34  1  0.37215004  0.85572227  0.47724030  1  0  0.051536  0  3.802164  0  0  0.043046  0  4.053817  0  0  0.048302  0  4.073199  0  0  0.02063  0.039631  0  4.04034  0
C  C35  1  0.62785378  0.14428843  0.52275612  1  0  0.051395  0  3.802405  0  0  0.042931  0  4.054005  0  0  0.048185  0  4.073384  0  0  0.020615  0.039519  0  4.040514  0
C  C36  1  0.39642895  0.79436544  0.57982137  1  0  0.05058  0  3.788052  0  0  0.044898  0  4.034468  0  0  0.050386  0  4.052977  0  0  0.020597  0.041331  0  4.021617  0
C  C37  1  0.60357624  0.20564409  0.42017899  1  0  0.050716  0  3.788377  0  0  0.044976  0  4.034763  0  0  0.050461  0  4.053274  0  0  0.020594  0.041404  0  4.021913  0
C  C38  1  0.15927847  0.02660041  0.62549142  1  0  -0.193175  0  4.041269  0  0  -0.173994  0  4.291395  0  0  -0.187957  0  4.310641  0  0  -0.038307  -0.164524  0  4.278124  0
C  C39  1  0.84072172  0.97340684  0.37450628  1  0  -0.193198  0  4.041093  0  0  -0.174069  0  4.291254  0  0  -0.188009  0  4.310462  0  0  -0.03836  -0.164598  0  4.277996  0
C  C40  1  0.08246955  0.14960998  0.57013208  1  0  0.345778  0  3.788614  0  0  0.321774  0  4.054377  0  0  0.337937  0  4.071989  0  0  0.204911  0.310748  0  4.042564  0
C  C41  1  0.91752830  0.85039383  0.42986676  1  0  0.345836  0  3.78875  0  0  0.321853  0  4.054494  0  0  0.338009  0  4.072097  0  0  0.204949  0.31083  0  4.042686  0
C  C42  1  0.13026102  0.02187506  0.73974939  1  0  0.358926  0  3.791889  0  0  0.331621  0  4.058836  0  0  0.348016  0  4.077184  0  0  0.217985  0.320388  0  4.046511  0
C  C43  1  0.86973683  0.97812875  0.26024865  1  0  0.358907  0  3.791775  0  0  0.331596  0  4.058733  0  0  0.347983  0  4.077077  0  0  0.217985  0.320362  0  4.046409  0
C  C44  1  0.42129042  0.85050102  0.36411463  1  0  -0.179915  0  4.047409  0  0  -0.162781  0  4.296083  0  0  -0.176272  0  4.317248  0  0  -0.041745  -0.153542  0  4.281352  0
C  C45  1  0.57870985  0.14950508  0.63588471  1  0  -0.179797  0  4.047164  0  0  -0.162691  0  4.295845  0  0  -0.176172  0  4.317006  0  0  -0.041645  -0.15344  0  4.281105  0
C  C46  1  0.55146688  0.74035879  0.32396386  1  0  0.310678  0  3.832772  0  0  0.291481  0  4.100192  0  0  0.304732  0  4.12036  0  0  0.192129  0.28253  0  4.086389  0
C  C47  1  0.44853496  0.25964388  0.67603464  1  0  0.310717  0  3.832708  0  0  0.291524  0  4.100132  0  0  0.304773  0  4.120304  0  0  0.1921  0.282565  0  4.086336  0
C  C48  1  0.34603093  0.95210434  0.29110002  1  0  0.307466  0  3.830483  0  0  0.289085  0  4.097274  0  0  0.302428  0  4.116735  0  0  0.190372  0.280027  0  4.084017  0
C  C49  1  0.65396986  0.04789489  0.70890031  1  0  0.30742  0  3.830465  0  0  0.289048  0  4.097265  0  0  0.302388  0  4.116726  0  0  0.190347  0.279987  0  4.084009  0
C  C50  1  0.48125579  0.68921692  0.64579310  1  0  -0.177256  0  4.032807  0  0  -0.158688  0  4.279886  0  0  -0.172454  0  4.29981  0  0  -0.036754  -0.149345  0  4.266148  0
C  C51  1  0.51874543  0.31079376  0.35420437  1  0  -0.177415  0  4.03282  0  0  -0.158751  0  4.279778  0  0  -0.172514  0  4.29971  0  0  -0.036741  -0.149409  0  4.266046  0
C  C52  1  0.43137454  0.68655291  0.75943469  1  0  0.326131  0  3.83247  0  0  0.301117  0  4.108579  0  0  0.315088  0  4.127191  0  0  0.195302  0.291631  0  4.095965  0
C  C53  1  0.56862470  0.31344976  0.24056405  1  0  0.326215  0  3.832542  0  0  0.30117  0  4.108631  0  0  0.315142  0  4.127245  0  0  0.195309  0.291684  0  4.096018  0
C  C54  1  0.61585897  0.58959120  0.59889850  1  0  0.353989  0  3.796352  0  0  0.33118  0  4.059242  0  0  0.347494  0  4.078004  0  0  0.209131  0.320074  0  4.046552  0
C  C55  1  0.38414001  0.41041489  0.40110016  1  0  0.354031  0  3.796282  0  0  0.331195  0  4.059151  0  0  0.347506  0  4.077915  0  0  0.209109  0.320088  0  4.046462  0
N  N56  1  0.01891136  0.25436929  0.52492388  1  0  -0.475471  0  2.853418  0  0  -0.430125  0  3.130645  0  0  -0.447924  0  3.138797  0  0  -0.326292  -0.418198  0  3.125308  0
N  N57  1  0.98108373  0.74563680  0.47507353  1  0  -0.475531  0  2.853585  0  0  -0.430196  0  3.130812  0  0  -0.447994  0  3.138962  0  0  -0.326333  -0.41827  0  3.12548  0
N  N58  1  0.11019478  0.01757448  0.83514200  1  0  -0.467379  0  2.862986  0  0  -0.41165  0  3.1413  0  0  -0.430626  0  3.148676  0  0  -0.325508  -0.398869  0  3.13651  0
N  N59  1  0.88980472  0.98242476  0.16485684  1  0  -0.467357  0  2.862897  0  0  -0.411584  0  3.141173  0  0  -0.430562  0  3.148551  0  0  -0.325481  -0.398801  0  3.136376  0
N  N60  1  0.66200202  0.64780164  0.29451632  1  0  -0.462897  0  2.740143  0  0  -0.428877  0  2.978123  0  0  -0.443672  0  2.990292  0  0  -0.315294  -0.418795  0  2.969935  0
N  N61  1  0.33799582  0.35220214  0.70548493  1  0  -0.462971  0  2.740037  0  0  -0.428949  0  2.978026  0  0  -0.443742  0  2.990184  0  0  -0.315298  -0.418864  0  2.969845  0
N  N62  1  0.28332173  0.03706493  0.23018769  1  0  -0.447908  0  2.730068  0  0  -0.415125  0  2.968088  0  0  -0.429546  0  2.980325  0  0  -0.310809  -0.405327  0  2.959879  0
N  N63  1  0.71667110  0.96293656  0.76981251  1  0  -0.447869  0  2.730165  0  0  -0.415088  0  2.968193  0  0  -0.42951  0  2.980431  0  0  -0.310817  -0.405293  0  2.95999  0
N  N64  1  0.38246951  0.68870928  0.85333911  1  0  -0.460821  0  2.712628  0  0  -0.426001  0  2.946179  0  0  -0.440149  0  2.955907  0  0  -0.316253  -0.416431  0  2.939696  0
N  N65  1  0.61753163  0.31128538  0.14666053  1  0  -0.46085  0  2.712616  0  0  -0.426036  0  2.946183  0  0  -0.440181  0  2.955908  0  0  -0.316262  -0.416467  0  2.9397  0
N  N66  1  0.73012928  0.50906901  0.55673015  1  0  -0.485363  0  2.856632  0  0  -0.440077  0  3.135378  0  0  -0.458487  0  3.143071  0  0  -0.338191  -0.427711  0  3.130264  0
N  N67  1  0.26987117  0.49093480  0.44326924  1  0  -0.485378  0  2.856551  0  0  -0.440094  0  3.135301  0  0  -0.458503  0  3.142993  0  0  -0.338217  -0.42773  0  3.130187  0
O  O68  1  0.03999121  0.50794486  0.66480696  1  0  -0.560397  0  2.261866  0  0  -0.480469  0  2.519844  0  0  -0.501525  0  2.50823  0  0  -0.405144  -0.465395  0  2.527184  0
O  O69  1  0.96000707  0.49205322  0.33519365  1  0  -0.560382  0  2.261935  0  0  -0.480431  0  2.519872  0  0  -0.501501  0  2.508291  0  0  -0.405138  -0.465349  0  2.527187  0
O  O70  1  0.16730195  0.15921363  0.04665237  1  0  -0.552721  0  2.225066  0  0  -0.476153  0  2.476369  0  0  -0.497346  0  2.46541  0  0  -0.406714  -0.461096  0  2.483486  0
O  O71  1  0.83270057  0.84077989  0.95334799  1  0  -0.552722  0  2.225035  0  0  -0.47613  0  2.476307  0  0  -0.497322  0  2.465351  0  0  -0.406715  -0.461073  0  2.483424  0
O  O72  1  0.19133504  0.81878365  0.02926659  1  0  -0.549452  0  2.224115  0  0  -0.476252  0  2.48086  0  0  -0.496441  0  2.469057  0  0  -0.40393  -0.461877  0  2.488482  0
O  O73  1  0.80866627  0.18120872  0.97073473  1  0  -0.549635  0  2.224175  0  0  -0.476449  0  2.480891  0  0  -0.496634  0  2.469082  0  0  -0.403983  -0.462069  0  2.488512  0
