# generated using pymatgen
data_CuH10C10(N2O3)2
_symmetry_space_group_name_H-M   'P 1'
_cell_length_a   5.07502418
_cell_length_b   9.85977350
_cell_length_c   13.31297232
_cell_angle_alpha   101.12452284
_cell_angle_beta   89.99977492
_cell_angle_gamma   89.99980757
_symmetry_Int_Tables_number   1
_chemical_formula_structural   CuH10C10(N2O3)2
_chemical_formula_sum   'Cu2 H20 C20 N8 O12'
_cell_volume   653.64527457
_cell_formula_units_Z   2
loop_
 _symmetry_equiv_pos_site_id
 _symmetry_equiv_pos_as_xyz
  1  'x, y, z'
loop_
 _atom_site_type_symbol
 _atom_site_label
 _atom_site_symmetry_multiplicity
 _atom_site_fract_x
 _atom_site_fract_y
 _atom_site_fract_z
 _atom_site_occupancy
 _atom_site_hle17_ddec_charge
 _atom_site_hle17_ddec_spin_density
 _atom_site_hle17_ddec_sum_bond_order
 _atom_site_hle17_magmom
 _atom_site_hse06_10hf_ddec_charge
 _atom_site_hse06_10hf_ddec_spin_density
 _atom_site_hse06_10hf_ddec_sum_bond_order
 _atom_site_hse06_10hf_magmom
 _atom_site_hse06_ddec_charge
 _atom_site_hse06_ddec_spin_density
 _atom_site_hse06_ddec_sum_bond_order
 _atom_site_hse06_magmom
 _atom_site_pbe_cm5_charge
 _atom_site_pbe_ddec_charge
 _atom_site_pbe_ddec_spin_density
 _atom_site_pbe_ddec_sum_bond_order
 _atom_site_pbe_magmom
Cu  Cu0  1  0.49999832  0.99999972  0.00000019  1  1.02336  0.713465  1.833246  0.526  1.045478  0.820226  2.227016  0.686  1.113685  0.873612  2.17203  0.76  0.814755  0.998198  0.775592  2.267436  0.627
Cu  Cu1  1  0.99999893  0.49999880  0.50000014  1  1.023479  0.71349  1.833052  0.526  1.045594  0.820237  2.226782  0.686  1.113782  0.873633  2.171779  0.76  0.814765  0.99832  0.775604  2.267182  0.627
H  H2  1  0.77207847  0.77874355  0.01139256  1  0.427346  -0.000336  0.87439  -0.001  0.40116  0.000511  0.930959  0.001  0.412631  0.00034  0.914996  0.001  0.29585  0.392626  0.000653  0.942832  0.001
H  H3  1  0.27207465  0.72125961  0.48860878  1  0.427394  -0.000334  0.874323  -0.001  0.401212  0.000511  0.930884  0.001  0.412686  0.00034  0.914919  0.001  0.295871  0.39268  0.000653  0.942756  0.001
H  H4  1  0.22792612  0.22125723  0.98860667  1  0.427381  -0.000337  0.874347  -0.001  0.401203  0.000511  0.930898  0.001  0.412676  0.00034  0.914934  0.001  0.295859  0.392669  0.000653  0.942771  0.001
H  H5  1  0.72792797  0.27873910  0.51139240  1  0.427376  -0.000342  0.874357  -0.001  0.401191  0.000511  0.930923  0.001  0.412664  0.00034  0.914958  0.001  0.295853  0.392658  0.000653  0.942795  0.001
H  H6  1  0.89611252  0.91271048  0.08762471  1  0.423577  -0.00025  0.878813  -0.001  0.395377  0.000393  0.93977  0.0  0.406166  0.000214  0.924489  0.0  0.293382  0.387391  0.000566  0.951101  0.001
H  H7  1  0.39610444  0.58728724  0.41237491  1  0.423559  -0.00025  0.878848  -0.001  0.395383  0.000392  0.939775  0.0  0.406173  0.000214  0.924493  0.0  0.293406  0.3874  0.000566  0.951104  0.001
H  H8  1  0.10388813  0.08728824  0.91237497  1  0.423559  -0.000248  0.878849  -0.001  0.395355  0.000392  0.939812  0.0  0.406145  0.000214  0.924531  0.0  0.293383  0.387369  0.000566  0.951144  0.001
H  H9  1  0.60389621  0.41271044  0.58762462  1  0.423556  -0.000254  0.878851  -0.001  0.395376  0.000392  0.939785  0.0  0.406165  0.000215  0.924505  0.0  0.293397  0.387392  0.000566  0.951114  0.001
H  H10  1  0.53134079  0.57608044  0.12237530  1  0.087866  0.000264  0.964631  0.0  0.099054  4.5e-05  1.040397  0.0  0.099723  2e-05  1.039762  0.0  0.096156  0.09862  8.5e-05  1.040803  0.0
H  H11  1  0.03134861  0.92392016  0.37762377  1  0.087849  0.000258  0.964657  0.0  0.099029  4.5e-05  1.040423  0.0  0.099697  2e-05  1.039789  0.0  0.096158  0.098597  8.5e-05  1.040832  0.0
H  H12  1  0.46865592  0.42391931  0.87762452  1  0.087841  0.000257  0.964625  0.0  0.099023  4.5e-05  1.040398  0.0  0.099692  2e-05  1.039762  0.0  0.096147  0.09859  8.4e-05  1.040802  0.0
H  H13  1  0.96865598  0.07607958  0.62237756  1  0.087869  0.000268  0.964675  0.0  0.099068  4.5e-05  1.040425  0.0  0.099739  2e-05  1.039787  0.0  0.096171  0.098637  8.5e-05  1.040832  0.0
H  H14  1  0.39037508  0.73591764  0.19014417  1  0.109415  5.3e-05  0.937689  0.0  0.124049  4.7e-05  1.001228  0.0  0.125181  3e-05  1.0002  0.0  0.106118  0.123189  7e-05  1.002107  0.0
H  H15  1  0.89037199  0.76408424  0.30985229  1  0.109394  7.7e-05  0.937701  0.0  0.124033  4.7e-05  1.00124  0.0  0.125166  3e-05  1.000211  0.0  0.106114  0.123173  7e-05  1.002121  0.0
H  H16  1  0.60962163  0.26408211  0.80985565  1  0.109397  7e-05  0.937687  0.0  0.124021  4.7e-05  1.001239  0.0  0.125153  3e-05  1.000211  0.0  0.106114  0.123162  7e-05  1.002116  0.0
H  H17  1  0.10962275  0.23591551  0.69014678  1  0.109393  5.3e-05  0.937698  0.0  0.124034  4.7e-05  1.00124  0.0  0.125166  3e-05  1.000212  0.0  0.106117  0.123174  7e-05  1.002117  0.0
H  H18  1  0.28627007  0.66250446  0.06197255  1  0.093357  9.9e-05  0.946502  0.0  0.108055  7e-06  1.014746  0.0  0.108204  -9e-06  1.014732  0.0  0.098473  0.10796  4.5e-05  1.014859  0.0
H  H19  1  0.78627306  0.83749557  0.43802756  1  0.093338  0.000117  0.946501  0.0  0.108053  7e-06  1.014718  0.0  0.108203  -8e-06  1.014705  0.0  0.098485  0.10796  4.5e-05  1.014838  0.0
H  H20  1  0.71373058  0.33749735  0.93802758  1  0.093327  0.000115  0.946496  0.0  0.108024  6e-06  1.014738  0.0  0.108172  -9e-06  1.014725  0.0  0.098476  0.107929  4.5e-05  1.014852  0.0
H  H21  1  0.21372364  0.16250418  0.56197301  1  0.093348  0.000109  0.946493  0.0  0.108045  7e-06  1.014736  0.0  0.108195  -9e-06  1.014723  0.0  0.098507  0.107951  4.5e-05  1.014855  0.0
C  C22  1  0.76181360  0.25800072  0.12790291  1  0.384781  -0.03346  3.822025  -0.02  0.378495  -0.005943  4.093356  0.002  0.401871  -0.007691  4.107052  0.0  0.214621  0.361191  -0.004687  4.084212  0.003
C  C23  1  0.26183842  0.24200635  0.37208939  1  0.384868  -0.033414  3.822501  -0.02  0.3785  -0.005938  4.093795  0.002  0.401897  -0.007683  4.107515  0.0  0.214604  0.361204  -0.004684  4.084666  0.003
C  C24  1  0.23818902  0.74199800  0.87209451  1  0.384756  -0.033445  3.82222  -0.02  0.378475  -0.005941  4.093571  0.002  0.401851  -0.007689  4.107269  0.0  0.2146  0.361171  -0.004686  4.08443  0.003
C  C25  1  0.73816420  0.75799442  0.62791134  1  0.384809  -0.033448  3.822376  -0.02  0.378481  -0.005938  4.093698  0.002  0.401864  -0.007682  4.107408  0.0  0.214585  0.361184  -0.004684  4.084568  0.003
C  C26  1  0.75840142  0.44906242  0.27059378  1  0.362179  -0.020082  3.830839  -0.015  0.342598  -0.002101  4.121375  -0.001  0.360812  -0.001892  4.136623  -0.001  0.192459  0.329363  -0.002424  4.110657  -0.002
C  C27  1  0.25841516  0.05093947  0.22940453  1  0.36227  -0.02006  3.830916  -0.015  0.342671  -0.002103  4.121378  -0.001  0.360911  -0.001894  4.136638  -0.001  0.192525  0.329436  -0.002424  4.110659  -0.002
C  C28  1  0.24159726  0.55093629  0.72940665  1  0.362293  -0.020088  3.830673  -0.015  0.342729  -0.002104  4.121192  -0.001  0.360946  -0.001892  4.136435  -0.001  0.192556  0.329495  -0.002424  4.110475  -0.002
C  C29  1  0.74158943  0.94905821  0.77059499  1  0.362088  -0.020116  3.830748  -0.015  0.342522  -0.002102  4.121263  -0.001  0.360749  -0.001889  4.136517  -0.001  0.192424  0.329285  -0.002425  4.110532  -0.002
C  C30  1  0.86792080  0.38249739  0.17808243  1  -0.32972  0.038284  3.947003  0.039  -0.339122  0.001556  4.230321  0.003  -0.360622  0.000168  4.245289  0.002  -0.057459  -0.322361  0.004558  4.218313  0.006
C  C31  1  0.36793119  0.11751253  0.32191763  1  -0.329787  0.038233  3.947088  0.039  -0.339051  0.001535  4.230205  0.003  -0.360626  0.000141  4.245269  0.002  -0.057465  -0.322309  0.004554  4.218237  0.006
C  C32  1  0.13207393  0.61750443  0.82191619  1  -0.329702  0.038255  3.946993  0.039  -0.339138  0.001537  4.230347  0.003  -0.360643  0.000154  4.24532  0.002  -0.057453  -0.322381  0.004554  4.218345  0.006
C  C33  1  0.63206946  0.88249239  0.67808444  1  -0.329701  0.038234  3.947028  0.039  -0.339088  0.001541  4.230326  0.003  -0.360623  0.000145  4.245336  0.002  -0.05747  -0.322344  0.004554  4.218344  0.006
C  C34  1  0.08307928  0.44269116  0.12940027  1  0.607562  -0.006548  3.885755  -0.006  0.552659  -0.000905  4.189899  -0.001  0.587347  -0.000939  4.184041  -0.001  0.227143  0.528567  -0.000842  4.193038  -0.001
C  C35  1  0.58308873  0.05730904  0.37060182  1  0.607483  -0.006536  3.885772  -0.006  0.552587  -0.0009  4.18987  -0.001  0.587293  -0.000934  4.18402  -0.001  0.227164  0.528496  -0.000842  4.193021  -0.001
C  C36  1  0.91691743  0.55730756  0.87059790  1  0.60755  -0.006543  3.885755  -0.006  0.552639  -0.000901  4.189885  -0.001  0.587327  -0.000936  4.184026  -0.001  0.227169  0.528549  -0.000842  4.193024  -0.001
C  C37  1  0.41691389  0.94269277  0.62939981  1  0.607601  -0.006532  3.885644  -0.006  0.552677  -0.000901  4.189776  -0.001  0.587375  -0.000932  4.18392  -0.001  0.227192  0.528589  -0.000842  4.192926  -0.001
C  C38  1  0.35399555  0.64026991  0.13518470  1  -0.054471  0.00012  3.55346  0.0  -0.15294  0.000159  3.820382  0.0  -0.143917  8.6e-05  3.821049  0.0  -0.14443  -0.159063  0.000235  3.819874  0.0
C  C39  1  0.85400113  0.85973101  0.36481544  1  -0.054367  4.6e-05  3.553466  0.0  -0.152819  0.000159  3.820369  0.0  -0.143788  8.2e-05  3.821017  0.0  -0.144375  -0.158931  0.000235  3.819834  0.0
C  C40  1  0.64600116  0.35972881  0.86481422  1  -0.054338  8e-05  3.553372  0.0  -0.152808  0.000159  3.820269  0.0  -0.143784  8.5e-05  3.820937  0.0  -0.14438  -0.158928  0.000235  3.819751  0.0
C  C41  1  0.14599952  0.14026874  0.63518589  1  -0.054399  0.000102  3.553483  0.0  -0.152896  0.000159  3.820374  0.0  -0.14387  8.5e-05  3.821031  0.0  -0.144431  -0.159014  0.000235  3.819858  0.0
N  N42  1  0.67830717  0.15242302  0.08425332  1  -0.482295  0.067905  3.006367  0.082  -0.471381  0.039825  3.318571  0.053  -0.497694  0.033441  3.320092  0.047  -0.38227  -0.453816  0.043869  3.318556  0.056
N  N43  1  0.17831116  0.34757596  0.41574019  1  -0.482404  0.067888  3.006472  0.082  -0.471448  0.03983  3.318712  0.053  -0.497757  0.033443  3.320222  0.047  -0.382263  -0.453881  0.043868  3.318697  0.056
N  N44  1  0.32169545  0.84757155  0.91574726  1  -0.48227  0.067899  3.006475  0.082  -0.471353  0.03983  3.318672  0.053  -0.497667  0.033442  3.320198  0.047  -0.382241  -0.453788  0.043867  3.318656  0.056
N  N45  1  0.82168161  0.65242482  0.58425979  1  -0.482371  0.067905  3.006561  0.082  -0.471403  0.039826  3.318771  0.053  -0.49771  0.03344  3.320286  0.047  -0.382224  -0.453839  0.043866  3.31876  0.056
N  N46  1  0.67217267  0.50501505  0.34966272  1  -0.482081  0.022088  2.745491  0.028  -0.472214  -0.000107  3.011942  0.002  -0.487062  -0.000966  3.016045  0.001  -0.327491  -0.460931  0.001804  3.009359  0.004
N  N47  1  0.17217647  0.99498522  0.15034061  1  -0.482066  0.022084  2.745638  0.028  -0.472242  -0.000101  3.012093  0.002  -0.487093  -0.000959  3.016188  0.001  -0.327505  -0.460948  0.001802  3.0095  0.004
N  N48  1  0.32781812  0.49498470  0.65033561  1  -0.482188  0.022093  2.745396  0.028  -0.472324  -0.000101  3.011846  0.002  -0.487172  -0.000963  3.015945  0.001  -0.327587  -0.46104  0.001803  3.009265  0.004
N  N49  1  0.82783206  0.00501554  0.84966538  1  -0.481997  0.022126  2.745333  0.028  -0.472164  -0.000102  3.011771  0.002  -0.487014  -0.000962  3.015874  0.001  -0.32745  -0.460865  0.001803  3.009172  0.004
O  O50  1  0.19608623  0.38506730  0.04973490  1  -0.566597  0.005764  2.010447  0.008  -0.512915  0.000903  2.229129  0.002  -0.536113  0.00026  2.222133  0.001  -0.285092  -0.496241  0.001843  2.233614  0.003
O  O51  1  0.69609055  0.11493573  0.45027043  1  -0.566656  0.005771  2.010406  0.008  -0.512977  0.000906  2.229092  0.002  -0.53617  0.000267  2.222089  0.001  -0.285157  -0.4963  0.001843  2.233577  0.003
O  O52  1  0.80391441  0.61493348  0.95026432  1  -0.56661  0.005766  2.01045  0.008  -0.512917  0.000905  2.229126  0.002  -0.53611  0.000262  2.222128  0.001  -0.2851  -0.496246  0.001843  2.233612  0.003
O  O53  1  0.30391207  0.88506504  0.54973255  1  -0.566638  0.005761  2.010373  0.008  -0.512964  0.000904  2.229074  0.002  -0.536164  0.000263  2.222078  0.001  -0.285144  -0.496291  0.001843  2.233563  0.003
O  O54  1  0.14691870  0.56973730  0.18011256  1  -0.281307  0.002035  2.303213  0.003  -0.203929  0.000123  2.542502  0.0  -0.225171  -8.2e-05  2.541507  0.0  -0.168448  -0.188717  0.000695  2.542616  0.001
O  O55  1  0.64693413  0.93027131  0.31988750  1  -0.28122  0.002043  2.303396  0.003  -0.203927  0.000122  2.542728  0.0  -0.225166  -8.2e-05  2.541727  0.0  -0.168461  -0.188709  0.000694  2.542841  0.001
O  O56  1  0.85307013  0.43026246  0.81988352  1  -0.281387  0.002026  2.303159  0.003  -0.203956  0.000123  2.542404  0.0  -0.225197  -8.2e-05  2.541408  0.0  -0.168511  -0.188744  0.000694  2.542515  0.001
O  O57  1  0.35307243  0.06973360  0.68011382  1  -0.281323  0.002025  2.303291  0.003  -0.203908  0.000122  2.542549  0.0  -0.225147  -8.5e-05  2.54155  0.0  -0.168465  -0.18869  0.000694  2.542659  0.001
O  O58  1  0.72878948  0.86862699  0.05771338  1  -0.811294  0.067346  1.963141  0.09  -0.771704  0.055373  2.168523  0.085  -0.808217  0.040214  2.137565  0.067  -0.566422  -0.746912  0.065737  2.190976  0.094
O  O59  1  0.22878671  0.63137110  0.44228579  1  -0.811367  0.06734  1.963105  0.09  -0.771774  0.055373  2.168438  0.085  -0.808288  0.04021  2.137468  0.067  -0.566449  -0.746974  0.065736  2.190883  0.094
O  O60  1  0.27121117  0.13137069  0.94228615  1  -0.811336  0.067353  1.963155  0.09  -0.771753  0.055375  2.168545  0.085  -0.808271  0.040214  2.137588  0.067  -0.566438  -0.74697  0.065739  2.191023  0.094
O  O61  1  0.77121394  0.36862865  0.55771404  1  -0.811329  0.067359  1.963138  0.09  -0.771737  0.055374  2.168479  0.085  -0.808251  0.04021  2.137511  0.067  -0.56642  -0.746945  0.065737  2.190943  0.094
