# generated using pymatgen
data_LiH7C7N2O5
_symmetry_space_group_name_H-M   'P 1'
_cell_length_a   4.86267821
_cell_length_b   6.30590975
_cell_length_c   28.44658760
_cell_angle_alpha   89.99991789
_cell_angle_beta   89.99978074
_cell_angle_gamma   105.90436164
_symmetry_Int_Tables_number   1
_chemical_formula_structural   LiH7C7N2O5
_chemical_formula_sum   'Li4 H28 C28 N8 O20'
_cell_volume   838.88477054
_cell_formula_units_Z   4
loop_
 _symmetry_equiv_pos_site_id
 _symmetry_equiv_pos_as_xyz
  1  'x, y, z'
loop_
 _atom_site_type_symbol
 _atom_site_label
 _atom_site_symmetry_multiplicity
 _atom_site_fract_x
 _atom_site_fract_y
 _atom_site_fract_z
 _atom_site_occupancy
 _atom_site_hle17_bader_spin_density
 _atom_site_hle17_ddec_charge
 _atom_site_hle17_ddec_spin_density
 _atom_site_hle17_ddec_sum_bond_order
 _atom_site_hle17_magmom
 _atom_site_hse06_10hf_bader_spin_density
 _atom_site_hse06_10hf_ddec_charge
 _atom_site_hse06_10hf_ddec_spin_density
 _atom_site_hse06_10hf_ddec_sum_bond_order
 _atom_site_hse06_10hf_magmom
 _atom_site_hse06_bader_spin_density
 _atom_site_hse06_ddec_charge
 _atom_site_hse06_ddec_spin_density
 _atom_site_hse06_ddec_sum_bond_order
 _atom_site_hse06_magmom
 _atom_site_pbe_bader_spin_density
 _atom_site_pbe_cm5_charge
 _atom_site_pbe_ddec_charge
 _atom_site_pbe_ddec_spin_density
 _atom_site_pbe_ddec_sum_bond_order
 _atom_site_pbe_magmom
Li  Li0  1  0.11907041  0.50902826  0.75887192  1  0  0.849959  0  0.396264  0  0  0.811128  0  0.498243  0  0  0.820319  0  0.481992  0  0  0.502664  0.804348  0  0.510061  0
Li  Li1  1  0.88092444  0.99097141  0.25887102  1  0  0.849918  0  0.396301  0  0  0.811109  0  0.498263  0  0  0.820294  0  0.48201  0  0  0.502655  0.80433  0  0.51008  0
Li  Li2  1  0.88092469  0.49096948  0.24112802  1  0  0.849912  0  0.396307  0  0  0.811105  0  0.498266  0  0  0.820287  0  0.482017  0  0  0.502658  0.804327  0  0.510085  0
Li  Li3  1  0.11906803  0.00902468  0.74112892  1  0  0.849926  0  0.396314  0  0  0.811086  0  0.498319  0  0  0.820283  0  0.482062  0  0  0.502649  0.804306  0  0.510139  0
H  H4  1  0.51529274  0.82601401  0.51696610  1  0  0.105856  0  0.946095  0  0  0.117186  0  1.005353  0  0  0.120916  0  1.004059  0  0  0.103984  0.114551  0  1.006551  0
H  H5  1  0.48471143  0.67398525  0.01696451  1  0  0.105794  0  0.946112  0  0  0.117146  0  1.005355  0  0  0.120877  0  1.00406  0  0  0.10397  0.114509  0  1.006555  0
H  H6  1  0.48470469  0.17399033  0.48303490  1  0  0.105848  0  0.946103  0  0  0.117179  0  1.005355  0  0  0.12091  0  1.00406  0  0  0.103988  0.114544  0  1.006554  0
H  H7  1  0.51531096  0.32602572  0.98303438  1  0  0.105806  0  0.946109  0  0  0.117188  0  1.00532  0  0  0.120919  0  1.004024  0  0  0.103999  0.114551  0  1.006521  0
H  H8  1  0.78842470  0.54857191  0.51665705  1  0  0.111244  0  0.975364  0  0  0.114452  0  1.047284  0  0  0.117745  0  1.043809  0  0  0.107753  0.112205  0  1.049499  0
H  H9  1  0.21157008  0.95142404  0.01665731  1  0  0.11124  0  0.975364  0  0  0.114448  0  1.047284  0  0  0.117743  0  1.043805  0  0  0.10777  0.112201  0  1.049501  0
H  H10  1  0.21156950  0.45142913  0.48334289  1  0  0.111248  0  0.975371  0  0  0.114463  0  1.047288  0  0  0.117759  0  1.043812  0  0  0.107768  0.112217  0  1.049504  0
H  H11  1  0.78844761  0.04858528  0.98334193  1  0  0.111334  0  0.97543  0  0  0.114512  0  1.047359  0  0  0.117808  0  1.043884  0  0  0.107781  0.112268  0  1.049569  0
H  H12  1  0.68256508  0.48183065  0.66736094  1  0  0.113015  0  0.960297  0  0  0.120178  0  1.026382  0  0  0.12459  0  1.020742  0  0  0.125213  0.116994  0  1.030323  0
H  H13  1  0.31743808  0.01817100  0.16736091  1  0  0.113022  0  0.960279  0  0  0.120168  0  1.026373  0  0  0.124582  0  1.020732  0  0  0.125229  0.116989  0  1.030305  0
H  H14  1  0.31742855  0.51816874  0.33263865  1  0  0.112971  0  0.960184  0  0  0.120103  0  1.026314  0  0  0.124518  0  1.020672  0  0  0.125202  0.116923  0  1.030257  0
H  H15  1  0.68256409  0.98182346  0.83263903  1  0  0.112976  0  0.960196  0  0  0.120131  0  1.026293  0  0  0.124545  0  1.020655  0  0  0.125209  0.116948  0  1.030237  0
H  H16  1  0.22997354  0.01102938  0.62333796  1  0  0.344832  0  0.916927  0  0  0.318279  0  0.993953  0  0  0.327623  0  0.985535  0  0  0.302846  0.311763  0  0.999714  0
H  H17  1  0.77002021  0.48896618  0.12333783  1  0  0.344801  0  0.916941  0  0  0.318242  0  0.993994  0  0  0.327583  0  0.98558  0  0  0.30282  0.311727  0  0.999752  0
H  H18  1  0.77001802  0.98897001  0.37666234  1  0  0.344846  0  0.91693  0  0  0.318297  0  0.993962  0  0  0.327637  0  0.985549  0  0  0.302839  0.31178  0  0.999722  0
H  H19  1  0.22997932  0.51102662  0.87666211  1  0  0.344802  0  0.916944  0  0  0.318253  0  0.993981  0  0  0.327594  0  0.98557  0  0  0.30283  0.311736  0  0.99974  0
H  H20  1  0.24321079  0.03049378  0.56198050  1  0  0.325889  0  0.890672  0  0  0.308962  0  0.953695  0  0  0.316102  0  0.948486  0  0  0.307499  0.303995  0  0.957347  0
H  H21  1  0.75678928  0.46950417  0.06198004  1  0  0.325894  0  0.890625  0  0  0.30898  0  0.953654  0  0  0.316121  0  0.948442  0  0  0.307477  0.304013  0  0.957308  0
H  H22  1  0.75678959  0.96950727  0.43802014  1  0  0.325894  0  0.890639  0  0  0.308973  0  0.953674  0  0  0.316113  0  0.948464  0  0  0.30748  0.304005  0  0.957327  0
H  H23  1  0.24321875  0.53049524  0.93801920  1  0  0.32589  0  0.890683  0  0  0.308955  0  0.953726  0  0  0.316095  0  0.948518  0  0  0.307489  0.303989  0  0.95738  0
H  H24  1  0.69965770  0.19088186  0.74517101  1  0  0.448225  0  0.849992  0  0  0.416382  0  0.915116  0  0  0.426933  0  0.899621  0  0  0.314628  0.408928  0  0.926064  0
H  H25  1  0.30034108  0.30911227  0.24516985  1  0  0.448257  0  0.84995  0  0  0.416418  0  0.915065  0  0  0.426968  0  0.899571  0  0  0.314631  0.408965  0  0.926012  0
H  H26  1  0.30033830  0.80911259  0.25482823  1  0  0.448275  0  0.849918  0  0  0.41644  0  0.915045  0  0  0.426991  0  0.899548  0  0  0.314655  0.408986  0  0.925993  0
H  H27  1  0.69965344  0.69088383  0.75482974  1  0  0.448212  0  0.850002  0  0  0.41637  0  0.915122  0  0  0.42692  0  0.899628  0  0  0.314622  0.408916  0  0.92607  0
H  H28  1  0.85591452  0.23075598  0.69468124  1  0  0.440425  0  0.848715  0  0  0.41155  0  0.908984  0  0  0.421192  0  0.89449  0  0  0.317443  0.404738  0  0.919242  0
H  H29  1  0.14408469  0.26924204  0.19468020  1  0  0.440439  0  0.848705  0  0  0.411537  0  0.909009  0  0  0.421177  0  0.894519  0  0  0.317433  0.404727  0  0.919263  0
H  H30  1  0.14408058  0.76924176  0.30531835  1  0  0.440452  0  0.848678  0  0  0.411584  0  0.908934  0  0  0.421224  0  0.894446  0  0  0.317465  0.40477  0  0.919194  0
H  H31  1  0.85591041  0.73075570  0.80531939  1  0  0.440456  0  0.84868  0  0  0.411554  0  0.908986  0  0  0.421195  0  0.894494  0  0  0.317429  0.404741  0  0.919245  0
C  C32  1  0.50378629  0.71783064  0.63568194  1  0  -0.189207  0  3.680072  0  0  -0.169653  0  3.924498  0  0  -0.187881  0  3.947962  0  0  -0.021337  -0.157645  0  3.908639  0
C  C33  1  0.49621064  0.78216720  0.13567995  1  0  -0.189152  0  3.680004  0  0  -0.169605  0  3.92442  0  0  -0.187831  0  3.947883  0  0  -0.021299  -0.15759  0  3.908549  0
C  C34  1  0.49620734  0.28216875  0.36431906  1  0  -0.189117  0  3.680034  0  0  -0.169567  0  3.924428  0  0  -0.187796  0  3.947898  0  0  -0.021263  -0.157554  0  3.908565  0
C  C35  1  0.50379269  0.21783056  0.86431858  1  0  -0.189182  0  3.680053  0  0  -0.16961  0  3.924472  0  0  -0.187836  0  3.947941  0  0  -0.02127  -0.157597  0  3.908604  0
C  C36  1  0.45105932  0.81857799  0.59244406  1  0  0.362201  0  3.77977  0  0  0.339679  0  4.039032  0  0  0.35869  0  4.056609  0  0  0.132926  0.327055  0  4.026775  0
C  C37  1  0.54894197  0.68142367  0.09244384  1  0  0.362141  0  3.77984  0  0  0.339621  0  4.039112  0  0  0.358631  0  4.056691  0  0  0.132881  0.327  0  4.026853  0
C  C38  1  0.54893811  0.18142635  0.40755588  1  0  0.362148  0  3.779887  0  0  0.339612  0  4.039181  0  0  0.358621  0  4.056761  0  0  0.132908  0.326989  0  4.026922  0
C  C39  1  0.45106723  0.31857904  0.90755575  1  0  0.362136  0  3.779856  0  0  0.339538  0  4.039243  0  0  0.358548  0  4.056823  0  0  0.132878  0.326916  0  4.026984  0
C  C40  1  0.55713068  0.75132970  0.54981503  1  0  -0.176706  0  3.693064  0  0  -0.196136  0  3.954632  0  0  -0.208217  0  3.974441  0  0  -0.098189  -0.187962  0  3.941308  0
C  C41  1  0.44287553  0.74867741  0.04981625  1  0  -0.176616  0  3.693035  0  0  -0.196069  0  3.954613  0  0  -0.208146  0  3.974416  0  0  -0.098164  -0.187895  0  3.941292  0
C  C42  1  0.44287144  0.24867630  0.45018492  1  0  -0.176736  0  3.693216  0  0  -0.196159  0  3.954777  0  0  -0.208239  0  3.974592  0  0  -0.098228  -0.187985  0  3.941456  0
C  C43  1  0.55714042  0.25132696  0.95018369  1  0  -0.176608  0  3.693227  0  0  -0.196062  0  3.954833  0  0  -0.208142  0  3.974643  0  0  -0.098187  -0.187887  0  3.941511  0
C  C44  1  0.70599985  0.59542331  0.54943183  1  0  -0.061463  0  3.743861  0  0  -0.0897  0  4.006935  0  0  -0.081514  0  4.022902  0  0  -0.079586  -0.095024  0  3.995642  0
C  C45  1  0.29399846  0.90457885  0.04943170  1  0  -0.061513  0  3.743907  0  0  -0.089754  0  4.00698  0  0  -0.081571  0  4.022945  0  0  -0.07963  -0.095078  0  3.995694  0
C  C46  1  0.29400022  0.40458268  0.45056812  1  0  -0.061451  0  3.743949  0  0  -0.089647  0  4.007049  0  0  -0.081465  0  4.02301  0  0  -0.079537  -0.094971  0  3.99576  0
C  C47  1  0.70601749  0.09542552  0.95056860  1  0  -0.061611  0  3.744153  0  0  -0.089844  0  4.007246  0  0  -0.08167  0  4.023222  0  0  -0.079614  -0.095165  0  3.995953  0
C  C48  1  0.75278361  0.49652896  0.59211322  1  0  0.031112  0  3.762171  0  0  0.010738  0  4.028486  0  0  -0.000119  0  4.052095  0  0  0.06117  0.018222  0  4.012767  0
C  C49  1  0.24722036  0.00347029  0.09211255  1  0  0.031052  0  3.762247  0  0  0.0107  0  4.028526  0  0  -0.00015  0  4.052131  0  0  0.061103  0.018183  0  4.012808  0
C  C50  1  0.24721794  0.50347539  0.40788637  1  0  0.031203  0  3.762078  0  0  0.010657  0  4.028555  0  0  -0.000189  0  4.052156  0  0  0.061129  0.018139  0  4.012844  0
C  C51  1  0.75278767  0.99652912  0.90788704  1  0  0.031188  0  3.762131  0  0  0.01084  0  4.02836  0  0  -8e-06  0  4.051965  0  0  0.061165  0.018321  0  4.012648  0
C  C52  1  0.65160705  0.55903528  0.63440584  1  0  -0.040502  0  3.708005  0  0  -0.083729  0  3.972803  0  0  -0.072276  0  3.985596  0  0  -0.060412  -0.091021  0  3.963865  0
C  C53  1  0.34839314  0.94096587  0.13440566  1  0  -0.040447  0  3.707986  0  0  -0.083656  0  3.972769  0  0  -0.07221  0  3.985559  0  0  -0.060384  -0.090947  0  3.96383  0
C  C54  1  0.34839127  0.44096577  0.36559586  1  0  -0.040471  0  3.707921  0  0  -0.083609  0  3.972756  0  0  -0.072164  0  3.985544  0  0  -0.060427  -0.090907  0  3.963826  0
C  C55  1  0.65160814  0.05903188  0.86559569  1  0  -0.040472  0  3.707875  0  0  -0.083701  0  3.972681  0  0  -0.072257  0  3.985474  0  0  -0.060444  -0.090996  0  3.963744  0
C  C56  1  0.39390760  0.77021273  0.68212936  1  0  0.699856  0  3.893198  0  0  0.648198  0  4.189953  0  0  0.682756  0  4.181221  0  0  0.228711  0.624885  0  4.19516  0
C  C57  1  0.60608605  0.72978455  0.18212908  1  0  0.69986  0  3.89315  0  0  0.648205  0  4.189901  0  0  0.682763  0  4.18117  0  0  0.228742  0.62489  0  4.195108  0
C  C58  1  0.60608280  0.22978335  0.31787058  1  0  0.699808  0  3.893223  0  0  0.648169  0  4.189951  0  0  0.682726  0  4.181217  0  0  0.228698  0.624856  0  4.195159  0
C  C59  1  0.39390789  0.27020990  0.81787121  1  0  0.699854  0  3.893184  0  0  0.648236  0  4.189889  0  0  0.682788  0  4.181163  0  0  0.228738  0.624923  0  4.195094  0
N  N60  1  0.30597033  0.97023179  0.59196283  1  0  -0.609527  0  3.181128  0  0  -0.583944  0  3.434775  0  0  -0.609179  0  3.436778  0  0  -0.559087  -0.56611  0  3.433267  0
N  N61  1  0.69402744  0.52977151  0.09196256  1  0  -0.609487  0  3.181109  0  0  -0.583937  0  3.434702  0  0  -0.609171  0  3.436715  0  0  -0.559035  -0.566098  0  3.433188  0
N  N62  1  0.69402710  0.02977255  0.40803711  1  0  -0.609521  0  3.181195  0  0  -0.583959  0  3.434814  0  0  -0.609193  0  3.436828  0  0  -0.559062  -0.566123  0  3.433305  0
N  N63  1  0.30597705  0.47022954  0.90803703  1  0  -0.60944  0  3.181159  0  0  -0.583838  0  3.434817  0  0  -0.609073  0  3.436835  0  0  -0.559032  -0.566003  0  3.433308  0
N  N64  1  0.89770836  0.32956312  0.59190896  1  0  0.471436  0  3.949429  0  0  0.522418  0  4.210224  0  0  0.544873  0  4.221424  0  0  0.035493  0.506935  0  4.20355  0
N  N65  1  0.10229209  0.17043777  0.09190868  1  0  0.471224  0  3.949188  0  0  0.52219  0  4.209998  0  0  0.54464  0  4.221199  0  0  0.035435  0.506715  0  4.203318  0
N  N66  1  0.10228849  0.67043957  0.40809169  1  0  0.471341  0  3.949133  0  0  0.52243  0  4.209856  0  0  0.544881  0  4.221053  0  0  0.035521  0.506945  0  4.203188  0
N  N67  1  0.89771241  0.82956328  0.90809162  1  0  0.471239  0  3.949215  0  0  0.522298  0  4.209886  0  0  0.544748  0  4.221087  0  0  0.035481  0.506815  0  4.203214  0
O  O68  1  0.42422954  0.65299968  0.71760815  1  0  -0.755524  0  1.994954  0  0  -0.701186  0  2.231215  0  0  -0.724116  0  2.216487  0  0  -0.388083  -0.684989  0  2.240896  0
O  O69  1  0.57576434  0.84700048  0.21760785  1  0  -0.755462  0  1.994941  0  0  -0.701123  0  2.23119  0  0  -0.724055  0  2.21647  0  0  -0.388064  -0.684926  0  2.24087  0
O  O70  1  0.57576409  0.34699971  0.28239180  1  0  -0.755511  0  1.994972  0  0  -0.701174  0  2.231192  0  0  -0.724104  0  2.216469  0  0  -0.388094  -0.684982  0  2.240876  0
O  O71  1  0.42422638  0.15299067  0.78239210  1  0  -0.755528  0  1.994926  0  0  -0.701191  0  2.231148  0  0  -0.724125  0  2.216429  0  0  -0.388077  -0.684996  0  2.240831  0
O  O72  1  0.27090212  0.92393793  0.68434933  1  0  -0.691045  0  1.933611  0  0  -0.63874  0  2.160817  0  0  -0.661098  0  2.149534  0  0  -0.377384  -0.6231  0  2.168096  0
O  O73  1  0.72908825  0.57605602  0.18434902  1  0  -0.691062  0  1.9336  0  0  -0.638757  0  2.160795  0  0  -0.661108  0  2.149509  0  0  -0.377421  -0.623119  0  2.168074  0
O  O74  1  0.72908269  0.07605979  0.31565061  1  0  -0.691047  0  1.933666  0  0  -0.638733  0  2.160835  0  0  -0.661084  0  2.14955  0  0  -0.377382  -0.623097  0  2.168114  0
O  O75  1  0.27091275  0.42393514  0.81565093  1  0  -0.691056  0  1.933625  0  0  -0.638766  0  2.160817  0  0  -0.661117  0  2.149535  0  0  -0.377443  -0.623129  0  2.168095  0
O  O76  1  0.88885917  0.22499955  0.72871484  1  0  -0.943888  0  1.772965  0  0  -0.89939  0  1.947977  0  0  -0.914523  0  1.914668  0  0  -0.659399  -0.888723  0  1.971388  0
O  O77  1  0.11113915  0.27499807  0.22871347  1  0  -0.943936  0  1.772975  0  0  -0.899436  0  1.948045  0  0  -0.914559  0  1.914737  0  0  -0.659398  -0.888773  0  1.971455  0
O  O78  1  0.11113388  0.77499819  0.27128510  1  0  -0.943963  0  1.772898  0  0  -0.899507  0  1.947886  0  0  -0.914634  0  1.914572  0  0  -0.659449  -0.888846  0  1.971303  0
O  O79  1  0.88885478  0.72499638  0.77128612  1  0  -0.943913  0  1.77296  0  0  -0.899381  0  1.948018  0  0  -0.914513  0  1.914713  0  0  -0.659387  -0.888716  0  1.971431  0
O  O80  1  0.94476909  0.24432474  0.63014026  1  0  -0.420541  0  1.814397  0  0  -0.388346  0  2.015922  0  0  -0.402098  0  2.012621  0  0  -0.139666  -0.379753  0  2.01913  0
O  O81  1  0.05523209  0.25568064  0.13014033  1  0  -0.420484  0  1.81435  0  0  -0.388285  0  2.015893  0  0  -0.402031  0  2.012587  0  0  -0.139677  -0.379712  0  2.019115  0
O  O82  1  0.05521895  0.75567628  0.36985969  1  0  -0.420649  0  1.814265  0  0  -0.388473  0  2.015757  0  0  -0.402224  0  2.012452  0  0  -0.139795  -0.379874  0  2.018962  0
O  O83  1  0.94477652  0.74432042  0.86985961  1  0  -0.420597  0  1.814274  0  0  -0.388455  0  2.01578  0  0  -0.402196  0  2.012457  0  0  -0.139798  -0.379859  0  2.018989  0
O  O84  1  0.97601982  0.26872021  0.55320764  1  0  -0.415619  0  1.764698  0  0  -0.388299  0  1.9636  0  0  -0.400698  0  1.96088  0  0  -0.15717  -0.380264  0  1.966197  0
O  O85  1  0.02397373  0.23127619  0.05320739  1  0  -0.415476  0  1.764531  0  0  -0.38813  0  1.963427  0  0  -0.400535  0  1.960725  0  0  -0.157072  -0.380095  0  1.966021  0
O  O86  1  0.02397703  0.73128248  0.44679301  1  0  -0.415499  0  1.764649  0  0  -0.388204  0  1.963546  0  0  -0.400595  0  1.960814  0  0  -0.157073  -0.38017  0  1.966147  0
O  O87  1  0.97603019  0.76872322  0.94679255  1  0  -0.415427  0  1.764627  0  0  -0.388128  0  1.96352  0  0  -0.400517  0  1.960779  0  0  -0.157038  -0.380096  0  1.96612  0
