# generated using pymatgen
data_Eu2H40C52O19
_symmetry_space_group_name_H-M   'P 1'
_cell_length_a   7.08339527
_cell_length_b   14.46566107
_cell_length_c   16.90838225
_cell_angle_alpha   104.34853610
_cell_angle_beta   102.09118356
_cell_angle_gamma   90.00021060
_symmetry_Int_Tables_number   1
_chemical_formula_structural   Eu2H40C52O19
_chemical_formula_sum   'Eu2 H40 C52 O19'
_cell_volume   1638.78696176
_cell_formula_units_Z   1
loop_
 _symmetry_equiv_pos_site_id
 _symmetry_equiv_pos_as_xyz
  1  'x, y, z'
loop_
 _atom_site_type_symbol
 _atom_site_label
 _atom_site_symmetry_multiplicity
 _atom_site_fract_x
 _atom_site_fract_y
 _atom_site_fract_z
 _atom_site_occupancy
 _atom_site_hle17_bader_spin_density
 _atom_site_hle17_ddec_charge
 _atom_site_hle17_ddec_spin_density
 _atom_site_hle17_ddec_sum_bond_order
 _atom_site_hle17_magmom
 _atom_site_hse06_10hf_bader_spin_density
 _atom_site_hse06_10hf_ddec_charge
 _atom_site_hse06_10hf_ddec_spin_density
 _atom_site_hse06_10hf_ddec_sum_bond_order
 _atom_site_hse06_10hf_magmom
 _atom_site_hse06_bader_spin_density
 _atom_site_hse06_ddec_charge
 _atom_site_hse06_ddec_spin_density
 _atom_site_hse06_ddec_sum_bond_order
 _atom_site_hse06_magmom
 _atom_site_pbe_bader_spin_density
 _atom_site_pbe_cm5_charge
 _atom_site_pbe_ddec_charge
 _atom_site_pbe_ddec_spin_density
 _atom_site_pbe_ddec_sum_bond_order
 _atom_site_pbe_magmom
C  C0  1  0.02147366  0.58891288  0.89465048  1  0  0.026094  0  3.595646  0  0  0.041225  0  3.842644  0  0  0.03821  0  3.860041  0  0  -0.02168  0.043616  0  3.82976  0
C  C1  1  0.12681210  0.41107941  0.10535290  1  0  0.025805  0  3.596344  0  0  0.040607  0  3.844248  0  0  0.03764  0  3.86158  0  0  -0.021924  0.042911  0  3.831598  0
C  C2  1  0.16239083  0.52821890  0.93925712  1  0  0.042348  0  3.637177  0  0  -0.022091  0  3.9084  0  0  -0.015355  0  3.915131  0  0  -0.068637  -0.026624  0  3.903834  0
C  C3  1  0.22312240  0.47177477  0.06074795  1  0  0.041919  0  3.638861  0  0  -0.022855  0  3.911097  0  0  -0.016164  0  3.917796  0  0  -0.069272  -0.027327  0  3.906533  0
C  C4  1  0.83223263  0.53091992  0.84840099  1  0  0.05429  0  3.604567  0  0  -0.011685  0  3.873361  0  0  -0.00381  0  3.879157  0  0  -0.060399  -0.017032  0  3.869356  0
C  C5  1  0.98382614  0.46907695  0.15160110  1  0  0.055393  0  3.60427  0  0  -0.011991  0  3.875045  0  0  -0.004049  0  3.8808  0  0  -0.06079  -0.017386  0  3.871096  0
C  C6  1  0.12515237  0.62140495  0.83473486  1  0  0.047964  0  3.609645  0  0  -0.019011  0  3.881223  0  0  -0.011178  0  3.88685  0  0  -0.062966  -0.024333  0  3.877404  0
C  C7  1  0.29041900  0.37859307  0.16526840  1  0  0.047364  0  3.611885  0  0  -0.019255  0  3.88272  0  0  -0.011263  0  3.888293  0  0  -0.062881  -0.024669  0  3.878894  0
C  C8  1  0.96576534  0.67386664  0.95845838  1  0  0.050709  0  3.603294  0  0  -0.017559  0  3.875541  0  0  -0.00961  0  3.880659  0  0  -0.062513  -0.022956  0  3.872023  0
C  C9  1  0.00728667  0.32612543  0.04154651  1  0  0.050852  0  3.603048  0  0  -0.016679  0  3.873706  0  0  -0.008791  0  3.879042  0  0  -0.061824  -0.022001  0  3.870026  0
C  C10  1  0.08147577  0.72153761  0.74078264  1  0  0.29207  0  3.802159  0  0  0.282562  0  4.060158  0  0  0.29634  0  4.076148  0  0  0.090241  0.273244  0  4.04921  0
C  C11  1  0.34071249  0.27846181  0.25922064  1  0  0.292467  0  3.802278  0  0  0.281987  0  4.061161  0  0  0.295888  0  4.077137  0  0  0.090456  0.27261  0  4.050229  0
C  C12  1  0.26365187  0.70022593  0.72261229  1  0  -0.226245  0  3.799297  0  0  -0.244219  0  4.050355  0  0  -0.253343  0  4.071723  0  0  -0.116086  -0.238293  0  4.03593  0
C  C13  1  0.54105106  0.29979662  0.27740302  1  0  -0.225427  0  3.79998  0  0  -0.243319  0  4.051384  0  0  -0.252407  0  4.072736  0  0  -0.116098  -0.237398  0  4.036969  0
C  C14  1  0.33407505  0.74674028  0.67118058  1  0  -0.027833  0  3.756896  0  0  -0.051907  0  4.001046  0  0  -0.047454  0  4.019855  0  0  -0.077197  -0.05441  0  3.987788  0
C  C15  1  0.66291878  0.25328322  0.32883258  1  0  -0.026533  0  3.75668  0  0  -0.050595  0  4.000894  0  0  -0.046112  0  4.019723  0  0  -0.076556  -0.053115  0  3.987632  0
C  C16  1  0.22587311  0.81451923  0.63775917  1  0  -0.097939  0  3.772547  0  0  -0.077422  0  4.007326  0  0  -0.089583  0  4.030843  0  0  -0.025903  -0.069178  0  3.990411  0
C  C17  1  0.58814551  0.18548867  0.36224111  1  0  -0.097466  0  3.774822  0  0  -0.076943  0  4.009228  0  0  -0.089144  0  4.032957  0  0  -0.02601  -0.068698  0  3.992248  0
C  C18  1  0.04235527  0.83411741  0.65516039  1  0  -0.014197  0  3.694321  0  0  -0.039297  0  3.943116  0  0  -0.03474  0  3.961489  0  0  -0.067176  -0.041833  0  3.929909  0
C  C19  1  0.38722870  0.16587956  0.34483914  1  0  -0.014146  0  3.696126  0  0  -0.039348  0  3.945095  0  0  -0.034803  0  3.9635  0  0  -0.067057  -0.041884  0  3.931892  0
C  C20  1  0.96995086  0.78781129  0.70609555  1  0  -0.186339  0  3.732935  0  0  -0.207701  0  3.986367  0  0  -0.215643  0  4.005084  0  0  -0.099279  -0.202549  0  3.973795  0
C  C21  1  0.26388172  0.21218163  0.29390420  1  0  -0.187481  0  3.733227  0  0  -0.208401  0  3.987218  0  0  -0.216304  0  4.005818  0  0  -0.099924  -0.203314  0  3.974686  0
C  C22  1  0.11511403  0.77851526  0.08968193  1  0  0.293066  0  3.802257  0  0  0.282888  0  4.060711  0  0  0.297062  0  4.075903  0  0  0.08781  0.273308  0  4.050348  0
C  C23  1  0.02541164  0.22147927  0.91032206  1  0  0.292251  0  3.800284  0  0  0.281355  0  4.059665  0  0  0.295565  0  4.074853  0  0  0.086604  0.271791  0  4.049293  0
C  C24  1  0.28379034  0.80580862  0.15241727  1  0  -0.19684  0  3.751828  0  0  -0.218085  0  4.007719  0  0  -0.226267  0  4.026821  0  0  -0.106337  -0.212812  0  3.994818  0
C  C25  1  0.13135156  0.19420168  0.84758540  1  0  -0.19646  0  3.750365  0  0  -0.217542  0  4.005836  0  0  -0.225752  0  4.024909  0  0  -0.10598  -0.212209  0  3.992976  0
C  C26  1  0.27193931  0.86066869  0.23101861  1  0  -0.02013  0  3.716281  0  0  -0.046571  0  3.967116  0  0  -0.041956  0  3.985497  0  0  -0.071993  -0.049176  0  3.954004  0
C  C27  1  0.04090269  0.13933801  0.76898387  1  0  -0.021343  0  3.716954  0  0  -0.046717  0  3.967198  0  0  -0.042086  0  3.985583  0  0  -0.072116  -0.04933  0  3.954082  0
C  C28  1  0.09206196  0.88912943  0.24813943  1  0  -0.094717  0  3.768758  0  0  -0.074098  0  4.004815  0  0  -0.086276  0  4.02929  0  0  -0.025111  -0.065917  0  3.987398  0
C  C29  1  0.84391254  0.11086500  0.75186415  1  0  -0.096615  0  3.76904  0  0  -0.076299  0  4.004996  0  0  -0.088496  0  4.029464  0  0  -0.026195  -0.068104  0  3.987599  0
C  C30  1  0.92545122  0.86419876  0.18419463  1  0  -0.026459  0  3.748508  0  0  -0.050929  0  3.995624  0  0  -0.046487  0  4.014539  0  0  -0.077235  -0.053382  0  3.98224  0
C  C31  1  0.74124430  0.13578631  0.81580777  1  0  -0.026188  0  3.747812  0  0  -0.050453  0  3.994616  0  0  -0.046074  0  4.013527  0  0  -0.077208  -0.052885  0  3.981221  0
C  C32  1  0.93538191  0.80951632  0.10512103  1  0  -0.225296  0  3.792964  0  0  -0.244208  0  4.044826  0  0  -0.253039  0  4.065785  0  0  -0.116573  -0.238452  0  4.030676  0
C  C33  1  0.83024539  0.19046907  0.89488217  1  0  -0.225247  0  3.794581  0  0  -0.243991  0  4.046679  0  0  -0.252868  0  4.067626  0  0  -0.116332  -0.238238  0  4.032557  0
C  C34  1  0.07006638  0.94006571  0.33278651  1  0  0.686765  0  3.887275  0  0  0.642458  0  4.177966  0  0  0.677632  0  4.175144  0  0  0.214372  0.618391  0  4.183645  0
C  C35  1  0.73726538  0.05993146  0.66721497  1  0  0.686528  0  3.888161  0  0  0.642355  0  4.178697  0  0  0.677547  0  4.175827  0  0  0.214603  0.61827  0  4.184433  0
C  C36  1  0.72170331  0.39240265  0.73634229  1  0  0.293062  0  3.796326  0  0  0.282511  0  4.053662  0  0  0.296235  0  4.069546  0  0  0.090395  0.273205  0  4.042779  0
C  C37  1  0.98536417  0.60759679  0.26365460  1  0  0.29039  0  3.799161  0  0  0.280105  0  4.056186  0  0  0.293814  0  4.072107  0  0  0.089537  0.270853  0  4.045254  0
C  C38  1  0.53793118  0.39201241  0.75540355  1  0  -0.229901  0  3.806578  0  0  -0.247721  0  4.059824  0  0  -0.256532  0  4.081077  0  0  -0.118855  -0.24195  0  4.045454  0
C  C39  1  0.78253103  0.60799630  0.24458829  1  0  -0.230195  0  3.805472  0  0  -0.248393  0  4.058977  0  0  -0.257201  0  4.080225  0  0  -0.119388  -0.242632  0  4.044603  0
C  C40  1  0.39644649  0.32272852  0.70614761  1  0  -0.034514  0  3.758721  0  0  -0.057954  0  4.004253  0  0  -0.054083  0  4.023274  0  0  -0.080464  -0.060041  0  3.990829  0
C  C41  1  0.69031121  0.67728609  0.29384382  1  0  -0.033942  0  3.755854  0  0  -0.057418  0  4.001384  0  0  -0.053535  0  4.020404  0  0  -0.080714  -0.059502  0  3.98796  0
C  C42  1  0.43483655  0.25448879  0.63748407  1  0  -0.092657  0  3.766381  0  0  -0.071675  0  4.000191  0  0  -0.083033  0  4.023455  0  0  -0.024403  -0.063984  0  3.98356  0
C  C43  1  0.79736643  0.74551828  0.36251198  1  0  -0.093948  0  3.767005  0  0  -0.07348  0  4.000989  0  0  -0.084826  0  4.024199  0  0  -0.024878  -0.06577  0  3.984352  0
C  C44  1  0.61842024  0.25689098  0.61857392  1  0  -0.01874  0  3.710625  0  0  -0.044429  0  3.961595  0  0  -0.040665  0  3.981091  0  0  -0.068586  -0.046563  0  3.947958  0
C  C45  1  0.99986080  0.74310853  0.38142594  1  0  -0.018624  0  3.710963  0  0  -0.044323  0  3.962049  0  0  -0.04059  0  3.981612  0  0  -0.068661  -0.046449  0  3.948374  0
C  C46  1  0.76165022  0.32452316  0.66753130  1  0  -0.177193  0  3.711353  0  0  -0.199032  0  3.96667  0  0  -0.206319  0  3.984693  0  0  -0.094901  -0.194264  0  3.954371  0
C  C47  1  0.09412414  0.67547253  0.33246964  1  0  -0.174554  0  3.709761  0  0  -0.195774  0  3.964721  0  0  -0.203073  0  3.982705  0  0  -0.094304  -0.191001  0  3.95245  0
C  C48  1  0.28529838  0.17941574  0.58811355  1  0  0.697061  0  3.864982  0  0  0.65242  0  4.152886  0  0  0.688111  0  4.149194  0  0  0.216417  0.62779  0  4.159908  0
C  C49  1  0.69719816  0.82059046  0.41188266  1  0  0.695714  0  3.867265  0  0  0.652404  0  4.153254  0  0  0.688097  0  4.149511  0  0  0.215887  0.627762  0  4.160339  0
C  C50  1  0.30956401  0.86361098  0.58553418  1  0  0.6991  0  3.860873  0  0  0.655137  0  4.149705  0  0  0.690902  0  4.14514  0  0  0.211873  0.630589  0  4.156597  0
C  C51  1  0.72406044  0.13638886  0.41445898  1  0  0.697694  0  3.862407  0  0  0.654225  0  4.150418  0  0  0.689892  0  4.146132  0  0  0.212079  0.629726  0  4.157157  0
Eu  Eu52  1  0.99750435  0.03001754  0.49721121  1  0  2.258532  0  1.708017  0  0  2.123944  0  2.163719  0  0  2.238202  0  2.001691  0  0  1.540472  2.086601  0  2.197365  0
Eu  Eu53  1  0.50029448  0.96997954  0.50278779  1  0  2.258673  0  1.709002  0  0  2.124635  0  2.164067  0  0  2.238422  0  2.002851  0  0  1.540454  2.087785  0  2.196902  0
H  H54  1  0.19404709  0.46421428  0.89351802  1  0  0.058552  0  0.916314  0  0  0.071666  0  0.979096  0  0  0.072543  0  0.978113  0  0  0.09993  0.070937  0  0.979934  0
H  H55  1  0.30050718  0.53578232  0.10648725  1  0  0.058017  0  0.917612  0  0  0.070937  0  0.980764  0  0  0.071813  0  0.979796  0  0  0.099517  0.07018  0  0.981615  0
H  H56  1  0.29835755  0.57145272  0.97010518  1  0  0.050048  0  0.933342  0  0  0.060134  0  1.001727  0  0  0.06119  0  1.00017  0  0  0.097935  0.059277  0  1.002959  0
H  H57  1  0.32825247  0.42854723  0.02990659  1  0  0.050602  0  0.932848  0  0  0.060569  0  1.001459  0  0  0.061713  0  0.99981  0  0  0.098264  0.059676  0  1.002715  0
H  H58  1  0.77428429  0.50074877  0.89283148  1  0  0.057274  0  0.930534  0  0  0.068948  0  0.996184  0  0  0.070034  0  0.994377  0  0  0.101628  0.068122  0  0.997545  0
H  H59  1  0.88144397  0.49924840  0.10717219  1  0  0.057126  0  0.930441  0  0  0.06898  0  0.996172  0  0  0.069974  0  0.994485  0  0  0.102081  0.068209  0  0.997479  0
H  H60  1  0.72503653  0.57712944  0.82262710  1  0  0.060327  0  0.913651  0  0  0.073371  0  0.975802  0  0  0.073891  0  0.974806  0  0  0.104072  0.072947  0  0.976583  0
H  H61  1  0.90240301  0.42287047  0.17737652  1  0  0.060587  0  0.913464  0  0  0.074211  0  0.975445  0  0  0.074765  0  0.974385  0  0  0.10434  0.073787  0  0.976245  0
H  H62  1  0.26031207  0.66265444  0.87056461  1  0  0.058403  0  0.919199  0  0  0.071696  0  0.981234  0  0  0.072375  0  0.980045  0  0  0.103474  0.071099  0  0.982254  0
H  H63  1  0.38977059  0.33736227  0.12944039  1  0  0.05868  0  0.920127  0  0  0.071716  0  0.982293  0  0  0.072377  0  0.981106  0  0  0.103401  0.071169  0  0.983258  0
H  H64  1  0.16001969  0.55847592  0.78920617  1  0  0.065456  0  0.92421  0  0  0.077422  0  0.988023  0  0  0.078167  0  0.98688  0  0  0.106234  0.076817  0  0.988944  0
H  H65  1  0.37079454  0.44152526  0.21080293  1  0  0.065808  0  0.923754  0  0  0.077472  0  0.987883  0  0  0.078201  0  0.986739  0  0  0.106351  0.076868  0  0.988823  0
H  H66  1  0.88645853  0.72407034  0.92595066  1  0  0.068401  0  0.913318  0  0  0.080153  0  0.974363  0  0  0.081221  0  0.972932  0  0  0.106792  0.079328  0  0.975506  0
H  H67  1  0.96046650  0.27593008  0.07405649  1  0  0.068248  0  0.913513  0  0  0.080267  0  0.974014  0  0  0.081386  0  0.972541  0  0  0.106969  0.079429  0  0.97514  0
H  H68  1  0.87292207  0.64733496  0.99375071  1  0  0.054503  0  0.93646  0  0  0.065872  0  1.003984  0  0  0.066625  0  1.002585  0  0  0.10188  0.065249  0  1.0051  0
H  H69  1  0.87916324  0.35265765  0.00624874  1  0  0.055116  0  0.935801  0  0  0.066389  0  1.002969  0  0  0.067124  0  1.001638  0  0  0.102179  0.065779  0  1.004049  0
H  H70  1  0.34993904  0.64739607  0.74729743  1  0  0.098286  0  0.974578  0  0  0.107217  0  1.038714  0  0  0.110714  0  1.037274  0  0  0.098239  0.10476  0  1.039801  0
H  H71  1  0.60263348  0.35263781  0.25272318  1  0  0.097437  0  0.97528  0  0  0.106451  0  1.039367  0  0  0.109927  0  1.037951  0  0  0.098056  0.103993  0  1.040452  0
H  H72  1  0.47472386  0.73101202  0.65603861  1  0  0.105485  0  0.93681  0  0  0.116355  0  0.993548  0  0  0.12004  0  0.990149  0  0  0.109473  0.113695  0  0.995939  0
H  H73  1  0.81870876  0.26901810  0.34397261  1  0  0.104892  0  0.936015  0  0  0.115725  0  0.992935  0  0  0.119415  0  0.989516  0  0  0.109263  0.113075  0  0.995307  0
H  H74  1  0.95679953  0.88579424  0.62835376  1  0  0.114953  0  0.953133  0  0  0.121635  0  1.017463  0  0  0.124653  0  1.015495  0  0  0.116228  0.119357  0  1.019207  0
H  H75  1  0.32849884  0.11419178  0.37164106  1  0  0.114727  0  0.953403  0  0  0.121487  0  1.017612  0  0  0.124495  0  1.015689  0  0  0.115996  0.119212  0  1.019347  0
H  H76  1  0.82785574  0.80260468  0.71998255  1  0  0.117544  0  0.935615  0  0  0.128529  0  0.992337  0  0  0.132393  0  0.990376  0  0  0.110093  0.125716  0  0.993937  0
H  H77  1  0.10790088  0.19737600  0.28001161  1  0  0.118366  0  0.93495  0  0  0.128935  0  0.992148  0  0  0.132806  0  0.990141  0  0  0.110392  0.126165  0  0.993728  0
H  H78  1  0.42194516  0.78117890  0.13892543  1  0  0.107218  0  0.942836  0  0  0.118476  0  1.001025  0  0  0.122125  0  0.999504  0  0  0.103259  0.115893  0  1.002211  0
H  H79  1  0.28299370  0.21883840  0.86107905  1  0  0.107721  0  0.943118  0  0  0.118898  0  1.001213  0  0  0.122591  0  0.999635  0  0  0.103491  0.116241  0  1.00248  0
H  H80  1  0.40131786  0.87881902  0.28070904  1  0  0.113083  0  0.95251  0  0  0.122076  0  1.012863  0  0  0.125149  0  1.010615  0  0  0.11476  0.119741  0  1.014815  0
H  H81  1  0.12058698  0.12119574  0.71929197  1  0  0.114413  0  0.951915  0  0  0.122616  0  1.012778  0  0  0.125672  0  1.010532  0  0  0.11526  0.120322  0  1.014666  0
H  H82  1  0.78699085  0.88776766  0.19785465  1  0  0.105129  0  0.93433  0  0  0.116649  0  0.989987  0  0  0.120152  0  0.986934  0  0  0.108576  0.114135  0  0.992072  0
H  H83  1  0.58913108  0.11220421  0.80214842  1  0  0.105375  0  0.93484  0  0  0.116835  0  0.990388  0  0  0.120421  0  0.987245  0  0  0.108414  0.114304  0  0.992481  0
H  H84  1  0.80436985  0.79182198  0.05617297  1  0  0.101443  0  0.963401  0  0  0.112932  0  1.021257  0  0  0.116283  0  1.020118  0  0  0.101166  0.110524  0  1.022228  0
H  H85  1  0.74818663  0.20815465  0.94383168  1  0  0.101866  0  0.96465  0  0  0.113164  0  1.02256  0  0  0.116569  0  1.021364  0  0  0.101551  0.110744  0  1.023542  0
H  H86  1  0.50468822  0.44429424  0.80848685  1  0  0.089535  0  0.985219  0  0  0.097739  0  1.052372  0  0  0.101287  0  1.050756  0  0  0.09317  0.095216  0  1.05361  0
H  H87  1  0.69619378  0.55572014  0.19150104  1  0  0.09  0  0.984237  0  0  0.098494  0  1.051009  0  0  0.102045  0  1.049385  0  0  0.093677  0.095973  0  1.05226  0
H  H88  1  0.25434938  0.32026407  0.72108676  1  0  0.099327  0  0.947778  0  0  0.108659  0  1.010088  0  0  0.112303  0  1.006857  0  0  0.10508  0.105983  0  1.012407  0
H  H89  1  0.53327451  0.67975337  0.27890101  1  0  0.099355  0  0.946688  0  0  0.108863  0  1.008908  0  0  0.112472  0  1.005741  0  0  0.105354  0.106194  0  1.011203  0
H  H90  1  0.64916361  0.20428209  0.56524339  1  0  0.101537  0  0.965594  0  0  0.109077  0  1.03069  0  0  0.111403  0  1.029881  0  0  0.115976  0.107088  0  1.032117  0
H  H91  1  0.08394018  0.79571326  0.43475919  1  0  0.101069  0  0.96665  0  0  0.10843  0  1.031932  0  0  0.110751  0  1.031141  0  0  0.115817  0.106459  0  1.033324  0
H  H92  1  0.90499257  0.32446719  0.65350997  1  0  0.127969  0  0.936986  0  0  0.138143  0  0.994791  0  0  0.14241  0  0.992049  0  0  0.112937  0.135098  0  0.996858  0
H  H93  1  0.25148608  0.67552048  0.34649587  1  0  0.127795  0  0.936055  0  0  0.137376  0  0.994589  0  0  0.141694  0  0.991766  0  0  0.113031  0.134299  0  0.996714  0
O  O94  1  0.21835644  0.96073546  0.39533446  1  0  -0.840619  0  2.123664  0  0  -0.787267  0  2.393744  0  0  -0.828107  0  2.380774  0  0  -0.44657  -0.768979  0  2.401779  0
O  O95  1  0.82300879  0.03926827  0.60466747  1  0  -0.840485  0  2.122999  0  0  -0.786762  0  2.392076  0  0  -0.827583  0  2.379048  0  0  -0.446693  -0.768517  0  2.400245  0
O  O96  1  0.90389689  0.96228950  0.34522133  1  0  -0.667382  0  1.996201  0  0  -0.622853  0  2.227137  0  0  -0.653417  0  2.21947  0  0  -0.361968  -0.605687  0  2.231413  0
O  O97  1  0.55865782  0.03770772  0.65477823  1  0  -0.66652  0  1.997248  0  0  -0.622331  0  2.22832  0  0  -0.652896  0  2.220694  0  0  -0.361514  -0.605189  0  2.2326  0
O  O98  1  0.47219643  0.84183648  0.56819800  1  0  -0.661296  0  1.929902  0  0  -0.618277  0  2.153478  0  0  -0.648264  0  2.142468  0  0  -0.372996  -0.602149  0  2.159367  0
O  O99  1  0.90403240  0.15815025  0.43178450  1  0  -0.660899  0  1.929633  0  0  -0.617814  0  2.152784  0  0  -0.647833  0  2.141845  0  0  -0.373006  -0.60163  0  2.158619  0
O  O100  1  0.21665468  0.93050192  0.55688832  1  0  -0.857112  0  2.130663  0  0  -0.802376  0  2.399202  0  0  -0.844005  0  2.384061  0  0  -0.468779  -0.784023  0  2.407909  0
O  O101  1  0.65978150  0.06950520  0.44311145  1  0  -0.856902  0  2.13112  0  0  -0.802466  0  2.399491  0  0  -0.84404  0  2.384467  0  0  -0.468595  -0.784112  0  2.408056  0
O  O102  1  0.32481793  0.11233989  0.52771738  1  0  -0.839885  0  2.143387  0  0  -0.784636  0  2.404499  0  0  -0.826059  0  2.393819  0  0  -0.455449  -0.765642  0  2.410975  0
O  O103  1  0.79710618  0.88765726  0.47229030  1  0  -0.839957  0  2.143628  0  0  -0.784791  0  2.403403  0  0  -0.826329  0  2.392912  0  0  -0.45534  -0.765705  0  2.40975  0
O  O104  1  0.11827392  0.17846736  0.60407471  1  0  -0.668536  0  1.968831  0  0  -0.625318  0  2.207621  0  0  -0.655835  0  2.1977  0  0  -0.360535  -0.608718  0  2.213622  0
O  O105  1  0.51421283  0.82154379  0.39591088  1  0  -0.667862  0  1.970979  0  0  -0.625275  0  2.209419  0  0  -0.655692  0  2.199434  0  0  -0.360299  -0.608773  0  2.215483  0
O  O106  1  0.00274443  0.68046527  0.79208160  1  0  -0.278819  0  2.306129  0  0  -0.210579  0  2.539137  0  0  -0.228512  0  2.540063  0  0  -0.178806  -0.197787  0  2.537841  0
O  O107  1  0.21068012  0.31951575  0.20790874  1  0  -0.279  0  2.307244  0  0  -0.209638  0  2.539611  0  0  -0.227895  0  2.540747  0  0  -0.178535  -0.196706  0  2.538252  0
O  O108  1  0.87136247  0.45606838  0.78197376  1  0  -0.279073  0  2.320825  0  0  -0.206976  0  2.552491  0  0  -0.225607  0  2.554539  0  0  -0.175594  -0.193741  0  2.550461  0
O  O109  1  0.08939398  0.54393140  0.21802427  1  0  -0.278396  0  2.321079  0  0  -0.206134  0  2.553011  0  0  -0.22476  0  2.555052  0  0  -0.174876  -0.192968  0  2.551054  0
O  O110  1  0.13770081  0.72059190  0.01519602  1  0  -0.283665  0  2.31113  0  0  -0.212124  0  2.543154  0  0  -0.23019  0  2.543968  0  0  -0.18125  -0.199331  0  2.542039  0
O  O111  1  0.12248710  0.27938885  0.98481502  1  0  -0.284657  0  2.31103  0  0  -0.212936  0  2.542746  0  0  -0.231087  0  2.543663  0  0  -0.181965  -0.200162  0  2.541616  0
O  O112  1  0.07952774  0.49999362  0.99999865  1  0  -0.299556  0  2.27484  0  0  -0.227459  0  2.523944  0  0  -0.243703  0  2.52659  0  0  -0.228329  -0.216037  0  2.521707  0
