# generated using pymatgen
data_Al3H16C40Br4O17
_symmetry_space_group_name_H-M   'P 1'
_cell_length_a   12.39325546
_cell_length_b   12.07818169
_cell_length_c   28.73558487
_cell_angle_alpha   88.12174828
_cell_angle_beta   90.41606499
_cell_angle_gamma   61.75763320
_symmetry_Int_Tables_number   1
_chemical_formula_structural   Al3H16C40Br4O17
_chemical_formula_sum   'Al6 H32 C80 Br8 O34'
_cell_volume   3786.00726286
_cell_formula_units_Z   2
loop_
 _symmetry_equiv_pos_site_id
 _symmetry_equiv_pos_as_xyz
  1  'x, y, z'
loop_
 _atom_site_type_symbol
 _atom_site_label
 _atom_site_symmetry_multiplicity
 _atom_site_fract_x
 _atom_site_fract_y
 _atom_site_fract_z
 _atom_site_occupancy
 _atom_site_pbe_bader_charge
 _atom_site_pbe_bader_spin_density
 _atom_site_pbe_cm5_charge
 _atom_site_pbe_ddec_charge
 _atom_site_pbe_ddec_spin_density
 _atom_site_pbe_ddec_sum_bond_order
 _atom_site_pbe_magmom
Al  Al0  1  0.59038303  0.60165469  0.49930941  1  2.497184  0  0.396832  1.681931  0  2.563309  0
Al  Al1  1  0.33948095  0.58184681  0.49761030  1  2.478969  0  0.509586  1.66175  0  2.508614  0
Al  Al2  1  0.57689976  0.34206465  0.50026054  1  2.475238  0  0.511828  1.659588  0  2.506586  0
Al  Al3  1  0.07700110  0.06761400  0.00000114  1  2.492739  0  0.400186  1.683241  0  2.555085  0
Al  Al4  1  0.08613046  0.32932821  0.99835723  1  2.47708  0  0.511516  1.659822  0  2.507744  0
Al  Al5  1  0.32494216  0.09081067  0.99760420  1  2.479848  0  0.508236  1.659309  0  2.514653  0
H  H6  1  0.24390935  0.52382701  0.20948587  1  0.10603  0  0.09455  0.106792  0  1.061227  0
H  H7  1  0.75124546  0.54560577  0.28633619  1  0.082603  0  0.105659  0.104594  0  1.018257  0
H  H8  1  0.50495898  0.87009659  0.21100307  1  0.120141  0  0.115986  0.138584  0  0.980887  0
H  H9  1  0.69303862  0.53218693  0.70371586  1  0.100744  0  0.118648  0.127478  0  0.968795  0
H  H10  1  0.70678119  0.53147408  0.79030460  1  0.113847  0  0.115599  0.123503  0  0.977767  0
H  H11  1  0.97593678  0.13805736  0.79295780  1  0.107246  0  0.114876  0.136526  0  0.981049  0
H  H12  1  0.38516581  0.60391169  0.72571154  1  0.074973  0  0.106445  0.113021  0  0.997898  0
H  H13  1  0.37133789  0.64718877  0.81022456  1  0.116887  0  0.115854  0.124199  0  0.971387  0
H  H14  1  0.30532325  0.98719624  0.69262954  1  0.086771  0  0.114187  0.13562  0  0.978798  0
H  H15  1  0.42652863  0.10962050  0.29121266  1  0.154487  0  0.095342  0.111398  0  1.041924  0
H  H16  1  0.84619051  0.15231072  0.29348261  1  0.100497  0  0.117265  0.138053  0  0.971788  0
H  H17  1  0.79039778  0.53254621  0.20099224  1  0.103608  0  0.115279  0.11943  0  0.974249  0
H  H18  1  0.10881130  0.69001626  0.33243502  1  0.107307  0  0.117159  0.134376  0  0.952471  0
H  H19  1  0.26268971  0.65948320  0.34433136  1  0.081613  0  0.099177  0.105982  0  1.027636  0
H  H20  1  0.22805624  0.59811345  0.29363829  1  0.063811  0  0.093551  0.096429  0  1.043871  0
H  H21  1  0.66093520  0.25058217  0.72928484  1  0.055081  0  0.08206  0.078322  0  1.053972  0
H  H22  1  0.58698850  0.31428167  0.67321674  1  0.065521  0  0.092318  0.093987  0  1.008215  0
H  H23  1  0.70393487  0.15359094  0.67950652  1  0.075429  0  0.108818  0.126336  0  0.974003  0
H  H24  1  0.07859803  0.37831217  0.82764572  1  0.100432  0  0.089686  0.091566  0  1.021514  0
H  H25  1  0.00302520  0.43869903  0.77165669  1  0.051151  0  0.084164  0.080807  0  1.047152  0
H  H26  1  0.95529426  0.53571719  0.82146919  1  0.091324  0  0.114607  0.132617  0  0.955292  0
H  H27  1  0.00092884  0.49705944  0.22564369  1  0.062729  0  0.097382  0.100775  0  0.999505  0
H  H28  1  0.04067404  0.61884390  0.23761857  1  0.071713  0  0.090068  0.08543  0  1.031241  0
H  H29  1  0.93128012  0.59943941  0.27272115  1  0.068692  0  0.107005  0.11445  0  0.980578  0
H  H30  1  0.42115124  0.54515652  0.20837290  1  0.040354  0  0.087496  0.084709  0  1.033099  0
H  H31  1  0.56886805  0.40782906  0.20798195  1  0.048205  0  0.090596  0.096074  0  1.014692  0
H  H32  1  0.54586682  0.53739416  0.24287426  1  0.051248  0  0.098153  0.107472  0  1.01065  0
H  H33  1  0.08468570  0.24490241  0.29055947  1  0.054773  0  0.097892  0.10346  0  0.994755  0
H  H34  1  0.22891790  0.10334941  0.29566514  1  0.046708  0  0.092773  0.093025  0  1.00773  0
H  H35  1  0.10826507  0.10906246  0.25915839  1  0.08577  0  0.095595  0.105497  0  1.021179  0
H  H36  1  0.67464050  0.72736048  0.47098175  1  0.575836  0  0.292658  0.382385  0  0.923942  0
H  H37  1  0.96579486  0.97129878  0.03047939  1  0.57699  0  0.293949  0.383976  0  0.921655  0
C  C38  1  0.36607583  0.74398285  0.43535440  1  1.674506  0  0.280633  0.707886  0  4.16861  0
C  C39  1  0.36432065  0.35885984  0.38767830  1  0.268512  0  -0.037239  -0.209693  0  3.924193  0
C  C40  1  0.26187938  0.26106797  0.24254787  1  0.615122  0  0.092191  0.16343  0  3.723145  0
C  C41  1  0.32465681  0.30534028  0.20318966  1  0.119808  0  0.001548  0.057678  0  3.81309  0
C  C42  1  0.38385069  0.20170098  0.27302070  1  -0.103883  0  -0.085903  -0.171503  0  3.655873  0
C  C43  1  0.34136454  0.32926058  0.29840187  1  0.079448  0  0.002031  0.014868  0  3.803496  0
C  C44  1  0.44639270  0.24325687  0.23469446  1  -0.016763  0  -0.011277  0.031847  0  3.609149  0
C  C45  1  0.40391996  0.37334048  0.25878911  1  0.635207  0  0.095381  0.202874  0  3.759765  0
C  C46  1  0.31342931  0.29690125  0.15466974  1  -0.443552  0  -0.013249  0.016596  0  4.040824  0
C  C47  1  0.35295596  0.34346442  0.34651722  1  -0.523351  0  -0.006089  0.034568  0  4.024034  0
C  C48  1  0.74995815  0.36784710  0.38481700  1  0.178993  0  -0.027486  -0.172244  0  3.925197  0
C  C49  1  0.38791710  0.38756658  0.43348988  1  1.671578  0  0.285105  0.725423  0  4.14434  0
C  C50  1  0.83415705  0.23541027  0.27329065  1  0.056561  0  -0.078236  -0.175175  0  3.936529  0
C  C51  1  0.85866529  0.22845823  0.22613163  1  -0.103551  0  -0.006565  0.066206  0  3.948292  0
C  C52  1  0.80311330  0.44984004  0.22170996  1  -0.104071  0  -0.071428  -0.106979  0  3.96391  0
C  C53  1  0.78109903  0.45726738  0.26898478  1  0.048281  0  -0.076995  -0.126961  0  3.958664  0
C  C54  1  0.79598117  0.35001239  0.29539575  1  0.052783  0  0.012978  0.152065  0  4.089322  0
C  C55  1  0.84296199  0.33542636  0.19900135  1  0.15756  0  0.00133  0.080868  0  4.093638  0
C  C56  1  0.86989115  0.32700074  0.15124296  1  -0.407278  0  -0.026388  -0.029587  0  4.105045  0
C  C57  1  0.77229532  0.35789302  0.34350781  1  -0.419214  0  -0.016432  -0.025935  0  4.060104  0
C  C58  1  0.89707101  0.31486883  0.11037173  1  0.161729  0  -0.025825  -0.166965  0  3.916812  0
C  C59  1  0.33797409  0.80051745  0.38907930  1  0.274469  0  -0.021738  -0.16771  0  3.887484  0
C  C60  1  0.70442478  0.39488036  0.43119003  1  1.672872  0  0.277048  0.710253  0  4.160596  0
C  C61  1  0.43477994  0.83902230  0.27581347  1  -0.084287  0  -0.007573  0.075123  0  3.978596  0
C  C62  1  0.43732926  0.85010491  0.22780725  1  0.008278  0  -0.086212  -0.180285  0  3.947132  0
C  C63  1  0.26309569  0.80905574  0.22158510  1  -0.108981  0  -0.015897  -0.053742  0  3.912095  0
C  C64  1  0.25586286  0.80446588  0.27014015  1  0.665087  0  0.097048  0.188241  0  4.037325  0
C  C65  1  0.34287436  0.82017797  0.29810570  1  0.147123  0  -0.007458  -0.017738  0  4.091672  0
C  C66  1  0.35055467  0.83625994  0.19999014  1  0.148777  0  0.005906  0.120744  0  4.117107  0
C  C67  1  0.34923800  0.85346942  0.15128530  1  -0.551374  0  -0.025271  -0.033694  0  4.097867  0
C  C68  1  0.33794473  0.81377831  0.34686057  1  -0.516032  0  -0.022425  -0.009975  0  4.131777  0
C  C69  1  0.33908617  0.87670743  0.10947078  1  0.309208  0  -0.020377  -0.154899  0  3.905237  0
C  C70  1  0.35757017  0.36249062  0.61023628  1  0.169816  0  -0.022526  -0.176872  0  3.879016  0
C  C71  1  0.38715346  0.70997817  0.56709234  1  1.64515  0  0.279435  0.710035  0  4.167252  0
C  C72  1  0.43859679  0.27034257  0.72851596  1  0.550849  0  0.086815  0.168111  0  4.051658  0
C  C73  1  0.43392376  0.27018347  0.77714840  1  0.036135  0  -0.021425  -0.039446  0  3.96687  0
C  C74  1  0.21918277  0.43404322  0.77223703  1  0.647942  0  0.084999  0.16953  0  4.042779  0
C  C75  1  0.22461220  0.43585564  0.72358562  1  -0.078325  0  -0.017475  -0.034496  0  3.951304  0
C  C76  1  0.33388176  0.35513469  0.70107879  1  0.169822  0  -0.006941  -0.002658  0  4.095785  0
C  C77  1  0.32436113  0.35013255  0.79964809  1  0.079037  0  -0.011139  -0.00556  0  4.09971  0
C  C78  1  0.31363494  0.34239132  0.84838698  1  -0.358136  0  -0.012178  0.018554  0  4.088086  0
C  C79  1  0.34388610  0.35841925  0.65217247  1  -0.423009  0  -0.00901  0.021295  0  4.078685  0
C  C80  1  0.30014999  0.33116055  0.88999455  1  0.135332  0  -0.022936  -0.177384  0  3.880704  0
C  C81  1  0.78251310  0.34511540  0.60926247  1  -0.007653  0  -0.021491  -0.168923  0  3.904404  0
C  C82  1  0.38450785  0.38467027  0.56344718  1  1.673332  0  0.286761  0.719009  0  4.143388  0
C  C83  1  0.75465936  0.44662124  0.72367664  1  -0.073269  0  -0.07021  -0.099644  0  3.938957  0
C  C84  1  0.76191666  0.44611383  0.77181269  1  0.035166  0  -0.077408  -0.130764  0  3.960559  0
C  C85  1  0.91393970  0.22388031  0.77333025  1  0.055119  0  -0.081703  -0.178611  0  3.939369  0
C  C86  1  0.90541240  0.22536804  0.72513891  1  -0.099655  0  -0.005915  0.065493  0  3.957425  0
C  C87  1  0.82571208  0.33640063  0.69921360  1  0.119821  0  -0.000474  0.071486  0  4.106603  0
C  C88  1  0.84245707  0.33471644  0.79716762  1  0.050756  0  0.008133  0.139871  0  4.106932  0
C  C89  1  0.85984611  0.33139035  0.84596903  1  -0.417518  0  -0.011527  -0.019633  0  4.056588  0
C  C90  1  0.80832623  0.33847118  0.65059407  1  -0.252591  0  -0.01683  -0.01748  0  4.098803  0
C  C91  1  0.88596143  0.32147349  0.88738907  1  0.195094  0  -0.025559  -0.175684  0  3.912419  0
C  C92  1  0.36165508  0.75041716  0.61413859  1  0.140449  0  -0.028921  -0.180989  0  3.926651  0
C  C93  1  0.72668366  0.37365510  0.56345448  1  1.684767  0  0.283127  0.705491  0  4.168443  0
C  C94  1  0.36537908  0.69658683  0.73716511  1  -0.026085  0  -0.082415  -0.127654  0  3.961559  0
C  C95  1  0.35751892  0.72066472  0.78417934  1  0.024132  0  -0.072958  -0.099956  0  3.947955  0
C  C96  1  0.31094231  0.93599393  0.76539437  1  -0.095376  0  -0.007518  0.069618  0  3.948311  0
C  C97  1  0.32020351  0.91275721  0.71830436  1  0.107697  0  -0.087127  -0.182964  0  3.96579  0
C  C98  1  0.34691654  0.79249517  0.70368308  1  0.041751  0  0.004855  0.139442  0  4.11368  0
C  C99  1  0.33006473  0.84090640  0.79948263  1  0.083179  0  -0.002532  0.07462  0  4.106529  0
C  C100  1  0.32004842  0.86692659  0.84720684  1  -0.075698  0  -0.018386  -0.013823  0  4.099754  0
C  C101  1  0.35439169  0.76961773  0.65560491  1  -0.368222  0  -0.013909  -0.015502  0  4.063856  0
C  C102  1  0.30948495  0.89440294  0.88790287  1  -0.150141  0  -0.026392  -0.174851  0  3.921021  0
C  C103  1  0.94989414  0.28476356  0.06512962  1  1.662459  0  0.277512  0.710409  0  4.156923  0
C  C104  1  0.21889907  0.39195464  0.26720205  1  0.597905  0  0.086984  0.152632  0  3.743156  0
C  C105  1  0.27877741  0.27380145  0.06532328  1  1.669797  0  0.285011  0.725651  0  4.145867  0
C  C106  1  0.30125309  0.93352994  0.06347450  1  1.688905  0  0.279421  0.705159  0  4.164815  0
C  C107  1  0.94254525  0.29026237  0.93318452  1  1.665176  0  0.280207  0.707459  0  4.168457  0
C  C108  1  0.27423434  0.29878128  0.93548254  1  1.695122  0  0.288607  0.720634  0  4.141611  0
C  C109  1  0.28288116  0.94949402  0.93275121  1  1.672942  0  0.282707  0.71007  0  4.16038  0
C  C110  1  0.28283449  0.43277736  0.22838029  1  -0.09128  0  -0.093746  -0.231999  0  3.674337  0
C  C111  1  0.30187570  0.29207782  0.11270462  1  0.165003  0  -0.037783  -0.203686  0  3.933611  0
C  C112  1  0.19403481  0.67704249  0.31688674  1  0.325266  0  -0.135919  -0.165802  0  3.842611  0
C  C113  1  0.62804658  0.23005464  0.69672945  1  0.360598  0  -0.143466  -0.171169  0  3.885457  0
C  C114  1  0.03349387  0.46226655  0.80412888  1  0.312857  0  -0.141861  -0.172817  0  3.887854  0
C  C115  1  0.01543771  0.55002575  0.25322820  1  0.346948  0  -0.13893  -0.167343  0  3.901552  0
C  C116  1  0.50361047  0.48293714  0.22947974  1  0.39697  0  -0.146284  -0.16257  0  3.876523  0
C  C117  1  0.15139925  0.16343144  0.27192906  1  0.364156  0  -0.14302  -0.163805  0  3.872782  0
Br  Br118  1  0.55732719  0.84966409  0.31242477  1  -0.024539  0  0.072331  -0.021808  0  1.426947  0
Br  Br119  1  0.15749523  0.77433032  0.18405932  1  -0.002457  0  0.093712  0.021202  0  1.605506  0
Br  Br120  1  0.57371949  0.15789801  0.81283835  1  0.015516  0  0.071563  0.009263  0  1.43895  0
Br  Br121  1  0.08409360  0.54699258  0.68792830  1  0.015946  0  0.07102  0.008023  0  1.417087  0
Br  Br122  1  0.99975133  0.07511492  0.69382220  1  -0.02597  0  0.061581  -0.02807  0  1.442842  0
Br  Br123  1  0.26756617  0.10090870  0.78377618  1  -0.040326  0  0.056243  -0.041136  0  1.558986  0
Br  Br124  1  0.60639510  0.13725006  0.21259625  1  -0.073471  0  0.003896  -0.09295  0  1.428166  0
Br  Br125  1  0.92315453  0.07013625  0.19876898  1  -0.021546  0  0.050251  -0.042129  0  1.619049  0
O  O126  1  0.67725796  0.50286447  0.44511387  1  -1.212739  0  -0.209615  -0.561053  0  2.294092  0
O  O127  1  0.30440319  0.48406827  0.54127141  1  -1.241519  0  -0.225713  -0.588076  0  2.237803  0
O  O128  1  0.48927746  0.30780281  0.54812237  1  -1.24084  0  -0.223038  -0.580074  0  2.238362  0
O  O129  1  0.69940081  0.29243313  0.54619485  1  -1.243124  0  -0.237159  -0.593943  0  2.222723  0
O  O130  1  0.50095816  0.50801096  0.49887479  1  -1.607672  0  -0.391644  -1.276584  0  2.294777  0
O  O131  1  0.19301642  0.96270500  0.05097426  1  -1.204726  0  -0.202699  -0.551515  0  2.301296  0
O  O132  1  0.97717303  0.17715670  0.05080311  1  -1.21158  0  -0.208679  -0.56179  0  2.285676  0
O  O133  1  0.96909622  0.36945259  0.04384733  1  -1.242148  0  -0.240475  -0.60093  0  2.229777  0
O  O134  1  0.17889621  0.35666218  0.04543474  1  -1.237638  0  -0.228599  -0.591874  0  2.241955  0
O  O135  1  0.35723890  0.17263782  0.04709732  1  -1.244622  0  -0.227167  -0.587848  0  2.244558  0
O  O136  1  0.37838545  0.95534269  0.04032258  1  -1.246703  0  -0.238835  -0.596714  0  2.229691  0
O  O137  1  0.46786823  0.72213964  0.45310830  1  -1.213092  0  -0.205671  -0.560599  0  2.30765  0
O  O138  1  0.18503575  0.96536858  0.95139973  1  -1.217789  0  -0.198438  -0.531072  0  2.273408  0
O  O139  1  0.97008081  0.18217892  0.95007678  1  -1.211791  0  -0.199835  -0.539466  0  2.290269  0
O  O140  1  0.96545441  0.37293297  0.95178028  1  -1.254033  0  -0.239771  -0.60044  0  2.230437  0
O  O141  1  0.17026166  0.37249463  0.95236672  1  -1.249421  0  -0.222821  -0.58076  0  2.236656  0
O  O142  1  0.35436143  0.19455136  0.95473613  1  -1.244381  0  -0.222326  -0.583114  0  2.244451  0
O  O143  1  0.36041281  0.98251289  0.94880601  1  -1.249821  0  -0.237777  -0.600036  0  2.24019  0
O  O144  1  0.16343906  0.16351553  0.99865269  1  -1.61036  0  -0.390896  -1.275348  0  2.295021  0
O  O145  1  0.28820589  0.71315331  0.45310681  1  -1.249382  0  -0.236618  -0.591252  0  2.219964  0
O  O146  1  0.31163895  0.49450574  0.44867547  1  -1.245115  0  -0.227488  -0.590487  0  2.24395  0
O  O147  1  0.48625919  0.30712077  0.45513351  1  -1.244428  0  -0.227944  -0.59247  0  2.23853  0
O  O148  1  0.69120566  0.30805207  0.45375074  1  -1.250754  0  -0.241623  -0.6055  0  2.231359  0
O  O149  1  0.70340224  0.47904749  0.54507477  1  -1.214419  0  -0.195902  -0.531594  0  2.297662  0
O  O150  1  0.48976978  0.68993420  0.55191738  1  -1.212866  0  -0.199962  -0.535743  0  2.283472  0
O  O151  1  0.30457907  0.69359820  0.54550037  1  -1.253098  0  -0.240223  -0.6056  0  2.239915  0
O  O152  1  0.16274022  0.79200983  0.28967063  1  -1.077147  0  -0.201572  -0.188544  0  2.582238  0
O  O153  1  0.54000085  0.18646963  0.70661748  1  -1.066073  0  -0.20387  -0.173514  0  2.552672  0
O  O154  1  0.11555231  0.51367413  0.79413968  1  -1.075434  0  -0.204891  -0.178203  0  2.551664  0
O  O155  1  0.10787645  0.46694291  0.28653147  1  -1.07236  0  -0.205822  -0.1866  0  2.539482  0
O  O156  1  0.47215081  0.43087295  0.26978863  1  -1.069524  0  -0.203951  -0.186533  0  2.526936  0
O  O157  1  0.19344225  0.20365247  0.23132636  1  -1.07734  0  -0.207336  -0.182559  0  2.513321  0
O  O158  1  0.67359655  0.68492818  0.49993390  1  -1.358076  0  -0.572883  -0.986925  0  1.793089  0
O  O159  1  0.99836968  0.97966271  0.00090410  1  -1.352777  0  -0.572134  -0.986219  0  1.791009  0
