# generated using pymatgen
data_CuH7C6N2ClO3
_symmetry_space_group_name_H-M   'P 1'
_cell_length_a   3.81116324
_cell_length_b   11.16409754
_cell_length_c   11.38811938
_cell_angle_alpha   111.15392401
_cell_angle_beta   96.55124593
_cell_angle_gamma   96.51966174
_symmetry_Int_Tables_number   1
_chemical_formula_structural   CuH7C6N2ClO3
_chemical_formula_sum   'Cu2 H14 C12 N4 Cl2 O6'
_cell_volume   442.63836116
_cell_formula_units_Z   2
loop_
 _symmetry_equiv_pos_site_id
 _symmetry_equiv_pos_as_xyz
  1  'x, y, z'
loop_
 _atom_site_type_symbol
 _atom_site_label
 _atom_site_symmetry_multiplicity
 _atom_site_fract_x
 _atom_site_fract_y
 _atom_site_fract_z
 _atom_site_occupancy
 _atom_site_hle17_ddec_charge
 _atom_site_hle17_ddec_spin_density
 _atom_site_hle17_ddec_sum_bond_order
 _atom_site_hle17_magmom
 _atom_site_hse06_10hf_ddec_charge
 _atom_site_hse06_10hf_ddec_spin_density
 _atom_site_hse06_10hf_ddec_sum_bond_order
 _atom_site_hse06_10hf_magmom
 _atom_site_hse06_ddec_charge
 _atom_site_hse06_ddec_spin_density
 _atom_site_hse06_ddec_sum_bond_order
 _atom_site_hse06_magmom
 _atom_site_pbe_cm5_charge
 _atom_site_pbe_ddec_charge
 _atom_site_pbe_ddec_spin_density
 _atom_site_pbe_ddec_sum_bond_order
 _atom_site_pbe_magmom
Cu  Cu0  1  0.68057566  0.02442012  0.28674284  1  0.870676  -0.698542  1.850973  -0.496  0.859774  -0.792562  2.259483  -0.619  0.957195  -0.872508  2.175348  -0.708  0.634467  0.800243  -0.729064  2.316966  -0.557
Cu  Cu1  1  0.31942773  0.97557991  0.71325596  1  0.870766  0.69856  1.850997  0.496  0.859794  0.792574  2.259537  0.619  0.957174  0.872499  2.175348  0.708  0.63444  0.800256  0.729064  2.317009  0.557
H  H2  1  0.40853341  0.12935131  0.08097998  1  0.110761  -0.000651  0.953562  -0.002  0.116354  -0.000409  1.018734  -0.002  0.11906  -0.000239  1.016261  -0.001  0.109386  0.114479  -0.000572  1.020444  -0.002
H  H3  1  0.59141412  0.87065796  0.91902796  1  0.110771  0.000651  0.953464  0.002  0.116351  0.00041  1.018638  0.002  0.11906  0.000239  1.01615  0.001  0.109411  0.114478  0.000573  1.020341  0.002
H  H4  1  0.27024956  0.48167993  0.40707473  1  0.108678  -0.001245  0.955741  -0.002  0.10989  -0.000891  1.027397  -0.002  0.113644  -0.00053  1.024362  -0.001  0.120525  0.107134  -0.001235  1.029673  -0.002
H  H5  1  0.72979209  0.51832274  0.59291852  1  0.108732  0.001245  0.955823  0.002  0.109926  0.00089  1.027458  0.002  0.113675  0.00053  1.024427  0.001  0.120548  0.107169  0.001235  1.029736  0.002
H  H6  1  0.31360179  0.27735742  0.96954868  1  0.126925  0.00088  0.977191  0.0  0.146727  0.000734  1.039096  0.0  0.148362  0.000551  1.038945  0.0  0.083969  0.145543  0.000863  1.039368  0.0
H  H7  1  0.68638367  0.72264860  0.03045862  1  0.126853  -0.00088  0.977231  0.0  0.14671  -0.000734  1.039076  0.0  0.148325  -0.000551  1.03895  0.0  0.083951  0.145526  -0.000863  1.039343  0.0
H  H8  1  0.73291139  0.36795529  0.97390451  1  0.132941  -0.000407  0.929282  0.0  0.157086  -0.00018  0.983771  0.0  0.157875  -0.000162  0.98385  0.0  0.10235  0.156451  -0.000181  0.983804  0.0
H  H9  1  0.26706579  0.63204492  0.02610129  1  0.13294  0.000407  0.929123  0.0  0.157076  0.00018  0.983654  0.0  0.157865  0.000162  0.983731  0.0  0.102347  0.156438  0.000181  0.983691  0.0
H  H10  1  0.42430288  0.44808738  0.06746659  1  0.131603  -0.000257  0.947628  0.0  0.152032  -8.7e-05  1.008852  0.0  0.153428  -7.7e-05  1.008251  0.0  0.102225  0.150924  -0.000116  1.009416  0.0
H  H11  1  0.57569257  0.55191759  0.93253806  1  0.13167  0.000257  0.947652  0.0  0.152093  8.7e-05  1.008866  0.0  0.15349  7.7e-05  1.008262  0.0  0.10225  0.150983  0.000116  1.00943  0.0
H  H12  1  0.76623741  0.88173605  0.42857880  1  0.439384  -0.000437  0.860157  -0.002  0.411612  -0.000492  0.918192  -0.002  0.425948  -0.000428  0.897765  -0.002  0.295472  0.401311  -0.000509  0.932897  -0.002
H  H13  1  0.23373157  0.11827403  0.57142232  1  0.439421  0.000438  0.860102  0.002  0.411653  0.000492  0.918134  0.002  0.425991  0.000428  0.897705  0.002  0.295461  0.40135  0.000509  0.932843  0.002
H  H14  1  0.42027475  0.81858052  0.31908975  1  0.445122  -0.000107  0.793003  0.0  0.430631  -0.000562  0.843223  -0.001  0.441262  -0.0004  0.831902  0.0  0.327623  0.423003  -0.000692  0.851609  -0.001
H  H15  1  0.57969443  0.18142465  0.68091753  1  0.445126  0.000107  0.793002  0.0  0.430631  0.000562  0.843236  0.001  0.44126  0.0004  0.831913  0.0  0.327646  0.423  0.000692  0.851626  0.001
C  C16  1  0.69304801  0.32961410  0.14247745  1  0.280843  -0.010762  3.697683  -0.012  0.293215  -0.004569  3.94743  -0.006  0.297587  -0.004039  3.965701  -0.005  0.138878  0.290208  -0.004919  3.934873  -0.006
C  C17  1  0.30693265  0.67039295  0.85752565  1  0.280872  0.010759  3.697337  0.012  0.293178  0.004568  3.947178  0.006  0.297547  0.004039  3.96545  0.005  0.139013  0.290171  0.004919  3.934602  0.006
C  C18  1  0.60166595  0.20853862  0.15300453  1  0.037475  0.008065  3.608301  0.008  0.004907  0.001336  3.860067  0.002  0.010095  0.002674  3.878547  0.004  0.050697  0.00193  0.000104  3.847638  0.001
C  C19  1  0.39833008  0.79146244  0.84699613  1  0.037462  -0.008057  3.608508  -0.008  0.004938  -0.001336  3.860254  -0.002  0.010129  -0.002675  3.878736  -0.004  0.050611  0.001959  -0.000103  3.847811  -0.001
C  C20  1  0.98907203  0.28340213  0.34581121  1  0.032777  0.006426  3.747809  0.007  0.035405  0.000899  3.999405  0.002  0.033797  0.00194  4.022542  0.003  0.103729  0.035798  4.4e-05  3.985317  0.001
C  C21  1  0.01095837  0.71658887  0.65418449  1  0.032756  -0.006424  3.747903  -0.007  0.035398  -0.0009  3.999418  -0.002  0.033795  -0.001942  4.022543  -0.003  0.103814  0.035781  -4.4e-05  3.985324  -0.001
C  C22  1  0.07542882  0.40312472  0.33435118  1  0.090998  -0.009232  3.654991  -0.009  0.059978  -0.003701  3.915095  -0.004  0.063562  -0.003417  3.929514  -0.004  0.064331  0.057284  -0.003994  3.906242  -0.004
C  C23  1  0.92459989  0.59686827  0.66563902  1  0.091028  0.009225  3.655206  0.009  0.060066  0.003698  3.915252  0.004  0.063648  0.003415  3.92967  0.004  0.064358  0.057367  0.003993  3.906406  0.004
C  C24  1  0.52834155  0.35628545  0.03135555  1  -0.384285  -0.00044  3.706389  0.0  -0.470308  1.3e-05  3.938447  0.0  -0.473389  0.000111  3.947626  0.0  -0.241752  -0.467738  -0.000154  3.931905  0.0
C  C25  1  0.47166297  0.64371163  0.96864312  1  -0.38427  0.00044  3.706201  0.0  -0.470306  -1.6e-05  3.938298  0.0  -0.473372  -0.000111  3.947499  0.0  -0.241812  -0.467737  0.000154  3.931752  0.0
C  C26  1  0.15959174  0.25008967  0.45256102  1  0.603274  0.002339  3.92649  0.003  0.550498  -0.000541  4.24185  0.0  0.585268  -0.000394  4.237268  0.0  0.20497  0.526635  -0.000696  4.244118  0.0
C  C27  1  0.84044489  0.74990325  0.54743120  1  0.603389  -0.00234  3.926373  -0.003  0.550551  0.000538  4.241815  0.0  0.585315  0.000393  4.237237  0.0  0.204964  0.526693  0.000696  4.244079  0.0
N  N28  1  0.75000786  0.18757727  0.25445248  1  -0.281453  -0.088447  3.436718  -0.11  -0.242557  -0.061565  3.730085  -0.082  -0.274427  -0.050598  3.759293  -0.071  -0.338134  -0.223901  -0.066208  3.713404  -0.085
N  N29  1  0.25000519  0.81241583  0.74554771  1  -0.281581  0.088439  3.436995  0.11  -0.242629  0.061563  3.730245  0.082  -0.27449  0.0506  3.759423  0.071  -0.338136  -0.223969  0.066211  3.713554  0.085
N  N30  1  0.92955453  0.42605613  0.23367680  1  -0.269164  0.005333  2.949421  0.007  -0.245793  0.002148  3.209363  0.003  -0.251413  0.00294  3.219546  0.004  -0.290448  -0.241839  0.000771  3.202783  0.001
N  N31  1  0.07045040  0.57394194  0.76631434  1  -0.269244  -0.00533  2.949205  -0.007  -0.24591  -0.002145  3.209212  -0.003  -0.251528  -0.00294  3.219396  -0.004  -0.290618  -0.241961  -0.000771  3.202623  -0.001
Cl  Cl32  1  0.16962663  0.93251889  0.14366376  1  -0.524871  -0.119347  1.051825  -0.139  -0.532577  -0.073287  1.367679  -0.091  -0.568399  -0.055821  1.338476  -0.072  -0.2747  -0.511396  -0.082225  1.390095  -0.099
Cl  Cl33  1  0.83036636  0.06747633  0.85633382  1  -0.524882  0.119331  1.051853  0.139  -0.53256  0.073277  1.367714  0.091  -0.56836  0.055821  1.338489  0.072  -0.274706  -0.511375  0.082215  1.390127  0.099
O  O34  1  0.04204329  0.13139754  0.44428051  1  -0.624924  -0.064273  2.078791  -0.087  -0.588774  -0.047599  2.359386  -0.07  -0.633877  -0.038008  2.347734  -0.059  -0.325706  -0.558915  -0.052018  2.368308  -0.074
O  O35  1  0.95794588  0.86860552  0.55572324  1  -0.624963  0.064282  2.0787  0.087  -0.588783  0.047604  2.359325  0.07  -0.633872  0.038012  2.347645  0.059  -0.325673  -0.55892  0.052024  2.368237  0.074
O  O36  1  0.39801375  0.32769921  0.53753611  1  -0.521464  -0.021577  1.908134  -0.027  -0.485258  -0.009339  2.126079  -0.013  -0.510086  -0.003907  2.119785  -0.006  -0.285324  -0.465663  -0.015759  2.128734  -0.021
O  O37  1  0.60203167  0.67230049  0.46245885  1  -0.521482  0.021575  1.908278  0.027  -0.485252  0.009341  2.126224  0.013  -0.510078  0.003909  2.11993  0.006  -0.285343  -0.465659  0.015759  2.128882  0.021
O  O38  1  0.65098224  0.87571318  0.34143635  1  -0.805289  -0.046422  1.977298  -0.06  -0.762847  -0.036629  2.189196  -0.051  -0.795498  -0.030487  2.151504  -0.044  -0.582525  -0.741485  -0.039426  2.216565  -0.053
O  O39  1  0.34899862  0.12428409  0.65856327  1  -0.805369  0.04642  1.97727  0.06  -0.762921  0.036629  2.189164  0.051  -0.795565  0.03049  2.151445  0.044  -0.582557  -0.741557  0.039425  2.216532  0.053
