# generated using pymatgen
data_ZnH28C37(N2O3)2
_symmetry_space_group_name_H-M   'P 1'
_cell_length_a   11.67178668
_cell_length_b   15.38169675
_cell_length_c   26.85070440
_cell_angle_alpha   89.99993784
_cell_angle_beta   89.99988215
_cell_angle_gamma   90.00010546
_symmetry_Int_Tables_number   1
_chemical_formula_structural   ZnH28C37(N2O3)2
_chemical_formula_sum   'Zn4 H112 C148 N16 O24'
_cell_volume   4820.55752511
_cell_formula_units_Z   4
loop_
 _symmetry_equiv_pos_site_id
 _symmetry_equiv_pos_as_xyz
  1  'x, y, z'
loop_
 _atom_site_type_symbol
 _atom_site_label
 _atom_site_symmetry_multiplicity
 _atom_site_fract_x
 _atom_site_fract_y
 _atom_site_fract_z
 _atom_site_occupancy
 _atom_site_pbe_bader_charge
 _atom_site_pbe_bader_spin_density
 _atom_site_pbe_cm5_charge
 _atom_site_pbe_ddec_charge
 _atom_site_pbe_ddec_spin_density
 _atom_site_pbe_ddec_sum_bond_order
 _atom_site_pbe_magmom
Zn  Zn0  1  0.52957519  0.56546138  0.70361837  1  1.257259  0  0.698076  0.775444  0  2.406358  0
Zn  Zn1  1  0.97042303  0.43453642  0.20361867  1  1.257252  0  0.698036  0.775304  0  2.406494  0
Zn  Zn2  1  0.47042232  0.06546244  0.79638223  1  1.257334  0  0.698043  0.775347  0  2.406457  0
Zn  Zn3  1  0.02957603  0.93453578  0.29638112  1  1.257262  0  0.698048  0.775361  0  2.406502  0
H  H4  1  0.53892620  0.48250579  0.55060118  1  0.644975  0  0.29467  0.343444  0  0.997695  0
H  H5  1  0.96107445  0.51749359  0.05060218  1  0.644967  0  0.294667  0.343416  0  0.997714  0
H  H6  1  0.46107318  0.98250676  0.94939767  1  0.644957  0  0.294649  0.34338  0  0.997765  0
H  H7  1  0.03892616  0.01749312  0.44939713  1  0.644953  0  0.294652  0.343386  0  0.997736  0
H  H8  1  0.24422903  0.51989312  0.29890809  1  0.642816  0  0.289625  0.338896  0  1.011356  0
H  H9  1  0.25577102  0.48010835  0.79890839  1  0.642842  0  0.289595  0.338827  0  1.011402  0
H  H10  1  0.75577159  0.01989281  0.20109196  1  0.642816  0  0.289583  0.338819  0  1.011423  0
H  H11  1  0.74423264  0.98010629  0.70109084  1  0.642829  0  0.289626  0.338843  0  1.01141  0
H  H12  1  0.27799198  0.67141320  0.59754302  1  0.102693  0  0.098523  0.103016  0  1.045551  0
H  H13  1  0.22201245  0.32858800  0.09754398  1  0.102692  0  0.098536  0.10303  0  1.045653  0
H  H14  1  0.72200836  0.17141572  0.90245751  1  0.102651  0  0.098547  0.103073  0  1.045708  0
H  H15  1  0.77799063  0.82858625  0.40245662  1  0.102675  0  0.098555  0.103027  0  1.045658  0
H  H16  1  0.12907068  0.75407957  0.55485256  1  0.040066  0  0.09272  0.092248  0  1.03872  0
H  H17  1  0.37093138  0.24592041  0.05485195  1  0.040088  0  0.092748  0.092304  0  1.038702  0
H  H18  1  0.87092986  0.25408091  0.94514866  1  0.040067  0  0.092748  0.092245  0  1.038793  0
H  H19  1  0.62906807  0.74592033  0.44514796  1  0.040084  0  0.092753  0.09233  0  1.038693  0
H  H20  1  0.01376464  0.78556374  0.47881773  1  0.06194  0  0.091565  0.093594  0  1.039003  0
H  H21  1  0.48623542  0.21443544  0.97881612  1  0.062245  0  0.091537  0.093569  0  1.038938  0
H  H22  1  0.98623577  0.28556409  0.02118327  1  0.06225  0  0.09154  0.093566  0  1.038977  0
H  H23  1  0.51376160  0.71443730  0.52118401  1  0.062231  0  0.091546  0.093575  0  1.038959  0
H  H24  1  0.05397794  0.70341230  0.40045108  1  0.022063  0  0.092244  0.08776  0  1.009496  0
H  H25  1  0.44601992  0.29658832  0.90044946  1  0.022031  0  0.092248  0.087788  0  1.009451  0
H  H26  1  0.94602313  0.20341115  0.09954997  1  0.022044  0  0.092244  0.087756  0  1.00949  0
H  H27  1  0.55397815  0.79659009  0.59955063  1  0.02202  0  0.092249  0.087754  0  1.009453  0
H  H28  1  0.20409621  0.59247601  0.39750252  1  0.057595  0  0.094576  0.09637  0  1.07741  0
H  H29  1  0.29589995  0.40752462  0.89750208  1  0.057585  0  0.094579  0.096398  0  1.077371  0
H  H30  1  0.79590115  0.09247465  0.10249786  1  0.05759  0  0.094543  0.096315  0  1.077381  0
H  H31  1  0.70410011  0.90752594  0.60249794  1  0.05757  0  0.09454  0.096312  0  1.077385  0
H  H32  1  0.03314100  0.30028971  0.34794905  1  0.082945  0  0.101927  0.107958  0  1.007231  0
H  H33  1  0.46685540  0.69971036  0.84795014  1  0.082998  0  0.101933  0.107982  0  1.007228  0
H  H34  1  0.96685602  0.80028935  0.15205120  1  0.082971  0  0.101936  0.107948  0  1.007233  0
H  H35  1  0.53314330  0.19970919  0.65205261  1  0.082965  0  0.101954  0.10802  0  1.007141  0
H  H36  1  0.03232078  0.20388740  0.42129539  1  0.047771  0  0.099151  0.100259  0  1.001544  0
H  H37  1  0.46767612  0.79611513  0.92129530  1  0.048236  0  0.099185  0.100341  0  1.001558  0
H  H38  1  0.96767771  0.70388458  0.07870529  1  0.048209  0  0.099152  0.10031  0  1.001556  0
H  H39  1  0.53232110  0.29611280  0.57870590  1  0.048202  0  0.099135  0.100237  0  1.001603  0
H  H40  1  0.11035486  0.16244722  0.50372672  1  0.061955  0  0.09807  0.106035  0  1.019756  0
H  H41  1  0.38964059  0.83755481  0.00372647  1  0.062074  0  0.098072  0.106027  0  1.019774  0
H  H42  1  0.88964117  0.66244415  0.99627382  1  0.062047  0  0.098059  0.106014  0  1.019784  0
H  H43  1  0.61035481  0.33755374  0.49627413  1  0.061962  0  0.098071  0.106048  0  1.019771  0
H  H44  1  0.27266679  0.24781694  0.54050182  1  0.027688  0  0.098727  0.09364  0  0.995451  0
H  H45  1  0.22733020  0.75218437  0.04050177  1  0.027649  0  0.098729  0.093643  0  0.995466  0
H  H46  1  0.72733116  0.74781502  0.95949829  1  0.027673  0  0.098716  0.093611  0  0.995436  0
H  H47  1  0.77266756  0.25218424  0.45949776  1  0.027677  0  0.098736  0.093673  0  0.995396  0
H  H48  1  0.35402049  0.37271028  0.49628093  1  0.090927  0  0.097682  0.102371  0  1.054297  0
H  H49  1  0.14597949  0.62729016  0.99628124  1  0.090926  0  0.097676  0.102346  0  1.054325  0
H  H50  1  0.64597928  0.87270976  0.00371890  1  0.090946  0  0.097685  0.102356  0  1.054299  0
H  H51  1  0.85401989  0.12729036  0.50371821  1  0.090962  0  0.097688  0.102364  0  1.054326  0
H  H52  1  0.40371511  0.53879482  0.39832626  1  0.039859  0  0.092951  0.094499  0  1.03866  0
H  H53  1  0.09628533  0.46120451  0.89832708  1  0.039883  0  0.092953  0.094484  0  1.038624  0
H  H54  1  0.59628469  0.03879513  0.10167378  1  0.039863  0  0.092934  0.094473  0  1.038623  0
H  H55  1  0.90371572  0.96120546  0.60167252  1  0.039887  0  0.092949  0.094499  0  1.038619  0
H  H56  1  0.45396087  0.45392512  0.43637033  1  0.072281  0  0.103296  0.117338  0  0.984227  0
H  H57  1  0.04604111  0.54607349  0.93637152  1  0.072302  0  0.103302  0.117309  0  0.984252  0
H  H58  1  0.54603909  0.95392499  0.06362907  1  0.072274  0  0.103288  0.117344  0  0.98421  0
H  H59  1  0.95396236  0.04607372  0.56362835  1  0.072262  0  0.103274  0.117314  0  0.984235  0
H  H60  1  0.52971446  0.41877267  0.78832309  1  0.151467  0  0.140167  0.109473  0  0.996826  0
H  H61  1  0.97028592  0.58122562  0.28832329  1  0.151446  0  0.140153  0.109442  0  0.996851  0
H  H62  1  0.47028477  0.91877280  0.71167730  1  0.151479  0  0.140175  0.109459  0  0.996818  0
H  H63  1  0.02971399  0.08122493  0.21167783  1  0.151469  0  0.140178  0.109484  0  0.996816  0
H  H64  1  0.68698893  0.42332572  0.64692188  1  0.148302  0  0.123934  0.126504  0  1.005179  0
H  H65  1  0.81301127  0.57667478  0.14692186  1  0.148319  0  0.12388  0.126473  0  1.005106  0
H  H66  1  0.31300946  0.92332472  0.85307812  1  0.148304  0  0.123904  0.126512  0  1.005176  0
H  H67  1  0.18698606  0.07667469  0.35307927  1  0.148272  0  0.123907  0.126444  0  1.005172  0
H  H68  1  0.75556938  0.27342614  0.69735968  1  0.136771  0  0.131747  0.13696  0  0.985936  0
H  H69  1  0.74443229  0.72657492  0.19736000  1  0.136765  0  0.131762  0.13699  0  0.985883  0
H  H70  1  0.24442949  0.77342514  0.80264042  1  0.136732  0  0.131755  0.136974  0  0.985902  0
H  H71  1  0.25556797  0.22657307  0.30264067  1  0.136764  0  0.13177  0.136991  0  0.985914  0
H  H72  1  0.63036120  0.19991588  0.77788986  1  0.105702  0  0.114862  0.107407  0  1.030267  0
H  H73  1  0.86964096  0.80008373  0.27788891  1  0.105667  0  0.114876  0.107413  0  1.030178  0
H  H74  1  0.36963836  0.69991455  0.72211065  1  0.105665  0  0.114878  0.107406  0  1.030189  0
H  H75  1  0.13036035  0.30008251  0.22211097  1  0.105713  0  0.114864  0.107375  0  1.030277  0
H  H76  1  0.59520205  0.27947400  0.82254306  1  0.05953  0  0.119766  0.106266  0  0.96331  0
H  H77  1  0.90479904  0.72052682  0.32254286  1  0.059528  0  0.119779  0.106338  0  0.96325  0
H  H78  1  0.40479856  0.77947281  0.67745704  1  0.059538  0  0.119786  0.106319  0  0.963249  0
H  H79  1  0.09520121  0.22052498  0.17745780  1  0.059546  0  0.119757  0.106237  0  0.963313  0
H  H80  1  0.78952947  0.11863429  0.80424443  1  0.10919  0  0.107966  0.12092  0  0.996134  0
H  H81  1  0.71047256  0.88136591  0.30424394  1  0.109137  0  0.107976  0.120939  0  0.99612  0
H  H82  1  0.21047074  0.61863410  0.69575539  1  0.109171  0  0.107969  0.120904  0  0.996155  0
H  H83  1  0.28952808  0.38136431  0.19575625  1  0.109181  0  0.107956  0.120893  0  0.996152  0
H  H84  1  0.98314668  0.10870571  0.84234093  1  0.064756  0  0.106417  0.1079  0  0.983839  0
H  H85  1  0.51685431  0.89129702  0.34233986  1  0.064681  0  0.106436  0.107917  0  0.983867  0
H  H86  1  0.01685351  0.60870467  0.65765853  1  0.064721  0  0.106474  0.107951  0  0.983882  0
H  H87  1  0.48314636  0.39129447  0.15765996  1  0.064738  0  0.106433  0.10792  0  0.983841  0
H  H88  1  0.98261919  0.38571804  0.86604897  1  0.080449  0  0.103317  0.107  0  1.025761  0
H  H89  1  0.51738083  0.61428530  0.36604882  1  0.078779  0  0.103296  0.106937  0  1.025725  0
H  H90  1  0.01738081  0.88571574  0.63395068  1  0.080476  0  0.103319  0.106974  0  1.025724  0
H  H91  1  0.48261831  0.11428279  0.13395080  1  0.080461  0  0.103326  0.107016  0  1.025796  0
H  H92  1  0.78999926  0.39575324  0.82793981  1  0.102113  0  0.104681  0.106582  0  0.991724  0
H  H93  1  0.71000266  0.60424887  0.32794024  1  0.101877  0  0.104695  0.106628  0  0.991668  0
H  H94  1  0.21000077  0.89575179  0.67206021  1  0.101869  0  0.104685  0.106596  0  0.991691  0
H  H95  1  0.28999817  0.10424667  0.17205976  1  0.102106  0  0.104679  0.106583  0  0.99172  0
H  H96  1  0.13160106  0.30233129  0.90120079  1  0.096234  0  0.114394  0.102039  0  1.014417  0
H  H97  1  0.36840023  0.69767193  0.40120064  1  0.096297  0  0.114372  0.102097  0  1.014427  0
H  H98  1  0.86840046  0.80233025  0.59879855  1  0.096285  0  0.114376  0.102055  0  1.01438  0
H  H99  1  0.63159997  0.19766970  0.09879967  1  0.096206  0  0.114351  0.101991  0  1.014479  0
H  H100  1  0.11174361  0.18959598  0.91083000  1  0.079238  0  0.124813  0.112437  0  0.948177  0
H  H101  1  0.38825848  0.81040722  0.41082976  1  0.079244  0  0.124854  0.112507  0  0.94811  0
H  H102  1  0.88825849  0.68959433  0.58916941  1  0.07925  0  0.12487  0.112511  0  0.948081  0
H  H103  1  0.61174370  0.31040563  0.08917085  1  0.079307  0  0.124808  0.112421  0  0.948166  0
H  H104  1  0.18810854  0.33025748  0.79703812  1  0.149418  0  0.131625  0.141205  0  0.999884  0
H  H105  1  0.31189067  0.66974529  0.29703841  1  0.149504  0  0.131641  0.141275  0  0.999845  0
H  H106  1  0.81188962  0.83025486  0.70296120  1  0.149506  0  0.131637  0.141246  0  0.999881  0
H  H107  1  0.68811032  0.16974359  0.20296266  1  0.14941  0  0.131639  0.141263  0  0.999962  0
H  H108  1  0.36678641  0.24186753  0.74936334  1  0.119439  0  0.124725  0.12664  0  0.99121  0
H  H109  1  0.13321216  0.75813403  0.24936486  1  0.119377  0  0.124729  0.126656  0  0.991226  0
H  H110  1  0.63321324  0.74186392  0.75063491  1  0.11949  0  0.124693  0.126598  0  0.991247  0
H  H111  1  0.86678647  0.25813314  0.25063653  1  0.119421  0  0.124749  0.126647  0  0.991282  0
H  H112  1  0.26963629  0.10204141  0.87765019  1  0.143261  0  0.141242  0.112798  0  0.996002  0
H  H113  1  0.23036253  0.89795991  0.37765042  1  0.14322  0  0.141212  0.112753  0  0.99607  0
H  H114  1  0.73036388  0.60203948  0.62234889  1  0.143198  0  0.141232  0.112783  0  0.99595  0
H  H115  1  0.76963558  0.39795977  0.12235051  1  0.14327  0  0.141213  0.112753  0  0.99605  0
C  C116  1  0.45513008  0.56133638  0.60782502  1  1.512823  0  0.204587  0.583053  0  4.178881  0
C  C117  1  0.04487173  0.43866220  0.10782607  1  1.512915  0  0.20446  0.582852  0  4.179061  0
C  C118  1  0.54487170  0.06133802  0.89217410  1  1.512895  0  0.204447  0.582836  0  4.179125  0
C  C119  1  0.95512905  0.93866007  0.39217335  1  1.512901  0  0.204416  0.582825  0  4.179166  0
C  C120  1  0.29703024  0.63703148  0.56305231  1  -0.041139  0  -0.083259  -0.118535  0  3.977467  0
C  C121  1  0.20297436  0.36296979  0.06305326  1  -0.041296  0  -0.083282  -0.118616  0  3.977619  0
C  C122  1  0.70297088  0.13703390  0.93694713  1  -0.041155  0  -0.083327  -0.118705  0  3.977673  0
C  C123  1  0.79702795  0.86296931  0.43694694  1  -0.041649  0  -0.08331  -0.118576  0  3.977599  0
C  C124  1  0.38598313  0.57771819  0.56234840  1  -0.018853  0  -0.039203  -0.172733  0  4.035772  0
C  C125  1  0.11401890  0.42228243  0.06234939  1  -0.019028  0  -0.03917  -0.172583  0  4.035749  0
C  C126  1  0.61401784  0.07771918  0.93765071  1  -0.018703  0  -0.039131  -0.17254  0  4.035719  0
C  C127  1  0.88598270  0.92228207  0.43765003  1  -0.019157  0  -0.039137  -0.172583  0  4.035692  0
C  C128  1  0.41254638  0.53249242  0.51700992  1  0.472469  0  0.081654  0.237192  0  4.068778  0
C  C129  1  0.08745586  0.46750829  0.01701091  1  0.472368  0  0.081617  0.237158  0  4.068655  0
C  C130  1  0.58745362  0.03249329  0.98298958  1  0.47252  0  0.081638  0.237148  0  4.068709  0
C  C131  1  0.91254413  0.96750722  0.48298885  1  0.4724  0  0.081614  0.237116  0  4.068686  0
C  C132  1  0.34642037  0.54411857  0.47413733  1  0.062234  0  -0.028384  -0.061589  0  3.917951  0
C  C133  1  0.15357886  0.45588192  0.97413773  1  0.06224  0  -0.028354  -0.061561  0  3.917892  0
C  C134  1  0.65357774  0.04411845  0.02586270  1  0.062246  0  -0.028337  -0.061511  0  3.917899  0
C  C135  1  0.84642218  0.95588228  0.52586225  1  0.062217  0  -0.028325  -0.061514  0  3.917945  0
C  C136  1  0.25549092  0.60621113  0.47505278  1  -0.061542  0  -0.006777  0.044054  0  3.968771  0
C  C137  1  0.24450830  0.39379000  0.97505277  1  -0.061539  0  -0.006821  0.044041  0  3.968712  0
C  C138  1  0.74450648  0.10621244  0.02494684  1  -0.061709  0  -0.006745  0.04407  0  3.968598  0
C  C139  1  0.75549172  0.89379089  0.52494725  1  -0.061579  0  -0.00684  0.04399  0  3.968731  0
C  C140  1  0.23161964  0.65410501  0.52000914  1  0.019166  0  -0.019761  0.052989  0  4.033919  0
C  C141  1  0.26838174  0.34589634  0.02000930  1  0.019663  0  -0.019744  0.052962  0  4.033972  0
C  C142  1  0.76838238  0.15410614  0.97999066  1  0.019353  0  -0.019806  0.052919  0  4.033926  0
C  C143  1  0.73161796  0.84589698  0.47999017  1  0.019761  0  -0.019712  0.053028  0  4.03386  0
C  C144  1  0.14398874  0.71827927  0.52035776  1  -0.070898  0  -0.094987  -0.123343  0  3.989598  0
C  C145  1  0.35601177  0.28172207  0.02035751  1  -0.070968  0  -0.094985  -0.123369  0  3.989642  0
C  C146  1  0.85601086  0.21828118  0.97964238  1  -0.070757  0  -0.09494  -0.123228  0  3.989559  0
C  C147  1  0.64398606  0.78172259  0.47964238  1  -0.071471  0  -0.095036  -0.123519  0  3.989765  0
C  C148  1  0.08038677  0.73585860  0.47830637  1  -0.037918  0  -0.109777  -0.107616  0  4.050831  0
C  C149  1  0.41961329  0.26414253  0.97830516  1  -0.038109  0  -0.109756  -0.107575  0  4.050842  0
C  C150  1  0.91961437  0.23585886  0.02169541  1  -0.038384  0  -0.109758  -0.107576  0  4.050803  0
C  C151  1  0.58038299  0.76414448  0.52169382  1  -0.037983  0  -0.109732  -0.107484  0  4.050797  0
C  C152  1  0.10322309  0.68898672  0.43404832  1  -0.052701  0  -0.099645  -0.077944  0  4.041399  0
C  C153  1  0.39677462  0.31101384  0.93404747  1  -0.052662  0  -0.099645  -0.078002  0  4.041493  0
C  C154  1  0.89677623  0.18898556  0.06595200  1  -0.052682  0  -0.099689  -0.078035  0  4.04155  0
C  C155  1  0.60322178  0.81101704  0.56595223  1  -0.052256  0  -0.099675  -0.07802  0  4.041393  0
C  C156  1  0.18761026  0.62607434  0.43240328  1  -0.023585  0  -0.104203  -0.152886  0  3.994546  0
C  C157  1  0.31238745  0.37392557  0.93240322  1  -0.02362  0  -0.104203  -0.152878  0  3.994507  0
C  C158  1  0.81238804  0.12607502  0.06759633  1  -0.023599  0  -0.104196  -0.152826  0  3.994381  0
C  C159  1  0.68761082  0.87392693  0.56759645  1  -0.023674  0  -0.104173  -0.152781  0  3.994416  0
C  C160  1  0.10621323  0.42859296  0.28747608  1  1.479084  0  0.195274  0.564273  0  4.205856  0
C  C161  1  0.39378773  0.57140788  0.78747619  1  1.479688  0  0.195222  0.564217  0  4.205885  0
C  C162  1  0.89378667  0.92859238  0.21252334  1  1.479663  0  0.195302  0.564348  0  4.205728  0
C  C163  1  0.60621579  0.07140604  0.71252329  1  1.479291  0  0.195322  0.564415  0  4.205507  0
C  C164  1  0.10418583  0.33666740  0.36411581  1  0.011069  0  -0.084951  -0.127532  0  4.010115  0
C  C165  1  0.39581306  0.66333330  0.86411661  1  0.011047  0  -0.084967  -0.127561  0  4.010105  0
C  C166  1  0.89581299  0.83666697  0.13588441  1  0.011036  0  -0.084924  -0.127394  0  4.010175  0
C  C167  1  0.60418897  0.16333095  0.63588467  1  0.011167  0  -0.084952  -0.127548  0  4.010063  0
C  C168  1  0.15155918  0.40460599  0.33718239  1  -0.011876  0  -0.047702  -0.188472  0  4.058471  0
C  C169  1  0.34843983  0.59539540  0.83718291  1  -0.011785  0  -0.047669  -0.188435  0  4.058427  0
C  C170  1  0.84843980  0.90460415  0.16281741  1  -0.011841  0  -0.047705  -0.188638  0  4.058709  0
C  C171  1  0.65156204  0.09539307  0.66281693  1  -0.011783  0  -0.047704  -0.188567  0  4.058773  0
C  C172  1  0.24452525  0.45353432  0.35823765  1  0.391279  0  0.074413  0.233889  0  4.068922  0
C  C173  1  0.25547452  0.54646509  0.85823828  1  0.391183  0  0.074402  0.233815  0  4.068998  0
C  C174  1  0.75547471  0.95353434  0.14176287  1  0.391445  0  0.0745  0.234071  0  4.0688  0
C  C175  1  0.74452723  0.04646487  0.64176159  1  0.391155  0  0.07444  0.233931  0  4.06927  0
C  C176  1  0.28512216  0.43583795  0.40601553  1  0.111318  0  -0.02729  -0.050102  0  3.917808  0
C  C177  1  0.21487825  0.56416007  0.90601656  1  0.11137  0  -0.027307  -0.050095  0  3.917826  0
C  C178  1  0.71487690  0.93583930  0.09398463  1  0.111636  0  -0.027387  -0.05021  0  3.917756  0
C  C179  1  0.78512526  0.06416000  0.59398367  1  0.111654  0  -0.027387  -0.050195  0  3.917909  0
C  C180  1  0.23926699  0.36357083  0.43258918  1  -0.041164  0  -0.004083  0.052174  0  3.96434  0
C  C181  1  0.26073500  0.63642779  0.93259049  1  -0.041148  0  -0.004125  0.052122  0  3.964364  0
C  C182  1  0.76073361  0.86357229  0.06740991  1  -0.0416  0  -0.0041  0.052141  0  3.964319  0
C  C183  1  0.73926696  0.13642706  0.56741044  1  -0.041604  0  -0.004104  0.052135  0  3.964327  0
C  C184  1  0.14705059  0.31340337  0.41137042  1  -0.015577  0  -0.018959  0.051471  0  4.036088  0
C  C185  1  0.35294808  0.68659594  0.91137162  1  -0.015588  0  -0.018994  0.051466  0  4.03606  0
C  C186  1  0.85294732  0.81340362  0.08862981  1  -0.015506  0  -0.019  0.05147  0  4.036029  0
C  C187  1  0.64705316  0.18659439  0.58863039  1  -0.01558  0  -0.019034  0.051415  0  4.035968  0
C  C188  1  0.10193567  0.24125652  0.43807852  1  -0.070597  0  -0.0926  -0.125845  0  3.993776  0
C  C189  1  0.39806373  0.75874468  0.93807963  1  -0.071082  0  -0.092629  -0.125996  0  3.993896  0
C  C190  1  0.89806206  0.74125494  0.06192177  1  -0.07113  0  -0.092504  -0.125914  0  3.99381  0
C  C191  1  0.60193597  0.25874442  0.56192234  1  -0.070948  0  -0.092492  -0.125737  0  3.993776  0
C  C192  1  0.14557324  0.21816413  0.48388810  1  -0.01106  0  -0.103806  -0.105207  0  4.044001  0
C  C193  1  0.35442337  0.78183634  0.98388887  1  -0.011117  0  -0.103756  -0.105129  0  4.044113  0
C  C194  1  0.85442444  0.71816257  0.01611182  1  -0.011083  0  -0.1038  -0.105175  0  4.044069  0
C  C195  1  0.64557381  0.28183428  0.51611197  1  -0.011139  0  -0.103819  -0.105235  0  4.044109  0
C  C196  1  0.23698256  0.26677260  0.50453890  1  -0.038882  0  -0.092542  -0.073199  0  4.039212  0
C  C197  1  0.26301631  0.73322813  0.00453957  1  -0.038918  0  -0.092565  -0.0732  0  4.039096  0
C  C198  1  0.76301544  0.76677130  0.99546157  1  -0.038901  0  -0.092589  -0.073191  0  4.039156  0
C  C199  1  0.73698311  0.23322789  0.49546146  1  -0.038879  0  -0.092587  -0.073269  0  4.039124  0
C  C200  1  0.28254728  0.33743326  0.47981362  1  -0.064571  0  -0.098862  -0.141894  0  3.976634  0
C  C201  1  0.21745192  0.66256527  0.97981496  1  -0.064609  0  -0.098843  -0.14185  0  3.976566  0
C  C202  1  0.71745154  0.83743280  0.02018585  1  -0.064588  0  -0.098843  -0.141835  0  3.976594  0
C  C203  1  0.78254754  0.16256599  0.52018595  1  -0.064595  0  -0.098837  -0.141842  0  3.97666  0
C  C204  1  0.37789289  0.49318667  0.42770913  1  -0.018464  0  -0.158291  -0.203494  0  3.969875  0
C  C205  1  0.12210741  0.50681325  0.92771027  1  -0.018528  0  -0.158267  -0.203445  0  3.969986  0
C  C206  1  0.62210631  0.99318663  0.07229025  1  -0.018552  0  -0.158258  -0.203499  0  3.969888  0
C  C207  1  0.87789424  0.00681336  0.57228962  1  -0.018524  0  -0.158255  -0.203483  0  3.969967  0
C  C208  1  0.58294544  0.40152821  0.75676375  1  0.981691  0  0.145061  0.08693  0  3.924039  0
C  C209  1  0.91705424  0.59847208  0.25676399  1  0.981748  0  0.14505  0.086902  0  3.924139  0
C  C210  1  0.41705374  0.90152757  0.74323590  1  0.981682  0  0.145065  0.086946  0  3.923955  0
C  C211  1  0.08294657  0.09847141  0.24323638  1  0.981461  0  0.145034  0.086882  0  3.92411  0
C  C212  1  0.66712381  0.40096988  0.68416747  1  0.343921  0  0.001895  -0.031645  0  3.993358  0
C  C213  1  0.83287878  0.59903120  0.18416779  1  0.343947  0  0.001905  -0.031694  0  3.99352  0
C  C214  1  0.33287623  0.90096833  0.81583254  1  0.343927  0  0.00194  -0.031669  0  3.993371  0
C  C215  1  0.16712032  0.09902985  0.31583369  1  0.344463  0  0.001841  -0.031587  0  3.993424  0
C  C216  1  0.70072435  0.32677001  0.70846629  1  0.339683  0  0.007549  -0.095474  0  3.911108  0
C  C217  1  0.79927727  0.67323168  0.20846584  1  0.339662  0  0.007545  -0.095519  0  3.911018  0
C  C218  1  0.29927551  0.82676846  0.79153415  1  0.339662  0  0.007519  -0.095528  0  3.911113  0
C  C219  1  0.20072286  0.17323043  0.29153485  1  0.339144  0  0.007508  -0.095594  0  3.911092  0
C  C220  1  0.65709665  0.26252471  0.79323915  1  0.303231  0  -0.045502  -0.116896  0  3.904162  0
C  C221  1  0.84290458  0.73747682  0.29323900  1  0.303194  0  -0.045566  -0.116651  0  3.904541  0
C  C222  1  0.34290306  0.76252403  0.70676096  1  0.303206  0  -0.045523  -0.116506  0  3.904402  0
C  C223  1  0.15709657  0.23747436  0.20676166  1  0.303175  0  -0.045548  -0.116881  0  3.904211  0
C  C224  1  0.77685632  0.25755198  0.81399237  1  -0.036118  0  -0.012741  0.084047  0  3.988433  0
C  C225  1  0.72314566  0.74245016  0.31399233  1  -0.036144  0  -0.012744  0.08247  0  3.990838  0
C  C226  1  0.22314423  0.75755117  0.68600662  1  -0.03624  0  -0.012758  0.082434  0  3.990767  0
C  C227  1  0.27685636  0.24244661  0.18600796  1  -0.036067  0  -0.01272  0.084099  0  3.988411  0
C  C228  1  0.83277482  0.17720522  0.81737440  1  -0.051081  0  -0.082755  -0.119671  0  3.966519  0
C  C229  1  0.66722458  0.82279756  0.31737324  1  -0.05108  0  -0.082813  -0.119209  0  3.967112  0
C  C230  1  0.16722554  0.67720369  0.68262538  1  -0.051057  0  -0.082724  -0.11908  0  3.967041  0
C  C231  1  0.33277506  0.32279540  0.18262624  1  -0.0511  0  -0.082745  -0.119627  0  3.966546  0
C  C232  1  0.94099041  0.17183266  0.83912686  1  -0.02285  0  -0.086322  -0.125613  0  3.982995  0
C  C233  1  0.55900974  0.82816943  0.33912579  1  -0.022747  0  -0.086344  -0.125602  0  3.98302  0
C  C234  1  0.05900993  0.67183102  0.66087256  1  -0.022469  0  -0.086433  -0.125694  0  3.982953  0
C  C235  1  0.44098992  0.32816681  0.16087369  1  -0.022844  0  -0.086322  -0.125631  0  3.983095  0
C  C236  1  0.99498048  0.24649154  0.85749281  1  0.014676  0  -0.014272  0.076716  0  4.007349  0
C  C237  1  0.50501873  0.75351246  0.35749258  1  0.014676  0  -0.014263  0.076681  0  4.007495  0
C  C238  1  0.00501919  0.74648921  0.64250619  1  0.014246  0  -0.014229  0.076731  0  4.007262  0
C  C239  1  0.49497989  0.25350865  0.14250695  1  0.01467  0  -0.014293  0.076643  0  4.007473  0
C  C240  1  0.94029487  0.32702294  0.85263819  1  -0.09234  0  -0.08771  -0.125855  0  3.989318  0
C  C241  1  0.55970350  0.67297978  0.35263759  1  -0.090665  0  -0.087739  -0.125723  0  3.988936  0
C  C242  1  0.05970499  0.82702197  0.64736150  1  -0.092318  0  -0.087796  -0.125847  0  3.98894  0
C  C243  1  0.44029492  0.17297718  0.14736199  1  -0.092337  0  -0.087725  -0.125867  0  3.989407  0
C  C244  1  0.83191992  0.33254178  0.83118479  1  -0.100865  0  -0.090746  -0.132657  0  3.997651  0
C  C245  1  0.66808112  0.66746098  0.33118522  1  -0.10054  0  -0.090702  -0.132184  0  3.998013  0
C  C246  1  0.16807996  0.83254028  0.66881452  1  -0.10048  0  -0.090684  -0.132107  0  3.998079  0
C  C247  1  0.33191985  0.16745819  0.16881474  1  -0.100879  0  -0.09075  -0.132692  0  3.997713  0
C  C248  1  0.11043546  0.24103182  0.88244935  1  0.287842  0  -0.040183  -0.112266  0  3.896035  0
C  C249  1  0.38956506  0.75897144  0.38244952  1  0.28774  0  -0.040182  -0.112406  0  3.89614  0
C  C250  1  0.88956505  0.74103011  0.61755002  1  0.287763  0  -0.040199  -0.11229  0  3.896068  0
C  C251  1  0.61043443  0.25896849  0.11755112  1  0.28785  0  -0.040122  -0.112129  0  3.895945  0
C  C252  1  0.23133148  0.26992150  0.80567663  1  0.301616  0  0.006659  -0.100181  0  3.909386  0
C  C253  1  0.26866940  0.73008125  0.30567692  1  0.301613  0  0.006596  -0.100392  0  3.909302  0
C  C254  1  0.76866910  0.76991949  0.69432198  1  0.301495  0  0.006609  -0.100297  0  3.909318  0
C  C255  1  0.73133001  0.23007767  0.19432411  1  0.30175  0  0.006595  -0.100334  0  3.909365  0
C  C256  1  0.31945680  0.22614358  0.78289098  1  0.392728  0  -0.001613  -0.036334  0  3.999274  0
C  C257  1  0.18054247  0.77385792  0.28289133  1  0.392993  0  -0.001583  -0.036242  0  3.999311  0
C  C258  1  0.68054196  0.72614075  0.71710803  1  0.392965  0  -0.001548  -0.036158  0  3.99926  0
C  C259  1  0.81945791  0.27385767  0.21711005  1  0.392697  0  -0.00162  -0.036282  0  3.999204  0
C  C260  1  0.27124200  0.15067977  0.84841296  1  0.998158  0  0.144519  0.084061  0  3.930025  0
C  C261  1  0.22875696  0.84932291  0.34841321  1  0.998195  0  0.144583  0.084101  0  3.930043  0
C  C262  1  0.72876000  0.65067778  0.65158647  1  0.998445  0  0.144511  0.084107  0  3.929923  0
C  C263  1  0.77124103  0.34932011  0.15158775  1  0.998174  0  0.144587  0.084133  0  3.930074  0
N  N264  1  0.59366289  0.44703754  0.71476297  1  -1.21389  0  -0.360783  -0.285317  0  3.641465  0
N  N265  1  0.90633527  0.55296153  0.21476399  1  -1.213921  0  -0.360724  -0.285199  0  3.641645  0
N  N266  1  0.40633469  0.94703745  0.78523702  1  -1.21383  0  -0.360786  -0.285257  0  3.641398  0
N  N267  1  0.09366286  0.05296014  0.28523790  1  -1.213716  0  -0.360714  -0.285266  0  3.641516  0
N  N268  1  0.64639152  0.32817484  0.75419658  1  -1.22836  0  -0.237831  0.050935  0  3.793284  0
N  N269  1  0.85361075  0.67182611  0.25419646  1  -1.228346  0  -0.237777  0.051144  0  3.792989  0
N  N270  1  0.35360749  0.82817280  0.74580385  1  -1.228319  0  -0.23783  0.050999  0  3.793084  0
N  N271  1  0.14639196  0.17182292  0.24580349  1  -1.228288  0  -0.237731  0.051071  0  3.793303  0
N  N272  1  0.34338272  0.15189559  0.80996775  1  -1.231603  0  -0.361789  -0.290021  0  3.619941  0
N  N273  1  0.15661300  0.84810521  0.30996844  1  -1.231732  0  -0.361745  -0.290026  0  3.620056  0
N  N274  1  0.65661672  0.65189342  0.69003056  1  -1.232006  0  -0.361812  -0.290147  0  3.620093  0
N  N275  1  0.84338414  0.34810440  0.19003215  1  -1.231611  0  -0.36176  -0.289996  0  3.619965  0
N  N276  1  0.20190395  0.22108808  0.84692213  1  -1.221012  0  -0.236439  0.050153  0  3.791697  0
N  N277  1  0.29809502  0.77891460  0.34692237  1  -1.221093  0  -0.2365  0.050238  0  3.791604  0
N  N278  1  0.79809651  0.72108553  0.65307688  1  -1.221059  0  -0.236422  0.050098  0  3.791755  0
N  N279  1  0.70190366  0.27891366  0.15307864  1  -1.221118  0  -0.236475  0.050131  0  3.791604  0
O  O280  1  0.41917237  0.59252013  0.64949432  1  -1.160872  0  -0.32398  -0.536582  0  2.327169  0
O  O281  1  0.08083181  0.40748032  0.14949536  1  -1.160975  0  -0.323916  -0.536469  0  2.327291  0
O  O282  1  0.58083034  0.09252060  0.85050403  1  -1.161024  0  -0.323901  -0.53647  0  2.327304  0
O  O283  1  0.91916889  0.90747887  0.35050445  1  -1.160501  0  -0.323851  -0.536406  0  2.327488  0
O  O284  1  0.54766943  0.51734520  0.60446567  1  -1.181248  0  -0.318738  -0.558936  0  2.173259  0
O  O285  1  0.95233012  0.48265278  0.10446670  1  -1.181424  0  -0.31869  -0.558885  0  2.173197  0
O  O286  1  0.45233140  0.01734606  0.89553309  1  -1.181419  0  -0.318695  -0.558875  0  2.173268  0
O  O287  1  0.04767077  0.98265198  0.39553380  1  -1.181405  0  -0.318704  -0.55893  0  2.173174  0
O  O288  1  0.50213243  0.47649346  0.51613097  1  -1.175984  0  -0.355702  -0.459603  0  2.343365  0
O  O289  1  0.99786925  0.52350599  0.01613267  1  -1.175924  0  -0.355694  -0.459576  0  2.343334  0
O  O290  1  0.49786866  0.97649377  0.98386752  1  -1.175928  0  -0.355705  -0.459561  0  2.343362  0
O  O291  1  0.00213052  0.02350540  0.48386663  1  -1.175894  0  -0.35571  -0.459545  0  2.343335  0
O  O292  1  0.02069332  0.38545138  0.26964419  1  -1.175128  0  -0.331499  -0.543798  0  2.299215  0
O  O293  1  0.47930687  0.61455079  0.76964421  1  -1.175159  0  -0.331424  -0.543729  0  2.29928  0
O  O294  1  0.97930562  0.88545154  0.23035637  1  -1.175121  0  -0.331509  -0.543793  0  2.29919  0
O  O295  1  0.52069590  0.11454555  0.73035599  1  -1.175383  0  -0.331578  -0.543925  0  2.299052  0
O  O296  1  0.15203411  0.49119794  0.26331317  1  -1.166119  0  -0.324275  -0.549704  0  2.150816  0
O  O297  1  0.34796782  0.50880229  0.76331374  1  -1.166726  0  -0.324309  -0.549735  0  2.150811  0
O  O298  1  0.84796594  0.99119856  0.23668621  1  -1.166737  0  -0.324321  -0.549776  0  2.150761  0
O  O299  1  0.65203726  0.00879852  0.73668615  1  -1.166099  0  -0.324279  -0.54971  0  2.150584  0
O  O300  1  0.29085249  0.51991002  0.33159846  1  -1.185377  0  -0.367082  -0.477929  0  2.342436  0
O  O301  1  0.20914826  0.48009009  0.83159954  1  -1.185354  0  -0.367048  -0.477817  0  2.342457  0
O  O302  1  0.70914727  0.01990971  0.16840122  1  -1.185357  0  -0.36704  -0.477865  0  2.342443  0
O  O303  1  0.79085454  0.98008815  0.66839968  1  -1.185322  0  -0.367021  -0.477804  0  2.342578  0
