# generated using pymatgen
data_CdH18C28(N2O3)2
_symmetry_space_group_name_H-M   'P 1'
_cell_length_a   9.47082499
_cell_length_b   11.03972850
_cell_length_c   12.62900000
_cell_angle_alpha   68.00602332
_cell_angle_beta   79.94705803
_cell_angle_gamma   77.83426212
_symmetry_Int_Tables_number   1
_chemical_formula_structural   CdH18C28(N2O3)2
_chemical_formula_sum   'Cd2 H36 C56 N8 O12'
_cell_volume   1190.15639754
_cell_formula_units_Z   2
loop_
 _symmetry_equiv_pos_site_id
 _symmetry_equiv_pos_as_xyz
  1  'x, y, z'
loop_
 _atom_site_type_symbol
 _atom_site_label
 _atom_site_symmetry_multiplicity
 _atom_site_fract_x
 _atom_site_fract_y
 _atom_site_fract_z
 _atom_site_occupancy
 _atom_site_hle17_bader_spin_density
 _atom_site_hle17_ddec_charge
 _atom_site_hle17_ddec_spin_density
 _atom_site_hle17_ddec_sum_bond_order
 _atom_site_hle17_magmom
 _atom_site_hse06_10hf_bader_spin_density
 _atom_site_hse06_10hf_ddec_charge
 _atom_site_hse06_10hf_ddec_spin_density
 _atom_site_hse06_10hf_ddec_sum_bond_order
 _atom_site_hse06_10hf_magmom
 _atom_site_hse06_bader_spin_density
 _atom_site_hse06_ddec_charge
 _atom_site_hse06_ddec_spin_density
 _atom_site_hse06_ddec_sum_bond_order
 _atom_site_hse06_magmom
 _atom_site_pbe_bader_charge
 _atom_site_pbe_bader_spin_density
 _atom_site_pbe_cm5_charge
 _atom_site_pbe_ddec_charge
 _atom_site_pbe_ddec_spin_density
 _atom_site_pbe_ddec_sum_bond_order
 _atom_site_pbe_magmom
Cd  Cd0  1  0.54286889  0.91377565  0.66010595  1  0  1.14578  0  1.690239  0  0  0.945199  0  2.145413  0  0  1.004987  0  2.091742  0  1.278577  0  0.786976  0.903008  0  2.182051  0
Cd  Cd1  1  0.45713250  0.08622256  0.33989620  1  0  1.145774  0  1.690196  0  0  0.945243  0  2.145373  0  0  1.00503  0  2.0917  0  1.278588  0  0.786981  0.903053  0  2.182009  0
H  H2  1  0.58034319  0.44220949  0.62450436  1  0  0.088761  0  0.972195  0  0  0.096201  0  1.040103  0  0  0.098451  0  1.03982  0  0.076924  0  0.09728  0.094514  0  1.040584  0
H  H3  1  0.41965498  0.55778872  0.37549742  1  0  0.088816  0  0.972312  0  0  0.096292  0  1.040159  0  0  0.098545  0  1.039872  0  0.077113  0  0.097332  0.094606  0  1.04064  0
H  H4  1  0.43607638  0.31546527  0.57323145  1  0  0.101974  0  0.975627  0  0  0.11241  0  1.038716  0  0  0.114638  0  1.039081  0  0.078022  0  0.100746  0.110948  0  1.038163  0
H  H5  1  0.56392144  0.68453491  0.42676893  1  0  0.101928  0  0.975651  0  0  0.112361  0  1.03875  0  0  0.114587  0  1.039121  0  0.078011  0  0.100745  0.110907  0  1.038174  0
H  H6  1  0.19574905  0.61879286  0.78335734  1  0  0.094772  0  0.979972  0  0  0.103553  0  1.044521  0  0  0.105322  0  1.045433  0  0.103391  0  0.099194  0.102169  0  1.044075  0
H  H7  1  0.80424556  0.38120733  0.21664267  1  0  0.094804  0  0.979931  0  0  0.103596  0  1.044464  0  0  0.105365  0  1.045375  0  0.103417  0  0.099223  0.102211  0  1.044016  0
H  H8  1  0.04908964  0.48007323  0.74265673  1  0  0.121314  0  0.935643  0  0  0.131271  0  0.995134  0  0  0.135272  0  0.992621  0  0.094687  0  0.108783  0.128446  0  0.997064  0
H  H9  1  0.95090746  0.51992497  0.25734281  1  0  0.121317  0  0.935607  0  0  0.131304  0  0.995066  0  0  0.135305  0  0.992552  0  0.094719  0  0.108797  0.128479  0  0.996997  0
H  H10  1  0.25891320  0.32506183  0.47155998  1  0  0.099219  0  0.931661  0  0  0.109181  0  0.994506  0  0  0.110825  0  0.993149  0  0.109178  0  0.113253  0.10797  0  0.995561  0
H  H11  1  0.74108766  0.67493934  0.52843888  1  0  0.099196  0  0.931659  0  0  0.109132  0  0.994517  0  0  0.110776  0  0.993161  0  0.109289  0  0.113252  0.107921  0  0.995572  0
H  H12  1  0.10935754  0.23897880  0.52095624  1  0  0.108972  0  0.921172  0  0  0.120437  0  0.981226  0  0  0.122057  0  0.98015  0  0.107453  0  0.118562  0.119218  0  0.982069  0
H  H13  1  0.89064475  0.76102039  0.47904230  1  0  0.108948  0  0.921212  0  0  0.120392  0  0.98127  0  0  0.12201  0  0.980194  0  0.107437  0  0.118554  0.119173  0  0.982112  0
H  H14  1  0.69670799  0.16145628  0.47933237  1  0  0.088016  0  0.946062  0  0  0.093622  0  1.015186  0  0  0.096642  0  1.012528  0  0.115537  0  0.114669  0.091395  0  1.017117  0
H  H15  1  0.30328142  0.83854292  0.52066865  1  0  0.088021  0  0.946077  0  0  0.093571  0  1.01526  0  0  0.096586  0  1.012616  0  0.115573  0  0.114671  0.091346  0  1.017187  0
H  H16  1  0.83794550  0.32723486  0.48226742  1  0  0.104812  0  0.970173  0  0  0.114993  0  1.028872  0  0  0.117108  0  1.030409  0  0.097928  0  0.105199  0.113413  0  1.028043  0
H  H17  1  0.16204108  0.67276829  0.51773108  1  0  0.104803  0  0.970215  0  0  0.114999  0  1.028894  0  0  0.117114  0  1.03043  0  0.097895  0  0.105203  0.113418  0  1.028066  0
H  H18  1  0.89481012  0.31865951  0.67352053  1  0  0.11977  0  0.940422  0  0  0.126514  0  1.002447  0  0  0.130976  0  0.997796  0  0.126179  0  0.115649  0.12331  0  1.005689  0
H  H19  1  0.10518826  0.68134364  0.32647326  1  0  0.11974  0  0.940461  0  0  0.126425  0  1.002543  0  0  0.130884  0  0.997898  0  0.126195  0  0.115637  0.123226  0  1.005787  0
H  H20  1  0.04118666  0.35347647  0.96030238  1  0  0.097424  0  0.956147  0  0  0.105495  0  1.023451  0  0  0.108381  0  1.02153  0  0.115224  0  0.102286  0.103419  0  1.024867  0
H  H21  1  0.95882137  0.64652669  0.03969807  1  0  0.097413  0  0.956189  0  0  0.105483  0  1.023492  0  0  0.108369  0  1.021572  0  0.11516  0  0.102297  0.103409  0  1.024907  0
H  H22  1  0.17788240  0.41040568  0.08200171  1  0  0.114184  0  0.934903  0  0  0.128261  0  0.986587  0  0  0.131527  0  0.985906  0  0.061703  0  0.105765  0.126065  0  0.986931  0
H  H23  1  0.82212469  0.58959055  0.91800351  1  0  0.114125  0  0.934898  0  0  0.128254  0  0.986526  0  0  0.131525  0  0.985837  0  0.061729  0  0.105749  0.126057  0  0.986871  0
H  H24  1  0.01758614  0.10436775  0.38029220  1  0  0.103862  0  0.94118  0  0  0.116752  0  0.997123  0  0  0.119798  0  0.996527  0  0.083691  0  0.100593  0.114602  0  0.997613  0
H  H25  1  0.98240898  0.89562947  0.61970714  1  0  0.103878  0  0.941133  0  0  0.116768  0  0.997073  0  0  0.119816  0  0.996475  0  0.083623  0  0.100604  0.114617  0  0.997564  0
H  H26  1  0.87752290  0.05083464  0.26067515  1  0  0.091461  0  0.970792  0  0  0.103873  0  1.029237  0  0  0.106541  0  1.027641  0  0.059047  0  0.101224  0.101985  0  1.030532  0
H  H27  1  0.12247603  0.94917148  0.73931839  1  0  0.091432  0  0.97076  0  0  0.103859  0  1.029213  0  0  0.106526  0  1.027617  0  0.059008  0  0.101201  0.101973  0  1.0305  0
H  H28  1  0.65475422  0.82655959  0.15567117  1  0  0.112647  0  0.95339  0  0  0.121132  0  1.016741  0  0  0.124339  0  1.014689  0  0.107522  0  0.108647  0.118948  0  1.017919  0
H  H29  1  0.34524987  0.17344158  0.84432887  1  0  0.112689  0  0.953395  0  0  0.121165  0  1.016753  0  0  0.124373  0  1.014701  0  0.107552  0  0.108659  0.11898  0  1.017931  0
H  H30  1  0.51106834  0.67785156  0.12577355  1  0  0.10897  0  0.96395  0  0  0.118742  0  1.022448  0  0  0.121169  0  1.02303  0  0.121602  0  0.107327  0.117  0  1.022333  0
H  H31  1  0.48893609  0.32214764  0.87422946  1  0  0.108964  0  0.963918  0  0  0.118753  0  1.022403  0  0  0.121179  0  1.022984  0  0.121629  0  0.107324  0.117008  0  1.022291  0
H  H32  1  0.46687793  0.71407861  0.92486818  1  0  0.083348  0  0.918428  0  0  0.09402  0  0.976065  0  0  0.096593  0  0.973777  0  0.101384  0  0.118943  0.092243  0  0.977583  0
H  H33  1  0.53312310  0.28592158  0.07513337  1  0  0.083443  0  0.91846  0  0  0.094115  0  0.97606  0  0  0.096689  0  0.973772  0  0.101375  0  0.118987  0.092338  0  0.97758  0
H  H34  1  0.78778189  0.99157128  0.15432506  1  0  0.324343  0  0.912668  0  0  0.305846  0  0.975009  0  0  0.314251  0  0.967611  0  0.55599  0  0.314839  0.299929  0  0.980221  0
H  H35  1  0.21222185  0.00843187  0.84567278  1  0  0.324259  0  0.912771  0  0  0.305763  0  0.97512  0  0  0.314167  0  0.967724  0  0.555942  0  0.31481  0.299844  0  0.980334  0
H  H36  1  0.26497914  0.33808319  0.27198007  1  0  0.386073  0  0.919135  0  0  0.357043  0  0.995701  0  0  0.369559  0  0.978587  0  0.651489  0  0.289908  0.348056  0  1.00567  0
H  H37  1  0.73502187  0.66191106  0.72802580  1  0  0.386038  0  0.919183  0  0  0.357038  0  0.995717  0  0  0.369563  0  0.978579  0  0.651781  0  0.289904  0.348052  0  1.005692  0
C  C38  1  0.48751878  0.62662506  0.72104057  1  0  0.655237  0  3.917452  0  0  0.603157  0  4.216284  0  0  0.638405  0  4.207494  0  1.549424  0  0.205431  0.579092  0  4.221768  0
C  C39  1  0.51248063  0.37337215  0.27896057  1  0  0.655327  0  3.917354  0  0  0.603261  0  4.216176  0  0  0.638513  0  4.207379  0  1.549663  0  0.20542  0.579195  0  4.221662  0
C  C40  1  0.39771637  0.53966827  0.70565798  1  0  -0.101697  0  3.80002  0  0  -0.080194  0  4.035847  0  0  -0.089763  0  4.057706  0  -0.04861  0  -0.034255  -0.073627  0  4.020344  0
C  C41  1  0.60227948  0.46033093  0.29434457  1  0  -0.101636  0  3.799962  0  0  -0.080141  0  4.035809  0  0  -0.089722  0  4.057691  0  -0.048605  0  -0.03424  -0.073573  0  4.020304  0
C  C42  1  0.46368971  0.45156163  0.64923604  1  0  -0.0512  0  3.777462  0  0  -0.073443  0  4.026043  0  0  -0.07071  0  4.046006  0  0.043804  0  -0.08758  -0.075045  0  4.012211  0
C  C43  1  0.53630558  0.54843460  0.35076676  1  0  -0.051322  0  3.777674  0  0  -0.073581  0  4.026226  0  0  -0.070845  0  4.046191  0  0.043385  0  -0.087618  -0.075183  0  4.012394  0
C  C44  1  0.38171470  0.37939548  0.62089106  1  0  -0.208614  0  3.767616  0  0  -0.227333  0  4.021441  0  0  -0.234659  0  4.042818  0  -0.026279  0  -0.112703  -0.222261  0  4.006716  0
C  C45  1  0.61828347  0.62060272  0.37911072  1  0  -0.208475  0  3.767605  0  0  -0.227209  0  4.021433  0  0  -0.234536  0  4.042807  0  -0.026153  0  -0.112696  -0.222136  0  4.006713  0
C  C46  1  0.24760487  0.55018015  0.73934667  1  0  -0.052961  0  3.757376  0  0  -0.07569  0  4.004035  0  0  -0.072709  0  4.023691  0  -0.017979  0  -0.085607  -0.077233  0  3.990207  0
C  C47  1  0.75239099  0.44981905  0.26065429  1  0  -0.053079  0  3.757395  0  0  -0.07581  0  4.004079  0  0  -0.072828  0  4.023739  0  -0.018  0  -0.085674  -0.077351  0  3.990248  0
C  C48  1  0.16542256  0.47446947  0.71601218  1  0  -0.187878  0  3.735929  0  0  -0.209102  0  3.994873  0  0  -0.214966  0  4.011658  0  -0.103322  0  -0.102482  -0.205411  0  3.983777  0
C  C49  1  0.83457363  0.52552774  0.28398780  1  0  -0.187851  0  3.735963  0  0  -0.209108  0  3.99489  0  0  -0.214972  0  4.011675  0  -0.103451  0  -0.102481  -0.205419  0  3.983796  0
C  C50  1  0.23171740  0.39177561  0.65353430  1  0  0.278024  0  3.805715  0  0  0.266657  0  4.068843  0  0  0.279436  0  4.083133  0  0.405345  0  0.085811  0.257714  0  4.059365  0
C  C51  1  0.76828149  0.60822457  0.34646753  1  0  0.277928  0  3.805819  0  0  0.266618  0  4.068911  0  0  0.279398  0  4.083202  0  0.405554  0  0.0858  0.257672  0  4.059435  0
C  C52  1  0.20147680  0.26081497  0.54878476  1  0  -0.075705  0  3.640352  0  0  -0.130497  0  3.899537  0  0  -0.126951  0  3.899686  0  0.399915  0  -0.067577  -0.132923  0  3.899112  0
C  C53  1  0.79852531  0.73918521  0.45121427  1  0  -0.075661  0  3.640362  0  0  -0.130355  0  3.899467  0  0  -0.126806  0  3.89961  0  0.399847  0  -0.067544  -0.13278  0  3.899037  0
C  C54  1  0.30150800  0.13130302  0.60134727  1  0  0.665479  0  3.878238  0  0  0.613434  0  4.180322  0  0  0.64638  0  4.17378  0  1.570546  0  0.203786  0.591077  0  4.183861  0
C  C55  1  0.69849377  0.86869914  0.39865116  1  0  0.665394  0  3.878344  0  0  0.613368  0  4.180381  0  0  0.646312  0  4.173839  0  1.570557  0  0.203746  0.591012  0  4.18392  0
C  C56  1  0.72318836  0.16054788  0.56047325  1  0  0.128672  0  3.705685  0  0  0.095864  0  3.962627  0  0  0.103964  0  3.979829  0  0.516116  0  0.046516  0.09083  0  3.950504  0
C  C57  1  0.27680392  0.83945329  0.43952754  1  0  0.128709  0  3.705699  0  0  0.095946  0  3.962647  0  0  0.104046  0  3.979843  0  0.51633  0  0.0465  0.090911  0  3.950526  0
C  C58  1  0.80244693  0.25342905  0.56282844  1  0  -0.125529  0  3.738158  0  0  -0.135863  0  3.990023  0  0  -0.142903  0  4.011672  0  -0.087621  0  -0.085976  -0.131663  0  3.975634  0
C  C59  1  0.19754857  0.74657212  0.43716954  1  0  -0.12561  0  3.738351  0  0  -0.135954  0  3.990211  0  0  -0.142993  0  4.011859  0  -0.08772  0  -0.086012  -0.131754  0  3.975826  0
C  C60  1  0.83241368  0.24949464  0.66762736  1  0  -0.019806  0  3.652303  0  0  -0.046337  0  3.901339  0  0  -0.042371  0  3.915266  0  0.010816  0  -0.056657  -0.048616  0  3.892054  0
C  C61  1  0.16758397  0.75050653  0.33237193  1  0  -0.019758  0  3.652391  0  0  -0.046239  0  3.901436  0  0  -0.042273  0  3.915365  0  0.010731  0  -0.056644  -0.048529  0  3.89216  0
C  C62  1  0.78440958  0.15188842  0.76942098  1  0  -0.015343  0  3.759262  0  0  -0.001999  0  3.991474  0  0  -0.004709  0  4.014708  0  -0.001954  0  0.00657  -0.000541  0  3.976168  0
C  C63  1  0.21559146  0.84811177  0.23057898  1  0  -0.015361  0  3.759194  0  0  -0.001962  0  3.991429  0  0  -0.004672  0  4.014663  0  -0.002281  0  0.006595  -0.000504  0  3.976124  0
C  C64  1  0.81369989  0.13712349  0.88134055  1  0  0.098696  0  3.844307  0  0  0.090733  0  4.108699  0  0  0.092283  0  4.132082  0  0.458258  0  0.085192  0.089803  0  4.093981  0
C  C65  1  0.18630364  0.86287471  0.11865815  1  0  0.098869  0  3.844057  0  0  0.090806  0  4.108587  0  0  0.092355  0  4.131969  0  0.458576  0  0.085277  0.089875  0  4.093868  0
C  C66  1  0.95271062  0.19610303  0.10046610  1  0  -0.05193  0  3.830248  0  0  -0.038783  0  4.076101  0  0  -0.044155  0  4.099702  0  0.003171  0  -0.026361  -0.034481  0  4.059637  0
C  C67  1  0.04729204  0.80390012  0.89953189  1  0  -0.05165  0  3.83004  0  0  -0.038546  0  4.075853  0  0  -0.043909  0  4.099442  0  0.003072  0  -0.026244  -0.034246  0  4.059389  0
C  C68  1  0.03511034  0.29998887  0.05265006  1  0  -0.056873  0  3.743769  0  0  -0.07912  0  3.995529  0  0  -0.076903  0  4.015206  0  -0.054407  0  -0.083884  -0.079916  0  3.981361  0
C  C69  1  0.96489571  0.70001329  0.94735018  1  0  -0.057005  0  3.743794  0  0  -0.079274  0  3.995594  0  0  -0.077061  0  4.015271  0  -0.054248  0  -0.084016  -0.08007  0  3.981426  0
C  C70  1  0.11231095  0.33132463  0.12055205  1  0  -0.21406  0  3.750929  0  0  -0.231636  0  4.001373  0  0  -0.239884  0  4.023422  0  -0.030192  0  -0.109464  -0.225938  0  3.986069  0
C  C71  1  0.88769472  0.66867358  0.87945112  1  0  -0.21397  0  3.750935  0  0  -0.2316  0  4.00135  0  0  -0.239852  0  4.023398  0  -0.030128  0  -0.109403  -0.225903  0  3.98605  0
C  C72  1  0.11089239  0.25669651  0.23859889  1  0  0.343701  0  3.840498  0  0  0.335033  0  4.102169  0  0  0.347913  0  4.118423  0  0.533149  0  0.078501  0.325887  0  4.091448  0
C  C73  1  0.88910827  0.74329972  0.76140400  1  0  0.343654  0  3.84053  0  0  0.335022  0  4.102164  0  0  0.347901  0  4.118421  0  0.533305  0  0.078496  0.325876  0  4.091442  0
C  C74  1  0.02159196  0.15855989  0.28804113  1  0  -0.195664  0  3.755351  0  0  -0.215366  0  4.013698  0  0  -0.222904  0  4.034228  0  -0.070788  0  -0.111395  -0.210125  0  4.000116  0
C  C75  1  0.97840621  0.84143831  0.71195906  1  0  -0.195645  0  3.75533  0  0  -0.215355  0  4.013655  0  0  -0.222897  0  4.03419  0  -0.0707  0  -0.111404  -0.210116  0  4.000075  0
C  C76  1  0.94428497  0.12853330  0.22005870  1  0  -0.06422  0  3.756915  0  0  -0.089812  0  4.014897  0  0  -0.087006  0  4.033154  0  -0.036953  0  -0.090885  -0.092678  0  4.003195  0
C  C77  1  0.05571357  0.87146886  0.77993935  1  0  -0.06422  0  3.756836  0  0  -0.089843  0  4.014826  0  0  -0.087039  0  4.033084  0  -0.036953  0  -0.090884  -0.092705  0  4.003124  0
C  C78  1  0.88417639  0.15569419  0.02716821  1  0  0.345055  0  3.755359  0  0  0.31465  0  4.032074  0  0  0.329139  0  4.046897  0  0.930249  0  0.219254  0.304502  0  4.022535  0
C  C79  1  0.11582520  0.84430897  0.97282834  1  0  0.344812  0  3.755469  0  0  0.314575  0  4.031977  0  0  0.329059  0  4.046801  0  0.93014  0  0.219266  0.304426  0  4.022438  0
C  C80  1  0.76577248  0.03459332  0.97826452  1  0  0.110619  0  3.803138  0  0  0.090341  0  4.060299  0  0  0.093091  0  4.083796  0  0.37857  0  0.093636  0.088394  0  4.044935  0
C  C81  1  0.23422804  0.96540983  0.02173216  1  0  0.110637  0  3.802985  0  0  0.090388  0  4.060189  0  0  0.093138  0  4.083685  0  0.378477  0  0.09364  0.088439  0  4.044826  0
C  C82  1  0.68519867  0.94205175  0.97369390  1  0  -0.026122  0  3.789606  0  0  -0.01184  0  4.025477  0  0  -0.01441  0  4.048371  0  0.048093  0  0.004205  -0.01007  0  4.010008  0
C  C83  1  0.31480327  0.05794943  0.02630562  1  0  -0.026251  0  3.789802  0  0  -0.011956  0  4.025665  0  0  -0.014529  0  4.04856  0  0.0478  0  0.004148  -0.010185  0  4.010198  0
C  C84  1  0.63335218  0.83936028  0.06972516  1  0  -0.029421  0  3.648328  0  0  -0.057742  0  3.9015  0  0  -0.055074  0  3.918232  0  -0.06136  0  -0.063488  -0.058973  0  3.89028  0
C  C85  1  0.36664959  0.16064188  0.93027485  1  0  -0.029504  0  3.648381  0  0  -0.057816  0  3.901552  0  0  -0.05515  0  3.918284  0  -0.06147  0  -0.063513  -0.059047  0  3.890329  0
C  C86  1  0.55403587  0.75703750  0.05353688  1  0  -0.109795  0  3.720268  0  0  -0.122402  0  3.976401  0  0  -0.128679  0  3.997626  0  -0.006862  0  -0.080014  -0.118784  0  3.963013  0
C  C87  1  0.44596696  0.24296467  0.94646457  1  0  -0.109687  0  3.720089  0  0  -0.122352  0  3.976217  0  0  -0.128627  0  3.99744  0  -0.006721  0  -0.079983  -0.11873  0  3.962829  0
C  C88  1  0.52845703  0.77708458  0.94156150  1  0  0.146131  0  3.701027  0  0  0.109403  0  3.964233  0  0  0.118505  0  3.979502  0  0.522091  0  0.052454  0.10302  0  3.954369  0
C  C89  1  0.47154400  0.22291560  0.05844084  1  0  0.145997  0  3.7011  0  0  0.109349  0  3.964216  0  0  0.11845  0  3.979485  0  0.521985  0  0.052417  0.102966  0  3.954351  0
C  C90  1  0.65342355  0.95665834  0.86276194  1  0  0.129294  0  3.755044  0  0  0.121151  0  3.995229  0  0  0.125281  0  4.018402  0  0.504688  0  0.116013  0.118337  0  3.979255  0
C  C91  1  0.34657964  0.04334184  0.13724012  1  0  0.129434  0  3.755047  0  0  0.121285  0  3.99527  0  0  0.125417  0  4.018442  0  0.505121  0  0.116072  0.118469  0  3.979298  0
C  C92  1  0.70420873  0.06098731  0.76031950  1  0  0.130799  0  3.738487  0  0  0.120627  0  3.98125  0  0  0.125095  0  4.004788  0  0.478015  0  0.115985  0.117664  0  3.964966  0
C  C93  1  0.29579214  0.93901386  0.23968016  1  0  0.130737  0  3.738507  0  0  0.120504  0  3.981363  0  0  0.124973  0  4.0049  0  0.47825  0  0.115922  0.117543  0  3.965078  0
N  N94  1  0.57640913  0.87362012  0.85023923  1  0  -0.36999  0  3.307205  0  0  -0.299542  0  3.577853  0  0  -0.318787  0  3.595976  0  -1.231662  0  -0.329927  -0.286345  0  3.56567  0
N  N95  1  0.42359101  0.12637907  0.14976197  1  0  -0.370056  0  3.307307  0  0  -0.299633  0  3.577946  0  0  -0.31888  0  3.596073  0  -1.2318  0  -0.32993  -0.286439  0  3.565773  0
N  N96  1  0.67580422  0.06826043  0.65620976  1  0  -0.367744  0  3.297705  0  0  -0.293083  0  3.565094  0  0  -0.313865  0  3.585016  0  -1.224029  0  -0.33098  -0.278841  0  3.551054  0
N  N97  1  0.32419378  0.93173876  0.34379172  1  0  -0.367686  0  3.297634  0  0  -0.292988  0  3.564974  0  0  -0.313771  0  3.584894  0  -1.224106  0  -0.330934  -0.278748  0  3.550934  0
N  N98  1  0.81181210  0.04788383  0.06960569  1  0  -0.369065  0  3.351737  0  0  -0.309969  0  3.582705  0  0  -0.327643  0  3.596406  0  -1.26667  0  -0.374961  -0.297266  0  3.573473  0
N  N99  1  0.18819056  0.95211932  0.93038992  1  0  -0.368932  0  3.351675  0  0  -0.309908  0  3.582621  0  0  -0.327585  0  3.596334  0  -1.26668  0  -0.374955  -0.297201  0  3.573387  0
N  N100  1  0.88703576  0.21130434  0.91267647  1  0  -0.428923  0  2.896672  0  0  -0.40887  0  3.168299  0  0  -0.421716  0  3.180306  0  -1.123517  0  -0.341962  -0.40066  0  3.160786  0
N  N101  1  0.11296742  0.78869584  0.08732004  1  0  -0.428972  0  2.896663  0  0  -0.408936  0  3.168257  0  0  -0.421781  0  3.180265  0  -1.123425  0  -0.34205  -0.400726  0  3.160744  0
O  O102  1  0.61738186  0.57904502  0.74380547  1  0  -0.622129  0  1.954298  0  0  -0.571732  0  2.170343  0  0  -0.594607  0  2.157739  0  -1.18886  0  -0.327623  -0.555947  0  2.178203  0
O  O103  1  0.38261469  0.42095021  0.25620066  1  0  -0.622241  0  1.954213  0  0  -0.571807  0  2.170266  0  0  -0.594677  0  2.15766  0  -1.18907  0  -0.327653  -0.556023  0  2.178125  0
O  O104  1  0.42445915  0.74631682  0.70555698  1  0  -0.654356  0  2.015187  0  0  -0.583338  0  2.276445  0  0  -0.613523  0  2.263608  0  -1.16243  0  -0.33981  -0.562578  0  2.284821  0
O  O105  1  0.57554438  0.25368138  0.29443618  1  0  -0.654297  0  2.01504  0  0  -0.583401  0  2.276435  0  0  -0.613588  0  2.26359  0  -1.162518  0  -0.339779  -0.562641  0  2.28481  0
O  O106  1  0.14115611  0.32850642  0.62668355  1  0  -0.25637  0  2.357711  0  0  -0.190472  0  2.591302  0  0  -0.207133  0  2.591544  0  -1.081508  0  -0.176576  -0.178209  0  2.590346  0
O  O107  1  0.85884205  0.67149178  0.37331664  1  0  -0.256311  0  2.357794  0  0  -0.190491  0  2.591376  0  0  -0.207153  0  2.591617  0  -1.081511  0  -0.176575  -0.178226  0  2.590419  0
O  O108  1  0.37849748  0.07643898  0.53212520  1  0  -0.674069  0  2.068176  0  0  -0.590785  0  2.337289  0  0  -0.624245  0  2.325182  0  -1.190206  0  -0.336079  -0.56753  0  2.345086  0
O  O109  1  0.62151037  0.92356516  0.46787415  1  0  -0.674033  0  2.068123  0  0  -0.590755  0  2.3372  0  0  -0.624225  0  2.32512  0  -1.190194  0  -0.336115  -0.567502  0  2.344998  0
O  O110  1  0.30834506  0.08181416  0.70801111  1  0  -0.622284  0  1.999385  0  0  -0.571603  0  2.240745  0  0  -0.596013  0  2.230885  0  -1.183522  0  -0.310183  -0.554486  0  2.246384  0
O  O111  1  0.69165598  0.91818603  0.29198807  1  0  -0.622203  0  1.999468  0  0  -0.57156  0  2.240822  0  0  -0.595969  0  2.23097  0  -1.183532  0  -0.310111  -0.554443  0  2.246463  0
O  O112  1  0.19336003  0.27108739  0.30915198  1  0  -0.575678  0  2.188733  0  0  -0.519058  0  2.421575  0  0  -0.541643  0  2.408956  0  -1.199078  0  -0.356781  -0.502824  0  2.428344  0
O  O113  1  0.80663917  0.72890488  0.69085477  1  0  -0.57565  0  2.188806  0  0  -0.519039  0  2.42154  0  0  -0.541627  0  2.408903  0  -1.199531  0  -0.356759  -0.502807  0  2.428305  0
