# generated using pymatgen
data_Sm2H11C11NO16
_symmetry_space_group_name_H-M   'P 1'
_cell_length_a   9.72529364
_cell_length_b   9.83792175
_cell_length_c   12.18185372
_cell_angle_alpha   70.78466758
_cell_angle_beta   82.89540739
_cell_angle_gamma   63.56971774
_symmetry_Int_Tables_number   1
_chemical_formula_structural   Sm2H11C11NO16
_chemical_formula_sum   'Sm4 H22 C22 N2 O32'
_cell_volume   985.19055849
_cell_formula_units_Z   2
loop_
 _symmetry_equiv_pos_site_id
 _symmetry_equiv_pos_as_xyz
  1  'x, y, z'
loop_
 _atom_site_type_symbol
 _atom_site_label
 _atom_site_symmetry_multiplicity
 _atom_site_fract_x
 _atom_site_fract_y
 _atom_site_fract_z
 _atom_site_occupancy
 _atom_site_hle17_bader_spin_density
 _atom_site_hle17_ddec_charge
 _atom_site_hle17_ddec_spin_density
 _atom_site_hle17_ddec_sum_bond_order
 _atom_site_hle17_magmom
 _atom_site_hse06_10hf_bader_spin_density
 _atom_site_hse06_10hf_ddec_charge
 _atom_site_hse06_10hf_ddec_spin_density
 _atom_site_hse06_10hf_ddec_sum_bond_order
 _atom_site_hse06_10hf_magmom
 _atom_site_hse06_bader_spin_density
 _atom_site_hse06_ddec_charge
 _atom_site_hse06_ddec_spin_density
 _atom_site_hse06_ddec_sum_bond_order
 _atom_site_hse06_magmom
 _atom_site_pbe_bader_spin_density
 _atom_site_pbe_cm5_charge
 _atom_site_pbe_ddec_charge
 _atom_site_pbe_ddec_spin_density
 _atom_site_pbe_ddec_sum_bond_order
 _atom_site_pbe_magmom
Sm  Sm0  1  0.26994990  0.71882446  0.24261473  1  0  2.256391  0  1.534065  0  0  2.087137  0  2.002853  0  0  2.208985  0  1.819184  0  0  1.453811  2.053505  0  2.03257  0
Sm  Sm1  1  0.73005936  0.28117229  0.75738203  1  0  2.25643  0  1.534007  0  0  2.087189  0  2.002743  0  0  2.209021  0  1.819121  0  0  1.453864  2.053552  0  2.032446  0
Sm  Sm2  1  0.73569462  0.78490539  0.26374424  1  0  2.220273  0  1.625129  0  0  2.037362  0  2.116372  0  0  2.165119  0  1.92197  0  0  1.491544  2.004251  0  2.145228  0
Sm  Sm3  1  0.26430331  0.21509411  0.73625797  1  0  2.220274  0  1.625089  0  0  2.037373  0  2.116309  0  0  2.165116  0  1.921926  0  0  1.491585  2.004252  0  2.145156  0
H  H4  1  0.77872996  0.82990944  0.48408377  1  0  0.439766  0  0.808604  0  0  0.424368  0  0.857842  0  0  0.432741  0  0.845936  0  0  0.332662  0.418889  0  0.864867  0
H  H5  1  0.22127522  0.17008976  0.51591276  1  0  0.439695  0  0.808635  0  0  0.424268  0  0.857959  0  0  0.43264  0  0.846057  0  0  0.332619  0.418785  0  0.864942  0
H  H6  1  0.94191990  0.78404594  0.42523753  1  0  0.447457  0  0.846599  0  0  0.413948  0  0.913387  0  0  0.42649  0  0.895114  0  0  0.301173  0.405194  0  0.926337  0
H  H7  1  0.05807694  0.21595347  0.57476155  1  0  0.447509  0  0.846508  0  0  0.41396  0  0.913356  0  0  0.426504  0  0.895081  0  0  0.301205  0.405202  0  0.926311  0
H  H8  1  0.48295343  0.12872575  0.20648638  1  0  0.446912  0  0.800301  0  0  0.433269  0  0.843459  0  0  0.441446  0  0.831977  0  0  0.337891  0.42718  0  0.852429  0
H  H9  1  0.51705055  0.87126879  0.79351327  1  0  0.446865  0  0.800205  0  0  0.433223  0  0.843486  0  0  0.441402  0  0.832  0  0  0.33783  0.427129  0  0.852461  0
H  H10  1  0.41353937  0.01529996  0.19115528  1  0  0.443112  0  0.856119  0  0  0.410035  0  0.922836  0  0  0.422313  0  0.905087  0  0  0.300069  0.401235  0  0.935876  0
H  H11  1  0.58646180  0.98470187  0.80884671  1  0  0.443072  0  0.85618  0  0  0.410021  0  0.922858  0  0  0.422298  0  0.905111  0  0  0.300041  0.401214  0  0.935909  0
H  H12  1  0.24457198  0.80830684  0.45243508  1  0  0.432791  0  0.823493  0  0  0.415863  0  0.875517  0  0  0.424559  0  0.863004  0  0  0.325153  0.40982  0  0.882953  0
H  H13  1  0.75542714  0.19169729  0.54756320  1  0  0.432908  0  0.823336  0  0  0.415977  0  0.875357  0  0  0.424675  0  0.862841  0  0  0.325187  0.409932  0  0.882802  0
H  H14  1  0.40757272  0.80473723  0.41478747  1  0  0.445923  0  0.849827  0  0  0.41546  0  0.911426  0  0  0.427317  0  0.894213  0  0  0.302764  0.407333  0  0.923297  0
H  H15  1  0.59242789  0.19526346  0.58521573  1  0  0.445897  0  0.849867  0  0  0.415436  0  0.911465  0  0  0.427291  0  0.894255  0  0  0.302751  0.407308  0  0.923337  0
H  H16  1  0.93932774  0.00169660  0.20626016  1  0  0.447387  0  0.849725  0  0  0.416362  0  0.912545  0  0  0.427725  0  0.896211  0  0  0.305414  0.408364  0  0.924251  0
H  H17  1  0.06067797  0.99830154  0.79374072  1  0  0.447362  0  0.849744  0  0  0.416318  0  0.912594  0  0  0.427677  0  0.896268  0  0  0.305395  0.408316  0  0.924302  0
H  H18  1  0.05393971  0.05218329  0.24920156  1  0  0.428565  0  0.835012  0  0  0.409483  0  0.892138  0  0  0.417343  0  0.880948  0  0  0.32019  0.404157  0  0.899596  0
H  H19  1  0.94606235  0.94781384  0.75080332  1  0  0.428503  0  0.835102  0  0  0.409422  0  0.892226  0  0  0.417281  0  0.881037  0  0  0.320143  0.404091  0  0.899686  0
H  H20  1  0.73656239  0.35181157  0.06760429  1  0  0.144756  0  0.931292  0  0  0.152123  0  0.989475  0  0  0.156728  0  0.985955  0  0  0.125599  0.14885  0  0.991982  0
H  H21  1  0.26344004  0.64817982  0.93240795  1  0  0.14469  0  0.931335  0  0  0.152047  0  0.989508  0  0  0.156649  0  0.985995  0  0  0.125635  0.148805  0  0.991968  0
H  H22  1  0.01888982  0.21224373  0.04684426  1  0  0.107117  0  0.950994  0  0  0.115781  0  1.013135  0  0  0.118998  0  1.010441  0  0  0.116508  0.113431  0  1.01504  0
H  H23  1  0.98110820  0.78775383  0.95317164  1  0  0.107225  0  0.950707  0  0  0.115874  0  1.01287  0  0  0.119102  0  1.010156  0  0  0.116576  0.113522  0  1.014776  0
H  H24  1  0.19438302  0.29593356  0.11776519  1  0  0.124974  0  0.932216  0  0  0.132652  0  0.994742  0  0  0.136846  0  0.991646  0  0  0.116021  0.12927  0  0.997755  0
H  H25  1  0.80560580  0.70407328  0.88223760  1  0  0.124967  0  0.932026  0  0  0.13263  0  0.994594  0  0  0.136824  0  0.9915  0  0  0.116004  0.129243  0  0.997615  0
C  C26  1  0.59226865  0.59029792  0.17432060  1  0  0.637998  0  3.915805  0  0  0.590467  0  4.207304  0  0  0.6235  0  4.207776  0  0  0.214012  0.567421  0  4.213272  0
C  C27  1  0.40773315  0.40970955  0.82567147  1  0  0.637843  0  3.916052  0  0  0.590256  0  4.207633  0  0  0.623288  0  4.208106  0  0  0.213983  0.567211  0  4.213597  0
C  C28  1  0.75855921  0.50557160  0.14920397  1  0  0.129685  0  3.729667  0  0  0.137155  0  3.966183  0  0  0.137504  0  3.985856  0  0  0.129449  0.137096  0  3.954155  0
C  C29  1  0.24143758  0.49443865  0.85079774  1  0  0.129755  0  3.729703  0  0  0.137243  0  3.96613  0  0  0.137592  0  3.985801  0  0  0.129413  0.137175  0  3.954113  0
C  C30  1  0.81473807  0.38390652  0.09837289  1  0  -0.074898  0  3.616372  0  0  -0.102025  0  3.864938  0  0  -0.103125  0  3.880033  0  0  -0.056452  -0.101997  0  3.854909  0
C  C31  1  0.18524939  0.61609310  0.90162803  1  0  -0.074812  0  3.616968  0  0  -0.10184  0  3.865397  0  0  -0.102944  0  3.880501  0  0  -0.05646  -0.10184  0  3.855349  0
C  C32  1  0.97346470  0.30647062  0.08743954  1  0  -0.020902  0  3.702843  0  0  -0.038388  0  3.963299  0  0  -0.037359  0  3.98016  0  0  -0.064494  -0.038534  0  3.951641  0
C  C33  1  0.02653959  0.69351803  0.91256260  1  0  -0.02105  0  3.703138  0  0  -0.038576  0  3.963609  0  0  -0.037543  0  3.980469  0  0  -0.064499  -0.03872  0  3.951956  0
C  C34  1  0.07038397  0.35271551  0.12608786  1  0  -0.095284  0  3.653062  0  0  -0.12221  0  3.905072  0  0  -0.12436  0  3.922817  0  0  -0.066554  -0.120994  0  3.893256  0
C  C35  1  0.92961973  0.64728285  0.87391894  1  0  -0.095166  0  3.653228  0  0  -0.122099  0  3.905258  0  0  -0.124254  0  3.923008  0  0  -0.066618  -0.120882  0  3.893441  0
C  C36  1  0.00302163  0.48195497  0.17005110  1  0  0.11944  0  3.745693  0  0  0.127825  0  3.983469  0  0  0.128092  0  4.004056  0  0  0.125118  0.127868  0  3.9705  0
C  C37  1  0.99697047  0.51805432  0.82995553  1  0  0.119224  0  3.745535  0  0  0.127632  0  3.9833  0  0  0.127905  0  4.003877  0  0  0.125117  0.127673  0  3.970323  0
C  C38  1  0.08985402  0.55850763  0.20151246  1  0  0.631762  0  3.92932  0  0  0.582  0  4.227099  0  0  0.614592  0  4.228376  0  0  0.211511  0.559397  0  4.232059  0
C  C39  1  0.91014663  0.44148219  0.79848730  1  0  0.631938  0  3.929307  0  0  0.582155  0  4.227108  0  0  0.614744  0  4.228383  0  0  0.211505  0.559556  0  4.232068  0
C  C40  1  0.70349526  0.98672890  0.98270953  1  0  0.556822  0  3.928497  0  0  0.511848  0  4.22946  0  0  0.541711  0  4.226226  0  0  0.21983  0.49127  0  4.2357  0
C  C41  1  0.29651083  0.01327215  0.01727076  1  0  0.556694  0  3.928432  0  0  0.51175  0  4.229358  0  0  0.541615  0  4.226125  0  0  0.219871  0.491163  0  4.23561  0
C  C42  1  0.77314436  0.06692150  0.03506302  1  0  0.568945  0  3.902791  0  0  0.523069  0  4.202999  0  0  0.553077  0  4.199378  0  0  0.226202  0.502312  0  4.209411  0
C  C43  1  0.22686640  0.93307615  0.96492510  1  0  0.568927  0  3.902162  0  0  0.523022  0  4.202453  0  0  0.553026  0  4.198841  0  0  0.226122  0.502258  0  4.208872  0
C  C44  1  0.64639915  0.58965428  0.52070397  1  0  0.568812  0  3.915923  0  0  0.522836  0  4.219085  0  0  0.552785  0  4.216021  0  0  0.221721  0.502164  0  4.22555  0
C  C45  1  0.35359572  0.41034547  0.47930427  1  0  0.568678  0  3.916105  0  0  0.522749  0  4.21917  0  0  0.552696  0  4.216113  0  0  0.221618  0.502076  0  4.225642  0
C  C46  1  0.81216510  0.47561195  0.49857295  1  0  0.565534  0  3.908636  0  0  0.520063  0  4.209636  0  0  0.55012  0  4.206548  0  0  0.220548  0.49936  0  4.215898  0
C  C47  1  0.18783491  0.52438533  0.50143541  1  0  0.565629  0  3.908781  0  0  0.520209  0  4.209665  0  0  0.550268  0  4.206574  0  0  0.220612  0.499504  0  4.215927  0
N  N48  1  0.85100525  0.55442674  0.18143256  1  0  -0.405289  0  3.333815  0  0  -0.357199  0  3.576846  0  0  -0.376343  0  3.598447  0  0  -0.390713  -0.349005  0  3.56182  0
N  N49  1  0.14899581  0.44557267  0.81856850  1  0  -0.405324  0  3.333537  0  0  -0.357257  0  3.576554  0  0  -0.3764  0  3.598152  0  0  -0.390737  -0.349059  0  3.561521  0
O  O50  1  0.56080273  0.67738694  0.24159096  1  0  -0.7669  0  2.091477  0  0  -0.708787  0  2.345532  0  0  -0.752077  0  2.338306  0  0  -0.4077  -0.690059  0  2.34944  0
O  O51  1  0.43919208  0.32261265  0.75841241  1  0  -0.766967  0  2.091663  0  0  -0.708828  0  2.3457  0  0  -0.752113  0  2.338474  0  0  -0.40778  -0.690105  0  2.349605  0
O  O52  1  0.49049310  0.57320946  0.13354277  1  0  -0.621818  0  1.941628  0  0  -0.576758  0  2.165603  0  0  -0.606182  0  2.15452  0  0  -0.346608  -0.56142  0  2.172049  0
O  O53  1  0.50950607  0.42681436  0.86643669  1  0  -0.621719  0  1.941844  0  0  -0.576647  0  2.165849  0  0  -0.60607  0  2.15477  0  0  -0.346529  -0.561318  0  2.172296  0
O  O54  1  0.00859108  0.69606004  0.21633277  1  0  -0.756083  0  2.079685  0  0  -0.699336  0  2.338613  0  0  -0.741929  0  2.331921  0  0  -0.400442  -0.680538  0  2.341706  0
O  O55  1  0.99140022  0.30394538  0.78366440  1  0  -0.756036  0  2.080089  0  0  -0.699285  0  2.339021  0  0  -0.741872  0  2.332332  0  0  -0.400368  -0.680488  0  2.342089  0
O  O56  1  0.23414438  0.49284007  0.20925918  1  0  -0.631156  0  1.934019  0  0  -0.585578  0  2.158391  0  0  -0.614998  0  2.148513  0  0  -0.342059  -0.570389  0  2.164985  0
O  O57  1  0.76585718  0.50715823  0.79074460  1  0  -0.631226  0  1.934015  0  0  -0.585642  0  2.158394  0  0  -0.615065  0  2.148521  0  0  -0.342051  -0.570462  0  2.164985  0
O  O58  1  0.67713842  0.87373343  0.05077918  1  0  -0.640258  0  2.056986  0  0  -0.599666  0  2.308609  0  0  -0.630971  0  2.299059  0  0  -0.353067  -0.583554  0  2.312532  0
O  O59  1  0.32286068  0.12625756  0.94921877  1  0  -0.640041  0  2.057682  0  0  -0.599497  0  2.309343  0  0  -0.630792  0  2.299792  0  0  -0.35303  -0.583381  0  2.313265  0
O  O60  1  0.78542259  0.02120505  0.14588665  1  0  -0.673819  0  2.072136  0  0  -0.612499  0  2.304206  0  0  -0.645712  0  2.291711  0  0  -0.35029  -0.594916  0  2.310861  0
O  O61  1  0.21458219  0.97878458  0.85410940  1  0  -0.673772  0  2.072357  0  0  -0.612437  0  2.30445  0  0  -0.645643  0  2.291959  0  0  -0.350242  -0.594847  0  2.311099  0
O  O62  1  0.68370848  0.03968554  0.87260455  1  0  -0.671767  0  2.141134  0  0  -0.611616  0  2.379435  0  0  -0.644954  0  2.370803  0  0  -0.338489  -0.59329  0  2.38501  0
O  O63  1  0.31629867  0.96030904  0.12739801  1  0  -0.671841  0  2.140292  0  0  -0.611686  0  2.378568  0  0  -0.64503  0  2.369933  0  0  -0.33857  -0.593354  0  2.384145  0
O  O64  1  0.81430573  0.16767245  0.96517910  1  0  -0.634138  0  2.058199  0  0  -0.590136  0  2.308159  0  0  -0.621097  0  2.29822  0  0  -0.346674  -0.574181  0  2.312856  0
O  O65  1  0.18569310  0.83231141  0.03482012  1  0  -0.634155  0  2.057397  0  0  -0.590125  0  2.307349  0  0  -0.621092  0  2.297414  0  0  -0.346618  -0.574179  0  2.312073  0
O  O66  1  0.57765115  0.53508506  0.60504505  1  0  -0.631496  0  2.010125  0  0  -0.590458  0  2.246961  0  0  -0.620202  0  2.234679  0  0  -0.352752  -0.575367  0  2.252842  0
O  O67  1  0.42234885  0.46491650  0.39494812  1  0  -0.631532  0  2.009906  0  0  -0.590512  0  2.246716  0  0  -0.620262  0  2.234437  0  0  -0.352762  -0.57542  0  2.252603  0
O  O68  1  0.59341466  0.73067897  0.44849975  1  0  -0.67716  0  2.065692  0  0  -0.616408  0  2.294194  0  0  -0.649527  0  2.280628  0  0  -0.352159  -0.599132  0  2.301029  0
O  O69  1  0.40658240  0.26932528  0.55150119  1  0  -0.677068  0  2.065922  0  0  -0.616352  0  2.294397  0  0  -0.649467  0  2.280839  0  0  -0.3521  -0.599073  0  2.301234  0
O  O70  1  0.86844409  0.33674491  0.57290267  1  0  -0.685245  0  2.138168  0  0  -0.621364  0  2.369721  0  0  -0.654381  0  2.358246  0  0  -0.349613  -0.603537  0  2.375935  0
O  O71  1  0.13155081  0.66325919  0.42709282  1  0  -0.685265  0  2.137903  0  0  -0.621434  0  2.369432  0  0  -0.654455  0  2.357957  0  0  -0.349637  -0.603603  0  2.375644  0
O  O72  1  0.87775473  0.52502459  0.40961141  1  0  -0.63615  0  2.084587  0  0  -0.593258  0  2.331086  0  0  -0.624877  0  2.321356  0  0  -0.357483  -0.577396  0  2.335395  0
O  O73  1  0.12224963  0.47497949  0.59038791  1  0  -0.63611  0  2.084892  0  0  -0.593239  0  2.331348  0  0  -0.624847  0  2.321613  0  0  -0.35746  -0.577377  0  2.335659  0
O  O74  1  0.82827312  0.85175744  0.41017677  1  0  -0.882462  0  1.796904  0  0  -0.834747  0  1.974405  0  0  -0.861638  0  1.934418  0  0  -0.629064  -0.822807  0  1.995211  0
O  O75  1  0.17172943  0.14823852  0.58982921  1  0  -0.882415  0  1.796871  0  0  -0.834628  0  1.97449  0  0  -0.861515  0  1.934505  0  0  -0.629028  -0.822686  0  1.995249  0
O  O76  1  0.48701178  0.02242843  0.23830478  1  0  -0.886996  0  1.79499  0  0  -0.839402  0  1.973459  0  0  -0.866615  0  1.933883  0  0  -0.629444  -0.827447  0  1.996834  0
O  O77  1  0.51298480  0.97757698  0.76169506  1  0  -0.886897  0  1.794935  0  0  -0.83933  0  1.973483  0  0  -0.866541  0  1.933913  0  0  -0.629351  -0.827377  0  1.996864  0
O  O78  1  0.30237233  0.83695130  0.38486389  1  0  -0.880755  0  1.832151  0  0  -0.834045  0  2.016205  0  0  -0.859789  0  1.97854  0  0  -0.626543  -0.82129  0  2.036337  0
O  O79  1  0.69762611  0.16304706  0.61514024  1  0  -0.880837  0  1.832081  0  0  -0.834114  0  2.016109  0  0  -0.859858  0  1.978441  0  0  -0.626537  -0.821364  0  2.036252  0
O  O80  1  0.04012052  0.96165552  0.24633946  1  0  -0.891894  0  1.90102  0  0  -0.845279  0  2.100009  0  0  -0.871907  0  2.064919  0  0  -0.636671  -0.832521  0  2.120148  0
O  O81  1  0.95988303  0.03834250  0.75365678  1  0  -0.891802  0  1.901068  0  0  -0.845172  0  2.100067  0  0  -0.871799  0  2.064981  0  0  -0.636618  -0.832421  0  2.120204  0
