# generated using pymatgen
data_ZnH12C9N4O3
_symmetry_space_group_name_H-M   'P 1'
_cell_length_a   5.43377487
_cell_length_b   13.75567301
_cell_length_c   15.40478974
_cell_angle_alpha   89.60237056
_cell_angle_beta   89.99804729
_cell_angle_gamma   90.16721087
_symmetry_Int_Tables_number   1
_chemical_formula_structural   ZnH12C9N4O3
_chemical_formula_sum   'Zn4 H48 C36 N16 O12'
_cell_volume   1151.40192326
_cell_formula_units_Z   4
loop_
 _symmetry_equiv_pos_site_id
 _symmetry_equiv_pos_as_xyz
  1  'x, y, z'
loop_
 _atom_site_type_symbol
 _atom_site_label
 _atom_site_symmetry_multiplicity
 _atom_site_fract_x
 _atom_site_fract_y
 _atom_site_fract_z
 _atom_site_occupancy
 _atom_site_pbe_bader_charge
 _atom_site_pbe_bader_spin_density
 _atom_site_pbe_cm5_charge
 _atom_site_pbe_ddec_charge
 _atom_site_pbe_ddec_spin_density
 _atom_site_pbe_ddec_sum_bond_order
 _atom_site_pbe_magmom
Zn  Zn0  1  0.98001550  0.25040614  0.22143913  1  1.259684  0  0.6866  0.791007  0  2.378983  0
Zn  Zn1  1  0.48179110  0.75044969  0.27841813  1  1.26055  0  0.686833  0.791965  0  2.378835  0
Zn  Zn2  1  0.01964078  0.74700385  0.77919753  1  1.259094  0  0.687131  0.79191  0  2.378176  0
Zn  Zn3  1  0.51875916  0.25110928  0.72097366  1  1.260344  0  0.687008  0.791636  0  2.38053  0
H  H4  1  0.31939621  0.43918481  0.21725653  1  0.148514  0  0.114546  0.105805  0  1.054472  0
H  H5  1  0.81726175  0.56082997  0.28435840  1  0.116623  0  0.114656  0.105961  0  1.052078  0
H  H6  1  0.68080719  0.93459014  0.78448681  1  0.113094  0  0.114513  0.105508  0  1.054476  0
H  H7  1  0.18140663  0.06143564  0.71630857  1  0.103872  0  0.114645  0.105675  0  1.053128  0
H  H8  1  0.67650020  0.55876028  0.78349887  1  0.120729  0  0.114826  0.106753  0  1.051173  0
H  H9  1  0.17495551  0.43745091  0.71655233  1  0.161284  0  0.114824  0.10629  0  1.052977  0
H  H10  1  0.32282365  0.06343093  0.21543135  1  0.124162  0  0.114693  0.106623  0  1.05137  0
H  H11  1  0.82723064  0.93713523  0.28276810  1  0.123398  0  0.114562  0.105379  0  1.055608  0
H  H12  1  0.15503600  0.61297536  0.14170096  1  0.206204  0  0.123658  0.139868  0  1.047321  0
H  H13  1  0.64626487  0.38787347  0.36008014  1  0.18214  0  0.123984  0.141314  0  1.043781  0
H  H14  1  0.84991674  0.10849091  0.85715123  1  0.209929  0  0.123672  0.140941  0  1.045221  0
H  H15  1  0.35226086  0.88881524  0.64266251  1  0.18779  0  0.123987  0.141496  0  1.045342  0
H  H16  1  0.83724272  0.38528077  0.86058220  1  0.191782  0  0.124193  0.141526  0  1.04425  0
H  H17  1  0.33437982  0.61211539  0.64048393  1  0.212157  0  0.123404  0.139869  0  1.046659  0
H  H18  1  0.15851826  0.89017727  0.14031249  1  0.199202  0  0.123605  0.14045  0  1.044087  0
H  H19  1  0.66722216  0.11094780  0.35751371  1  0.215812  0  0.123419  0.139756  0  1.04827  0
H  H20  1  0.63328993  0.38774116  0.09873796  1  0.170189  0  0.136074  0.116738  0  1.025651  0
H  H21  1  0.12955422  0.61445864  0.40037559  1  0.149217  0  0.135829  0.116718  0  1.027223  0
H  H22  1  0.36912660  0.88313887  0.90146762  1  0.181889  0  0.136279  0.117053  0  1.022808  0
H  H23  1  0.86721641  0.11695411  0.59828650  1  0.180937  0  0.1365  0.118093  0  1.0216  0
H  H24  1  0.36335580  0.60916412  0.90196115  1  0.173396  0  0.136028  0.116403  0  1.025861  0
H  H25  1  0.86283239  0.39061787  0.59822149  1  0.173112  0  0.13588  0.116122  0  1.026767  0
H  H26  1  0.63348365  0.11391222  0.09876124  1  0.159428  0  0.135929  0.116731  0  1.024097  0
H  H27  1  0.13994015  0.88761729  0.40181142  1  0.175731  0  0.136123  0.117319  0  1.021768  0
H  H28  1  0.51493643  0.56845368  0.05850761  1  0.03146  0  0.104938  0.114491  0  1.030584  0
H  H29  1  0.00711096  0.44010244  0.44714243  1  0.086271  0  0.104419  0.111318  0  1.040566  0
H  H30  1  0.49065082  0.06083885  0.94209052  1  0.047831  0  0.104509  0.112011  0  1.038481  0
H  H31  1  0.99117418  0.94099515  0.55619197  1  0.086542  0  0.104452  0.112084  0  1.039377  0
H  H32  1  0.47685002  0.43112927  0.94658619  1  0.055852  0  0.104749  0.11323  0  1.032608  0
H  H33  1  0.97447850  0.57017818  0.55502224  1  0.064205  0  0.105033  0.113434  0  1.031164  0
H  H34  1  0.51842319  0.93845082  0.05322177  1  0.030468  0  0.104487  0.11133  0  1.03997  0
H  H35  1  0.02668699  0.06984997  0.43994910  1  0.072159  0  0.104968  0.114879  0  1.02832  0
H  H36  1  0.76608136  0.59286555  0.98600802  1  0.074317  0  0.100911  0.116404  0  1.039498  0
H  H37  1  0.26516279  0.40045487  0.51054258  1  0.098519  0  0.103132  0.121724  0  1.025669  0
H  H38  1  0.23542951  0.09422047  0.00926683  1  0.069152  0  0.10165  0.118341  0  1.031314  0
H  H39  1  0.73535520  0.90552361  0.48998387  1  0.097884  0  0.101748  0.11864  0  1.030744  0
H  H40  1  0.21990146  0.40192915  0.01502187  1  0.0634  0  0.101159  0.117245  0  1.04  0
H  H41  1  0.71807977  0.59744131  0.48588172  1  0.06934  0  0.100932  0.116307  0  1.04064  0
H  H42  1  0.77788918  0.90233030  0.98938172  1  0.097394  0  0.101707  0.118246  0  1.032694  0
H  H43  1  0.27628018  0.08979708  0.51382891  1  0.075019  0  0.09952  0.112585  0  1.048471  0
H  H44  1  0.73326397  0.66089220  0.08490007  1  0.144987  0  0.115552  0.154714  0  1.004617  0
H  H45  1  0.19759107  0.34367237  0.40842225  1  0.177734  0  0.114732  0.154001  0  1.007173  0
H  H46  1  0.28695376  0.15517813  0.90702712  1  0.153514  0  0.114645  0.154431  0  1.011643  0
H  H47  1  0.79216516  0.84487164  0.59192287  1  0.153544  0  0.114632  0.153539  0  1.009478  0
H  H48  1  0.26734256  0.33742678  0.91507044  1  0.130668  0  0.115197  0.153967  0  1.005736  0
H  H49  1  0.76150436  0.66227902  0.58599854  1  0.131276  0  0.114855  0.153701  0  1.008341  0
H  H50  1  0.71516874  0.84337686  0.09170904  1  0.178826  0  0.114267  0.15353  0  1.012933  0
H  H51  1  0.25181200  0.16056406  0.41524609  1  0.151947  0  0.11529  0.1548  0  1.006682  0
C  C52  1  0.48655649  0.25056789  0.25464478  1  2.094518  0  0.236909  0.7865  0  4.322973  0
C  C53  1  0.98837606  0.75070212  0.24518748  1  2.082893  0  0.237122  0.785624  0  4.323915  0
C  C54  1  0.51318535  0.74817037  0.74594696  1  2.105929  0  0.237428  0.785233  0  4.324192  0
C  C55  1  0.01213827  0.25022882  0.75417014  1  2.100349  0  0.236216  0.78607  0  4.322274  0
C  C56  1  0.15517142  0.45416619  0.17968911  1  0.327031  0  -0.006914  -0.04508  0  4.013751  0
C  C57  1  0.65160595  0.54643209  0.32145861  1  0.422696  0  -0.006419  -0.043399  0  4.00967  0
C  C58  1  0.84614897  0.94959362  0.82136293  1  0.367295  0  -0.006404  -0.043751  0  4.012719  0
C  C59  1  0.34668050  0.04747764  0.67915623  1  0.407668  0  -0.005991  -0.042939  0  4.0096  0
C  C60  1  0.84035559  0.54366164  0.82125050  1  0.391538  0  -0.006208  -0.043914  0  4.010165  0
C  C61  1  0.33867409  0.45347998  0.67892728  1  0.374565  0  -0.006956  -0.043245  0  4.011765  0
C  C62  1  0.15788837  0.04839285  0.17833406  1  0.376455  0  -0.005986  -0.043867  0  4.011194  0
C  C63  1  0.66344834  0.95244473  0.32026759  1  0.411049  0  -0.006515  -0.043104  0  4.013772  0
C  C64  1  0.08003049  0.53948821  0.14108635  1  0.269577  0  -0.002339  -0.122597  0  3.901766  0
C  C65  1  0.57288112  0.46144589  0.36010874  1  0.235396  0  -0.002091  -0.12248  0  3.897457  0
C  C66  1  0.92392628  0.03500273  0.85839333  1  0.260152  0  -0.002943  -0.123242  0  3.900799  0
C  C67  1  0.42527596  0.96263697  0.64158380  1  0.265736  0  -0.003487  -0.124738  0  3.900669  0
C  C68  1  0.91340946  0.45856041  0.86075185  1  0.247817  0  -0.002947  -0.124639  0  3.901509  0
C  C69  1  0.41109349  0.53911965  0.63998556  1  0.225381  0  -0.002891  -0.123782  0  3.902313  0
C  C70  1  0.08284519  0.96337504  0.13993431  1  0.258568  0  -0.002875  -0.123163  0  3.900493  0
C  C71  1  0.59085071  0.03769559  0.35850654  1  0.219403  0  -0.003766  -0.126353  0  3.904517  0
C  C72  1  0.80127868  0.42448725  0.11799187  1  0.967339  0  0.140112  0.073024  0  3.903089  0
C  C73  1  0.29693284  0.57721110  0.38180569  1  1.001692  0  0.140392  0.073124  0  3.904669  0
C  C74  1  0.20111640  0.91985914  0.88228594  1  0.960272  0  0.139989  0.073639  0  3.899823  0
C  C75  1  0.70021698  0.07925815  0.61768407  1  0.950017  0  0.139685  0.07328  0  3.90203  0
C  C76  1  0.19468275  0.57281273  0.88287874  1  0.963962  0  0.139759  0.072386  0  3.9016  0
C  C77  1  0.69354712  0.42611460  0.61731457  1  0.933051  0  0.139732  0.071966  0  3.902082  0
C  C78  1  0.80231350  0.07759571  0.11763021  1  0.968096  0  0.140036  0.07293  0  3.901113  0
C  C79  1  0.30891832  0.92374019  0.38226333  1  0.960296  0  0.139928  0.072255  0  3.899636  0
C  C80  1  0.70884463  0.58975281  0.05428101  1  0.246425  0  -0.131421  -0.279734  0  3.835688  0
C  C81  1  0.19528048  0.41221800  0.44446902  1  0.141014  0  -0.131064  -0.281252  0  3.836329  0
C  C82  1  0.29958060  0.08569419  0.94219701  1  0.229769  0  -0.131972  -0.280704  0  3.838871  0
C  C83  1  0.80112701  0.91450175  0.55681607  1  0.170178  0  -0.131313  -0.279897  0  3.837347  0
C  C84  1  0.28412280  0.40781235  0.94766579  1  0.263814  0  -0.131342  -0.279521  0  3.836397  0
C  C85  1  0.78102822  0.59203873  0.55340818  1  0.243076  0  -0.131588  -0.2787  0  3.836165  0
C  C86  1  0.70830527  0.91239127  0.05557571  1  0.198248  0  -0.132008  -0.280887  0  3.83821  0
C  C87  1  0.22177937  0.08896185  0.44526584  1  0.203862  0  -0.131707  -0.280237  0  3.837896  0
N  N88  1  0.98020679  0.38312543  0.16477627  1  -1.230592  0  -0.3591  -0.28478  0  3.618651  0
N  N89  1  0.47837042  0.61797380  0.33550683  1  -1.255473  0  -0.359275  -0.286271  0  3.619169  0
N  N90  1  0.02017864  0.87847282  0.83670502  1  -1.237218  0  -0.359345  -0.285401  0  3.615731  0
N  N91  1  0.51934059  0.11951697  0.66378878  1  -1.244224  0  -0.358619  -0.284383  0  3.616444  0
N  N92  1  0.01693926  0.61426741  0.83558442  1  -1.236762  0  -0.358875  -0.284495  0  3.617382  0
N  N93  1  0.51599683  0.38366205  0.66428992  1  -1.228519  0  -0.358743  -0.285295  0  3.618204  0
N  N94  1  0.98177303  0.11898407  0.16394327  1  -1.234783  0  -0.358429  -0.284494  0  3.61559  0
N  N95  1  0.48644366  0.88204405  0.33554817  1  -1.252101  0  -0.358846  -0.284772  0  3.617497  0
N  N96  1  0.85630943  0.51924544  0.10238837  1  -1.233493  0  -0.24608  0.090701  0  3.7975  0
N  N97  1  0.34864856  0.48241107  0.39792799  1  -1.232587  0  -0.246348  0.091976  0  3.797737  0
N  N98  1  0.14832850  0.01471874  0.89663511  1  -1.235343  0  -0.245789  0.089723  0  3.799609  0
N  N99  1  0.64882159  0.98423590  0.60303985  1  -1.237408  0  -0.245486  0.090941  0  3.797349  0
N  N100  1  0.13750604  0.47845062  0.89935017  1  -1.241245  0  -0.245253  0.093075  0  3.794913  0
N  N101  1  0.63549501  0.52038146  0.60134291  1  -1.237715  0  -0.245958  0.092026  0  3.794195  0
N  N102  1  0.85800859  0.98330847  0.10185897  1  -1.234033  0  -0.246205  0.092014  0  3.795835  0
N  N103  1  0.36667609  0.01811356  0.39741787  1  -1.237094  0  -0.245512  0.093685  0  3.792349  0
O  O104  1  0.27722356  0.25072445  0.29778374  1  -1.198322  0  -0.360082  -0.624193  0  2.264233  0
O  O105  1  0.77897186  0.75016156  0.20207897  1  -1.192585  0  -0.360219  -0.624054  0  2.26603  0
O  O106  1  0.72253910  0.74931222  0.70279696  1  -1.193119  0  -0.359975  -0.624212  0  2.265332  0
O  O107  1  0.22152922  0.24949058  0.79729350  1  -1.191788  0  -0.36012  -0.625317  0  2.266634  0
O  O108  1  0.49348114  0.25034744  0.17211201  1  -1.205011  0  -0.373443  -0.675723  0  2.102044  0
O  O109  1  0.99524135  0.75076932  0.32771860  1  -1.198605  0  -0.373251  -0.675481  0  2.103161  0
O  O110  1  0.50638246  0.74575254  0.82846695  1  -1.22494  0  -0.374095  -0.67515  0  2.102985  0
O  O111  1  0.00526054  0.25269296  0.67165358  1  -1.221407  0  -0.372648  -0.674972  0  2.102282  0
O  O112  1  0.68962584  0.25060684  0.30186100  1  -1.195138  0  -0.370121  -0.638005  0  2.247507  0
O  O113  1  0.19139997  0.75113830  0.19795962  1  -1.194858  0  -0.369708  -0.637022  0  2.2467  0
O  O114  1  0.31009677  0.74983246  0.69878410  1  -1.191534  0  -0.369672  -0.637058  0  2.245731  0
O  O115  1  0.80912451  0.24828343  0.80138273  1  -1.191798  0  -0.369841  -0.637722  0  2.246069  0
