# generated using pymatgen
data_CdH24C34(BrN6)2
_symmetry_space_group_name_H-M   'P 1'
_cell_length_a   8.21065965
_cell_length_b   8.56883890
_cell_length_c   13.10594242
_cell_angle_alpha   99.34004276
_cell_angle_beta   97.77179606
_cell_angle_gamma   113.84966645
_symmetry_Int_Tables_number   1
_chemical_formula_structural   CdH24C34(BrN6)2
_chemical_formula_sum   'Cd1 H24 C34 Br2 N12'
_cell_volume   811.29206600
_cell_formula_units_Z   1
loop_
 _symmetry_equiv_pos_site_id
 _symmetry_equiv_pos_as_xyz
  1  'x, y, z'
loop_
 _atom_site_type_symbol
 _atom_site_label
 _atom_site_symmetry_multiplicity
 _atom_site_fract_x
 _atom_site_fract_y
 _atom_site_fract_z
 _atom_site_occupancy
 _atom_site_hle17_bader_spin_density
 _atom_site_hle17_ddec_charge
 _atom_site_hle17_ddec_spin_density
 _atom_site_hle17_ddec_sum_bond_order
 _atom_site_hle17_magmom
 _atom_site_hse06_10hf_bader_spin_density
 _atom_site_hse06_10hf_ddec_charge
 _atom_site_hse06_10hf_ddec_spin_density
 _atom_site_hse06_10hf_ddec_sum_bond_order
 _atom_site_hse06_10hf_magmom
 _atom_site_hse06_bader_spin_density
 _atom_site_hse06_ddec_charge
 _atom_site_hse06_ddec_spin_density
 _atom_site_hse06_ddec_sum_bond_order
 _atom_site_hse06_magmom
 _atom_site_pbe_bader_spin_density
 _atom_site_pbe_cm5_charge
 _atom_site_pbe_ddec_charge
 _atom_site_pbe_ddec_spin_density
 _atom_site_pbe_ddec_sum_bond_order
 _atom_site_pbe_magmom
Cd  Cd0  1  0.49999846  0.50000111  0.49999985  1  0  0.86874  0  1.923161  0  0  0.664635  0  2.380064  0  0  0.716966  0  2.342562  0  0  0.617338  0.628363  0  2.40484  0
H  H1  1  0.48166392  0.30634656  0.10813199  1  0  0.098558  0  0.96533  0  0  0.108934  0  1.027799  0  0  0.111135  0  1.028261  0  0  0.102425  0.107366  0  1.027594  0
H  H2  1  0.51833498  0.69364911  0.89186870  1  0  0.09859  0  0.965396  0  0  0.108973  0  1.027833  0  0  0.111174  0  1.028294  0  0  0.102458  0.107411  0  1.027633  0
H  H3  1  0.23630737  0.01124876  0.01309456  1  0  0.064046  0  0.993777  0  0  0.062861  0  1.077263  0  0  0.065815  0  1.07477  0  0  0.103497  0.06077  0  1.079011  0
H  H4  1  0.76369210  0.98874824  0.98690326  1  0  0.064032  0  0.993759  0  0  0.062853  0  1.077249  0  0  0.065806  0  1.074756  0  0  0.103496  0.060761  0  1.078998  0
H  H5  1  0.45904396  0.01350597  0.74831859  1  0  0.067385  0  0.94327  0  0  0.075106  0  1.007245  0  0  0.077432  0  1.006108  0  0  0.101431  0.073392  0  1.008182  0
H  H6  1  0.54095723  0.98649759  0.25168085  1  0  0.067401  0  0.943315  0  0  0.07512  0  1.007288  0  0  0.077447  0  1.006149  0  0  0.101442  0.073408  0  1.008223  0
H  H7  1  0.71516692  0.30734802  0.83109074  1  0  0.106673  0  0.973368  0  0  0.111311  0  1.044946  0  0  0.11484  0  1.042992  0  0  0.095101  0.108717  0  1.046538  0
H  H8  1  0.28483369  0.69265422  0.16890851  1  0  0.106685  0  0.973361  0  0  0.111321  0  1.044917  0  0  0.114863  0  1.042949  0  0  0.0951  0.108726  0  1.046515  0
H  H9  1  0.07284267  0.10033486  0.11419025  1  0  0.122329  0  0.982388  0  0  0.123114  0  1.057565  0  0  0.127586  0  1.054273  0  0  0.113609  0.119853  0  1.060133  0
H  H10  1  0.92715611  0.89966606  0.88581024  1  0  0.12233  0  0.982393  0  0  0.123108  0  1.05758  0  0  0.12758  0  1.054289  0  0  0.113611  0.119848  0  1.060145  0
H  H11  1  0.27430398  0.36658060  0.25815883  1  0  0.07437  0  0.980509  0  0  0.075526  0  1.059442  0  0  0.078942  0  1.056025  0  0  0.099326  0.073015  0  1.06195  0
H  H12  1  0.72569422  0.63341901  0.74184146  1  0  0.074375  0  0.980521  0  0  0.07554  0  1.059431  0  0  0.078957  0  1.056013  0  0  0.099337  0.073029  0  1.06194  0
H  H13  1  0.29189134  0.06758244  0.47412354  1  0  0.077964  0  0.965163  0  0  0.082204  0  1.034445  0  0  0.085705  0  1.03081  0  0  0.099926  0.079617  0  1.037129  0
H  H14  1  0.70810809  0.93241718  0.52587610  1  0  0.077917  0  0.965183  0  0  0.082116  0  1.034501  0  0  0.085617  0  1.030866  0  0  0.099908  0.079532  0  1.037181  0
H  H15  1  0.09730345  0.78881091  0.34067385  1  0  0.107023  0  0.983603  0  0  0.115306  0  1.045657  0  0  0.118331  0  1.045327  0  0  0.097984  0.113114  0  1.04608  0
H  H16  1  0.90269598  0.21118870  0.65932654  1  0  0.107027  0  0.983644  0  0  0.115311  0  1.045692  0  0  0.118335  0  1.045362  0  0  0.097994  0.113119  0  1.046117  0
H  H17  1  0.65324464  0.64555029  0.28259495  1  0  0.094395  0  0.95611  0  0  0.096145  0  1.030921  0  0  0.099633  0  1.027935  0  0  0.106591  0.093555  0  1.033138  0
H  H18  1  0.34675355  0.35444932  0.71740229  1  0  0.094406  0  0.956142  0  0  0.096176  0  1.030914  0  0  0.099665  0  1.027929  0  0  0.106606  0.093586  0  1.03313  0
H  H19  1  0.77397682  0.33513184  0.46232118  1  0  0.074012  0  0.988824  0  0  0.079061  0  1.059402  0  0  0.082469  0  1.056165  0  0  0.094956  0.076543  0  1.061798  0
H  H20  1  0.22602315  0.66487171  0.53768045  1  0  0.074049  0  0.988747  0  0  0.079062  0  1.059354  0  0  0.082468  0  1.056119  0  0  0.094954  0.076545  0  1.061749  0
H  H21  1  0.94427611  0.25287150  0.33398343  1  0  0.108262  0  0.946273  0  0  0.119994  0  0.999577  0  0  0.122352  0  1.00035  0  0  0.110805  0.11831  0  0.999213  0
H  H22  1  0.05572268  0.74712942  0.66601782  1  0  0.108252  0  0.946309  0  0  0.119979  0  0.99962  0  0  0.122336  0  1.000396  0  0  0.110806  0.118296  0  0.999257  0
H  H23  1  0.97206658  0.38106976  0.17366047  1  0  0.123518  0  0.946201  0  0  0.127244  0  1.019191  0  0  0.131123  0  1.015027  0  0  0.115313  0.12436  0  1.022304  0
H  H24  1  0.02793226  0.61892854  0.82634050  1  0  0.123508  0  0.946232  0  0  0.127222  0  1.019232  0  0  0.131101  0  1.01507  0  0  0.115294  0.124343  0  1.022331  0
C  C25  1  0.62340757  0.33116018  0.97814019  1  0  0.039145  0  3.792492  0  0  0.053958  0  4.030276  0  0  0.054691  0  4.05136  0  0  0.003379  0.053535  0  4.015935  0
C  C26  1  0.37659620  0.66883814  0.02186043  1  0  0.039112  0  3.792563  0  0  0.053936  0  4.030343  0  0  0.054669  0  4.05143  0  0  0.003448  0.053515  0  4.016003  0
C  C27  1  0.48507997  0.24604504  0.02920123  1  0  -0.138225  0  3.702811  0  0  -0.162392  0  3.952198  0  0  -0.167188  0  3.973111  0  0  -0.088168  -0.159234  0  3.938111  0
C  C28  1  0.51492444  0.75395197  0.97079930  1  0  -0.138188  0  3.702807  0  0  -0.162369  0  3.952221  0  0  -0.167163  0  3.973132  0  0  -0.0882  -0.159223  0  3.938145  0
C  C29  1  0.34602106  0.08142175  0.97570150  1  0  0.120097  0  3.732645  0  0  0.097445  0  3.993242  0  0  0.102271  0  4.01081  0  0  0.035521  0.094288  0  3.981251  0
C  C30  1  0.65398142  0.91857920  0.02429776  1  0  0.120067  0  3.732565  0  0  0.097406  0  3.99317  0  0  0.102232  0  4.010739  0  0  0.035471  0.09425  0  3.98118  0
C  C31  1  0.46895603  0.08115578  0.82881756  1  0  0.105867  0  3.763864  0  0  0.085401  0  4.01863  0  0  0.089688  0  4.037071  0  0  0.033438  0.082664  0  4.005942  0
C  C32  1  0.53104769  0.91884516  0.17118334  1  0  0.105855  0  3.763955  0  0  0.085386  0  4.018722  0  0  0.089672  0  4.037169  0  0  0.033415  0.082649  0  4.006035  0
C  C33  1  0.61395809  0.24497737  0.87524509  1  0  -0.140898  0  3.716168  0  0  -0.162982  0  3.964714  0  0  -0.168697  0  3.986299  0  0  -0.087799  -0.15918  0  3.950276  0
C  C34  1  0.38604439  0.75502357  0.12475494  1  0  -0.140958  0  3.716241  0  0  -0.163026  0  3.964784  0  0  -0.168749  0  3.986358  0  0  -0.08784  -0.159225  0  3.950343  0
C  C35  1  0.76775100  0.50914199  0.02217215  1  0  0.262181  0  3.711632  0  0  0.228587  0  3.984929  0  0  0.241323  0  3.998443  0  0  0.227686  0.220187  0  3.975542  0
C  C36  1  0.23224966  0.49085763  0.97782758  1  0  0.262266  0  3.711542  0  0  0.228648  0  3.984857  0  0  0.241384  0  3.998368  0  0  0.227703  0.220248  0  3.975469  0
C  C37  1  0.95653706  0.76772065  0.12617498  1  0  0.248189  0  3.714334  0  0  0.21702  0  3.98387  0  0  0.228107  0  3.998178  0  0  0.226962  0.209751  0  3.973961  0
C  C38  1  0.04346114  0.23227896  0.87382531  1  0  0.248135  0  3.714418  0  0  0.216914  0  3.984002  0  0  0.227974  0  3.99835  0  0  0.22693  0.209646  0  3.974092  0
C  C39  1  0.06532038  0.91997237  0.21473033  1  0  0.057064  0  3.774327  0  0  0.069481  0  4.01188  0  0  0.072197  0  4.032313  0  0  0.014076  0.06769  0  3.998104  0
C  C40  1  0.93467905  0.08002725  0.78526930  1  0  0.057076  0  3.77436  0  0  0.069514  0  4.011905  0  0  0.072238  0  4.032344  0  0  0.014103  0.067723  0  3.998128  0
C  C41  1  0.11955702  0.08680001  0.19260696  1  0  -0.129485  0  3.663311  0  0  -0.14936  0  3.912457  0  0  -0.154902  0  3.930966  0  0  -0.075905  -0.145836  0  3.900254  0
C  C42  1  0.88044117  0.91319960  0.80739257  1  0  -0.129486  0  3.663318  0  0  -0.149378  0  3.912498  0  0  -0.15492  0  3.931007  0  0  -0.075905  -0.145854  0  3.900293  0
C  C43  1  0.23121440  0.23520128  0.27258550  1  0  0.113536  0  3.719885  0  0  0.08626  0  3.97005  0  0  0.092099  0  3.988333  0  0  0.036266  0.082491  0  3.957622  0
C  C44  1  0.76878808  0.76479967  0.72741377  1  0  0.113552  0  3.719917  0  0  0.08628  0  3.970083  0  0  0.09212  0  3.988366  0  0  0.036262  0.082512  0  3.957653  0
C  C45  1  0.23726812  0.06867666  0.39368972  1  0  0.127329  0  3.718453  0  0  0.10079  0  3.964161  0  0  0.107399  0  3.981755  0  0  0.04063  0.096505  0  3.952143  0
C  C46  1  0.76273190  0.93132427  0.60631087  1  0  0.127332  0  3.718566  0  0  0.100838  0  3.964258  0  0  0.107447  0  3.981852  0  0  0.040609  0.096552  0  3.95224  0
C  C47  1  0.12648325  0.91234583  0.31815633  1  0  -0.148979  0  3.709125  0  0  -0.167364  0  3.951848  0  0  -0.173773  0  3.972097  0  0  -0.088024  -0.163184  0  3.938285  0
C  C48  1  0.87351800  0.08765511  0.68184360  1  0  -0.148933  0  3.709219  0  0  -0.167314  0  3.951906  0  0  -0.17372  0  3.972151  0  0  -0.088006  -0.163137  0  3.938345  0
C  C49  1  0.81713285  0.52342157  0.21791106  1  0  0.121812  0  3.761891  0  0  0.122405  0  4.009361  0  0  0.122515  0  4.030755  0  0  0.092355  0.121876  0  3.995132  0
C  C50  1  0.18286417  0.47657541  0.78208885  1  0  0.121897  0  3.761802  0  0  0.122452  0  4.009293  0  0  0.122563  0  4.030684  0  0  0.092383  0.121921  0  3.995065  0
C  C51  1  0.72201264  0.56108587  0.29172050  1  0  0.050173  0  3.68624  0  0  0.01359  0  3.939647  0  0  0.020493  0  3.954319  0  0  0.045747  0.009207  0  3.929732  0
C  C52  1  0.27798678  0.43891375  0.70827760  1  0  0.050118  0  3.686206  0  0  0.013545  0  3.939591  0  0  0.020447  0  3.954262  0  0  0.045725  0.009162  0  3.929677  0
C  C53  1  0.78982050  0.38646319  0.39136560  1  0  0.113605  0  3.704927  0  0  0.084623  0  3.949736  0  0  0.090834  0  3.968537  0  0  0.039943  0.080552  0  3.937141  0
C  C54  1  0.21017764  0.61353904  0.60863497  1  0  0.113632  0  3.704786  0  0  0.084688  0  3.949593  0  0  0.090899  0  3.968394  0  0  0.039936  0.080617  0  3.936997  0
C  C55  1  0.88367308  0.34149901  0.32027286  1  0  -0.083126  0  3.729899  0  0  -0.094115  0  3.983346  0  0  -0.100728  0  4.003729  0  0  -0.071672  -0.090067  0  3.969962  0
C  C56  1  0.11632571  0.65850190  0.67972838  1  0  -0.083222  0  3.729927  0  0  -0.094222  0  3.983378  0  0  -0.100833  0  4.003759  0  0  -0.071738  -0.090175  0  3.969996  0
C  C57  1  0.89847282  0.41114132  0.23132032  1  0  -0.058851  0  3.669654  0  0  -0.09624  0  3.938528  0  0  -0.091467  0  3.951528  0  0  -0.056864  -0.099202  0  3.930024  0
C  C58  1  0.10152784  0.58885829  0.76868094  1  0  -0.058821  0  3.669626  0  0  -0.096179  0  3.938478  0  0  -0.091405  0  3.951477  0  0  -0.056801  -0.09914  0  3.929977  0
Br  Br59  1  0.39547918  0.69337836  0.38505133  1  0  -0.574865  0  0.928968  0  0  -0.519665  0  1.212356  0  0  -0.537786  0  1.191277  0  0  -0.284928  -0.506315  0  1.226583  0
Br  Br60  1  0.60451527  0.30662385  0.61494894  1  0  -0.574862  0  0.928984  0  0  -0.519691  0  1.212407  0  0  -0.537811  0  1.191323  0  0  -0.284927  -0.506331  0  1.226616  0
N  N61  1  0.33572261  0.99898979  0.87715075  1  0  -0.31395  0  3.082903  0  0  -0.274657  0  3.34838  0  0  -0.286272  0  3.366916  0  0  -0.322383  -0.266339  0  3.335402  0
N  N62  1  0.66427863  0.00101115  0.12284765  1  0  -0.313931  0  3.082905  0  0  -0.27463  0  3.348372  0  0  -0.286248  0  3.366915  0  0  -0.32234  -0.266312  0  3.335395  0
N  N63  1  0.84538647  0.61586484  0.96161118  1  0  -0.264031  0  2.949998  0  0  -0.243024  0  3.242147  0  0  -0.252588  0  3.255997  0  0  -0.21351  -0.236353  0  3.232532  0
N  N64  1  0.15461173  0.38413477  0.03838835  1  0  -0.264038  0  2.949941  0  0  -0.243025  0  3.242092  0  0  -0.252589  0  3.25594  0  0  -0.213503  -0.236353  0  3.232477  0
N  N65  1  0.96147750  0.77567817  0.02606297  1  0  -0.245752  0  2.992433  0  0  -0.219548  0  3.282435  0  0  -0.228332  0  3.296658  0  0  -0.202779  -0.213357  0  3.272538  0
N  N66  1  0.03851947  0.22432143  0.97393645  1  0  -0.245723  0  2.992398  0  0  -0.219506  0  3.282415  0  0  -0.228281  0  3.296646  0  0  -0.202775  -0.213315  0  3.272519  0
N  N67  1  0.83561012  0.59946251  0.12780445  1  0  -0.189853  0  3.466846  0  0  -0.106994  0  3.679395  0  0  -0.123256  0  3.701806  0  0  -0.206456  -0.096105  0  3.664176  0
N  N68  1  0.16438995  0.40053580  0.87219433  1  0  -0.189912  0  3.466847  0  0  -0.107012  0  3.679396  0  0  -0.123267  0  3.701813  0  0  -0.206501  -0.096123  0  3.664177  0
N  N69  1  0.28888011  0.22758799  0.37216059  1  0  -0.320766  0  3.25356  0  0  -0.244008  0  3.509728  0  0  -0.262973  0  3.530539  0  0  -0.326946  -0.230999  0  3.495161  0
N  N70  1  0.71111809  0.77241161  0.62783894  1  0  -0.320788  0  3.253615  0  0  -0.244037  0  3.509772  0  0  -0.263004  0  3.530584  0  0  -0.32695  -0.231029  0  3.495205  0
N  N71  1  0.70963641  0.49343203  0.37730593  1  0  -0.303129  0  3.227707  0  0  -0.228332  0  3.48472  0  0  -0.247499  0  3.505937  0  0  -0.320204  -0.215372  0  3.470094  0
N  N72  1  0.29036173  0.50657021  0.62269235  1  0  -0.303114  0  3.227677  0  0  -0.228322  0  3.484666  0  0  -0.247488  0  3.505884  0  0  -0.32017  -0.215362  0  3.470039  0
