# generated using pymatgen
data_Zn2H6C6N9Cl
_symmetry_space_group_name_H-M   'P 1'
_cell_length_a   7.50756056
_cell_length_b   9.93723736
_cell_length_c   17.54387962
_cell_angle_alpha   89.99999544
_cell_angle_beta   90.00005745
_cell_angle_gamma   89.99999303
_symmetry_Int_Tables_number   1
_chemical_formula_structural   Zn2H6C6N9Cl
_chemical_formula_sum   'Zn8 H24 C24 N36 Cl4'
_cell_volume   1308.85080959
_cell_formula_units_Z   4
loop_
 _symmetry_equiv_pos_site_id
 _symmetry_equiv_pos_as_xyz
  1  'x, y, z'
loop_
 _atom_site_type_symbol
 _atom_site_label
 _atom_site_symmetry_multiplicity
 _atom_site_fract_x
 _atom_site_fract_y
 _atom_site_fract_z
 _atom_site_occupancy
 _atom_site_hle17_bader_spin_density
 _atom_site_hle17_ddec_charge
 _atom_site_hle17_ddec_spin_density
 _atom_site_hle17_ddec_sum_bond_order
 _atom_site_hle17_magmom
 _atom_site_hse06_10hf_bader_spin_density
 _atom_site_hse06_10hf_ddec_charge
 _atom_site_hse06_10hf_ddec_spin_density
 _atom_site_hse06_10hf_ddec_sum_bond_order
 _atom_site_hse06_10hf_magmom
 _atom_site_hse06_bader_spin_density
 _atom_site_hse06_ddec_charge
 _atom_site_hse06_ddec_spin_density
 _atom_site_hse06_ddec_sum_bond_order
 _atom_site_hse06_magmom
 _atom_site_pbe_bader_spin_density
 _atom_site_pbe_cm5_charge
 _atom_site_pbe_ddec_charge
 _atom_site_pbe_ddec_spin_density
 _atom_site_pbe_ddec_sum_bond_order
 _atom_site_pbe_magmom
Zn  Zn0  1  0.52795607  0.25000002  0.26631007  1  0  0.792551  0  2.118008  0  0  0.579113  0  2.581102  0  0  0.62016  0  2.543887  0  0  0.703388  0.550176  0  2.606615  0
Zn  Zn1  1  0.97204361  0.75000010  0.76630960  1  0  0.792582  0  2.117978  0  0  0.579124  0  2.58108  0  0  0.620172  0  2.543865  0  0  0.703394  0.550188  0  2.606594  0
Zn  Zn2  1  0.47204494  0.75000013  0.73368957  1  0  0.792564  0  2.117994  0  0  0.579116  0  2.581095  0  0  0.620167  0  2.543882  0  0  0.703392  0.550186  0  2.60661  0
Zn  Zn3  1  0.02795740  0.25000005  0.23369004  1  0  0.792514  0  2.118114  0  0  0.57907  0  2.581202  0  0  0.620123  0  2.543987  0  0  0.703372  0.550144  0  2.606718  0
Zn  Zn4  1  0.38937418  0.75000018  0.07753024  1  0  0.885797  0  2.083584  0  0  0.696994  0  2.566763  0  0  0.735379  0  2.522589  0  0  0.648238  0.669651  0  2.597114  0
Zn  Zn5  1  0.11062647  0.25000002  0.57753020  1  0  0.885799  0  2.083572  0  0  0.696985  0  2.566754  0  0  0.735367  0  2.52258  0  0  0.648238  0.669637  0  2.597098  0
Zn  Zn6  1  0.61062684  0.24999997  0.92246998  1  0  0.885813  0  2.083575  0  0  0.697002  0  2.566758  0  0  0.735393  0  2.522582  0  0  0.648243  0.669661  0  2.597106  0
Zn  Zn7  1  0.88937321  0.75000013  0.42246944  1  0  0.885809  0  2.083539  0  0  0.696997  0  2.566719  0  0  0.735385  0  2.522545  0  0  0.648234  0.669654  0  2.597067  0
H  H8  1  0.44775004  0.25000004  0.08099130  1  0  0.096136  0  0.94283  0  0  0.103296  0  1.007235  0  0  0.105388  0  1.005394  0  0  0.127721  0.101732  0  1.008522  0
H  H9  1  0.05225061  0.75000016  0.58099178  1  0  0.096143  0  0.942808  0  0  0.103303  0  1.007214  0  0  0.105394  0  1.005375  0  0  0.127723  0.101739  0  1.0085  0
H  H10  1  0.55225097  0.75000011  0.91900835  1  0  0.096135  0  0.942817  0  0  0.103294  0  1.007225  0  0  0.105389  0  1.005375  0  0  0.127719  0.10173  0  1.008511  0
H  H11  1  0.94775040  0.25000100  0.41900843  1  0  0.096152  0  0.942818  0  0  0.103326  0  1.007205  0  0  0.105421  0  1.005357  0  0  0.127727  0.101762  0  1.00849  0
H  H12  1  0.04346424  0.96604917  0.11786844  1  0  0.093349  0  0.925689  0  0  0.102919  0  0.988173  0  0  0.105329  0  0.985454  0  0  0.133004  0.101141  0  0.990215  0
H  H13  1  0.45653783  0.03395002  0.61786856  1  0  0.093347  0  0.925713  0  0  0.102912  0  0.988208  0  0  0.105316  0  0.985497  0  0  0.132986  0.101136  0  0.99025  0
H  H14  1  0.95653674  0.46604894  0.88213119  1  0  0.093339  0  0.92576  0  0  0.102931  0  0.988216  0  0  0.105333  0  0.985508  0  0  0.133002  0.101156  0  0.990259  0
H  H15  1  0.54346322  0.53395016  0.38213109  1  0  0.09335  0  0.925724  0  0  0.102911  0  0.988218  0  0  0.105329  0  0.985492  0  0  0.132986  0.101136  0  0.990261  0
H  H16  1  0.95653677  0.03395098  0.88213120  1  0  0.093321  0  0.925749  0  0  0.102911  0  0.988211  0  0  0.105316  0  0.985499  0  0  0.132993  0.101137  0  0.990253  0
H  H17  1  0.54346319  0.96604913  0.38213108  1  0  0.093332  0  0.925715  0  0  0.102912  0  0.988191  0  0  0.105315  0  0.985481  0  0  0.13299  0.101137  0  0.990233  0
H  H18  1  0.04346295  0.53395020  0.11786845  1  0  0.093377  0  0.925683  0  0  0.102945  0  0.988162  0  0  0.105365  0  0.985433  0  0  0.133008  0.101167  0  0.990205  0
H  H19  1  0.45653780  0.46604999  0.61786855  1  0  0.093342  0  0.925731  0  0  0.102901  0  0.988227  0  0  0.10532  0  0.9855  0  0  0.132979  0.101127  0  0.99027  0
H  H20  1  0.99612385  0.25000002  0.03212537  1  0  0.091997  0  0.945618  0  0  0.099614  0  1.01372  0  0  0.101806  0  1.011174  0  0  0.12491  0.097869  0  1.015729  0
H  H21  1  0.50387662  0.75000014  0.53212584  1  0  0.091992  0  0.945597  0  0  0.099609  0  1.013699  0  0  0.1018  0  1.011154  0  0  0.124898  0.097865  0  1.015708  0
H  H22  1  0.00387717  0.75000013  0.96787484  1  0  0.091983  0  0.94559  0  0  0.099603  0  1.013687  0  0  0.101793  0  1.011142  0  0  0.124901  0.097858  0  1.015696  0
H  H23  1  0.49612307  0.25000001  0.46787438  1  0  0.092  0  0.945575  0  0  0.099618  0  1.013674  0  0  0.101808  0  1.01113  0  0  0.124904  0.097871  0  1.015682  0
H  H24  1  0.58028850  0.95034457  0.18527212  1  0  0.095357  0  0.939718  0  0  0.103286  0  1.003235  0  0  0.105602  0  1.000886  0  0  0.128457  0.101636  0  1.004885  0
H  H25  1  0.91971233  0.04965556  0.68527223  1  0  0.095376  0  0.9397  0  0  0.103294  0  1.003225  0  0  0.105611  0  1.000876  0  0  0.128467  0.101645  0  1.004873  0
H  H26  1  0.41971248  0.45034440  0.81472751  1  0  0.095376  0  0.93969  0  0  0.103291  0  1.003216  0  0  0.105607  0  1.000867  0  0  0.12846  0.101641  0  1.004864  0
H  H27  1  0.08028872  0.54965576  0.31472743  1  0  0.09535  0  0.939712  0  0  0.103277  0  1.00323  0  0  0.105593  0  1.000882  0  0  0.128447  0.101628  0  1.00488  0
H  H28  1  0.41971252  0.04965558  0.81472752  1  0  0.095361  0  0.939709  0  0  0.103278  0  1.003235  0  0  0.105594  0  1.000886  0  0  0.128453  0.101628  0  1.004882  0
H  H29  1  0.08028869  0.95034459  0.31472799  1  0  0.095368  0  0.93969  0  0  0.103294  0  1.00321  0  0  0.10561  0  1.000861  0  0  0.128455  0.101646  0  1.004861  0
H  H30  1  0.58028853  0.54965575  0.18527213  1  0  0.095362  0  0.939716  0  0  0.103291  0  1.003232  0  0  0.105608  0  1.000883  0  0  0.128459  0.101642  0  1.00488  0
H  H31  1  0.91971230  0.45034439  0.68527222  1  0  0.095372  0  0.939704  0  0  0.103291  0  1.003229  0  0  0.105606  0  1.00088  0  0  0.128465  0.10164  0  1.004876  0
C  C32  1  0.59131732  0.25000003  0.08811917  1  0  0.197846  0  3.721966  0  0  0.144592  0  3.986153  0  0  0.156469  0  4.000873  0  0  0.134197  0.136686  0  3.976509  0
C  C33  1  0.90868194  0.75000012  0.58811924  1  0  0.197907  0  3.721995  0  0  0.144638  0  3.986176  0  0  0.156515  0  4.000897  0  0  0.134223  0.136733  0  3.976527  0
C  C34  1  0.40868236  0.75000012  0.91188047  1  0  0.197889  0  3.721906  0  0  0.144626  0  3.98609  0  0  0.156504  0  4.00081  0  0  0.134237  0.136722  0  3.976443  0
C  C35  1  0.09131774  0.25000104  0.41187984  1  0  0.19789  0  3.721959  0  0  0.144627  0  3.986137  0  0  0.156506  0  4.000858  0  0  0.134249  0.136723  0  3.976488  0
C  C36  1  0.17071466  0.98991294  0.14413290  1  0  0.199834  0  3.703035  0  0  0.142272  0  3.973663  0  0  0.15435  0  3.987656  0  0  0.139415  0.134473  0  3.96371  0
C  C37  1  0.32928481  0.01008725  0.64413297  1  0  0.199811  0  3.703119  0  0  0.142253  0  3.973744  0  0  0.154336  0  3.98774  0  0  0.139408  0.13445  0  3.963792  0
C  C38  1  0.82928631  0.48991172  0.85586673  1  0  0.199869  0  3.703051  0  0  0.142282  0  3.973671  0  0  0.154365  0  3.987667  0  0  0.139444  0.134479  0  3.96372  0
C  C39  1  0.67071491  0.51008739  0.35586669  1  0  0.199832  0  3.703136  0  0  0.142272  0  3.973754  0  0  0.154343  0  3.987748  0  0  0.139429  0.134469  0  3.963806  0
C  C40  1  0.82928502  0.01008721  0.85586731  1  0  0.199845  0  3.703095  0  0  0.142264  0  3.973719  0  0  0.154346  0  3.987715  0  0  0.139416  0.134462  0  3.96377  0
C  C41  1  0.67071487  0.98991290  0.35586725  1  0  0.199853  0  3.70306  0  0  0.142278  0  3.973686  0  0  0.154361  0  3.987683  0  0  0.139428  0.134476  0  3.963732  0
C  C42  1  0.17071470  0.51008743  0.14413291  1  0  0.199782  0  3.703083  0  0  0.142219  0  3.973707  0  0  0.15429  0  3.987697  0  0  0.139402  0.134422  0  3.963757  0
C  C43  1  0.32928477  0.48991276  0.64413296  1  0  0.199837  0  3.703121  0  0  0.142294  0  3.973744  0  0  0.154363  0  3.98774  0  0  0.139419  0.134492  0  3.963796  0
C  C44  1  0.86950220  0.25000002  0.06239516  1  0  0.192331  0  3.702992  0  0  0.138138  0  3.96781  0  0  0.149775  0  3.982948  0  0  0.134955  0.130473  0  3.957941  0
C  C45  1  0.63049834  0.75000013  0.56239568  1  0  0.192366  0  3.703117  0  0  0.138167  0  3.967946  0  0  0.149802  0  3.983086  0  0  0.135003  0.130498  0  3.958082  0
C  C46  1  0.13049882  0.74999912  0.93760505  1  0  0.192335  0  3.70312  0  0  0.138143  0  3.967945  0  0  0.149781  0  3.983081  0  0  0.13496  0.130473  0  3.958076  0
C  C47  1  0.36950134  0.25000002  0.43760454  1  0  0.192285  0  3.703016  0  0  0.138092  0  3.967827  0  0  0.149729  0  3.982965  0  0  0.134929  0.130428  0  3.957954  0
C  C48  1  0.44248208  0.98163396  0.17967698  1  0  0.196219  0  3.724008  0  0  0.139394  0  3.992457  0  0  0.151276  0  4.007095  0  0  0.13518  0.131675  0  3.982204  0
C  C49  1  0.05751748  0.01836622  0.67967693  1  0  0.196211  0  3.724019  0  0  0.139399  0  3.992469  0  0  0.151281  0  4.007107  0  0  0.135183  0.131678  0  3.982214  0
C  C50  1  0.55751890  0.48163478  0.82032379  1  0  0.196219  0  3.724047  0  0  0.139412  0  3.992493  0  0  0.151295  0  4.007129  0  0  0.135194  0.131691  0  3.982238  0
C  C51  1  0.94248224  0.51836533  0.32032273  1  0  0.196216  0  3.723999  0  0  0.139384  0  3.992453  0  0  0.151266  0  4.007095  0  0  0.135181  0.131666  0  3.982202  0
C  C52  1  0.55751761  0.01836518  0.82032324  1  0  0.196175  0  3.72405  0  0  0.139358  0  3.992504  0  0  0.151241  0  4.007142  0  0  0.135148  0.131639  0  3.982244  0
C  C53  1  0.94248087  0.98163494  0.32032272  1  0  0.196179  0  3.724021  0  0  0.13935  0  3.992471  0  0  0.151231  0  4.007111  0  0  0.135167  0.131631  0  3.982223  0
C  C54  1  0.44248211  0.51836637  0.17967699  1  0  0.1962  0  3.724018  0  0  0.139373  0  3.992468  0  0  0.151255  0  4.007105  0  0  0.135171  0.131656  0  3.98221  0
C  C55  1  0.05751744  0.48163381  0.67967692  1  0  0.196231  0  3.724049  0  0  0.139418  0  3.992493  0  0  0.1513  0  4.00713  0  0  0.135185  0.131697  0  3.982232  0
N  N56  1  0.37256467  0.09033695  0.21197657  1  0  -0.258075  0  3.184443  0  0  -0.197854  0  3.466959  0  0  -0.212134  0  3.483955  0  0  -0.244153  -0.187808  0  3.454908  0
N  N57  1  0.12743630  0.90966323  0.71197708  1  0  -0.25807  0  3.184426  0  0  -0.197858  0  3.466949  0  0  -0.212137  0  3.483946  0  0  -0.244162  -0.187814  0  3.454901  0
N  N58  1  0.62743637  0.59033703  0.78802308  1  0  -0.25811  0  3.184402  0  0  -0.197912  0  3.466935  0  0  -0.212193  0  3.483932  0  0  -0.244178  -0.187867  0  3.454885  0
N  N59  1  0.87256469  0.40966309  0.28802313  1  0  -0.258041  0  3.184404  0  0  -0.197821  0  3.46693  0  0  -0.212103  0  3.483928  0  0  -0.244159  -0.187778  0  3.454879  0
N  N60  1  0.62743635  0.90966320  0.78802308  1  0  -0.258024  0  3.184454  0  0  -0.1978  0  3.466965  0  0  -0.212081  0  3.483964  0  0  -0.244134  -0.187757  0  3.454913  0
N  N61  1  0.87256339  0.09033591  0.28802314  1  0  -0.258025  0  3.184468  0  0  -0.1978  0  3.466975  0  0  -0.212081  0  3.483974  0  0  -0.244126  -0.187755  0  3.454926  0
N  N62  1  0.37256464  0.40966312  0.21197656  1  0  -0.258065  0  3.18444  0  0  -0.197844  0  3.466955  0  0  -0.212124  0  3.48395  0  0  -0.244149  -0.187799  0  3.454903  0
N  N63  1  0.12743499  0.59033605  0.71197765  1  0  -0.258093  0  3.184487  0  0  -0.197863  0  3.467009  0  0  -0.212143  0  3.484006  0  0  -0.244165  -0.187819  0  3.454957  0
N  N64  1  0.32112836  0.91522618  0.13654909  1  0  -0.424105  0  3.29767  0  0  -0.336244  0  3.596604  0  0  -0.358024  0  3.606934  0  0  -0.367425  -0.320967  0  3.588952  0
N  N65  1  0.17887109  0.08477301  0.63654966  1  0  -0.424089  0  3.297717  0  0  -0.336229  0  3.596648  0  0  -0.358006  0  3.606972  0  0  -0.36741  -0.320953  0  3.588994  0
N  N66  1  0.67887262  0.41522598  0.86344997  1  0  -0.424073  0  3.297724  0  0  -0.336213  0  3.596658  0  0  -0.357993  0  3.606985  0  0  -0.367413  -0.320937  0  3.589007  0
N  N67  1  0.82112729  0.58477313  0.36344999  1  0  -0.424083  0  3.297685  0  0  -0.336209  0  3.596605  0  0  -0.35799  0  3.606937  0  0  -0.367397  -0.320935  0  3.588957  0
N  N68  1  0.67887132  0.08477297  0.86345055  1  0  -0.424085  0  3.297679  0  0  -0.336225  0  3.596615  0  0  -0.358005  0  3.606945  0  0  -0.367412  -0.320951  0  3.588965  0
N  N69  1  0.82112726  0.91522614  0.36345055  1  0  -0.424083  0  3.297635  0  0  -0.336213  0  3.596566  0  0  -0.357993  0  3.606894  0  0  -0.367414  -0.320938  0  3.588919  0
N  N70  1  0.32112706  0.58477317  0.13654967  1  0  -0.424087  0  3.297704  0  0  -0.336225  0  3.596634  0  0  -0.358005  0  3.606967  0  0  -0.367412  -0.320949  0  3.588981  0
N  N71  1  0.17887106  0.41522602  0.63654965  1  0  -0.424115  0  3.297716  0  0  -0.336253  0  3.596642  0  0  -0.358031  0  3.606971  0  0  -0.367419  -0.320976  0  3.588986  0
N  N72  1  0.67581356  0.25000002  0.15452069  1  0  -0.253935  0  3.154778  0  0  -0.196376  0  3.432048  0  0  -0.210353  0  3.44942  0  0  -0.239364  -0.187303  0  3.420733  0
N  N73  1  0.82418587  0.75000012  0.65452015  1  0  -0.25403  0  3.154966  0  0  -0.196416  0  3.432157  0  0  -0.210394  0  3.449536  0  0  -0.23939  -0.187342  0  3.420836  0
N  N74  1  0.32418746  0.75000013  0.84547952  1  0  -0.254034  0  3.154966  0  0  -0.196421  0  3.43216  0  0  -0.2104  0  3.449537  0  0  -0.239413  -0.18735  0  3.42084  0
N  N75  1  0.17581249  0.25000003  0.34547949  1  0  -0.254027  0  3.15494  0  0  -0.196473  0  3.432203  0  0  -0.210452  0  3.449577  0  0  -0.239444  -0.187403  0  3.420892  0
N  N76  1  0.85406984  0.25000002  0.13809107  1  0  -0.250436  0  3.201522  0  0  -0.187858  0  3.490472  0  0  -0.202311  0  3.507351  0  0  -0.244349  -0.178379  0  3.479411  0
N  N77  1  0.64593087  0.75000013  0.63809103  1  0  -0.250426  0  3.201569  0  0  -0.18786  0  3.490509  0  0  -0.202311  0  3.507387  0  0  -0.244364  -0.178378  0  3.479448  0
N  N78  1  0.14593117  0.74999913  0.86190914  1  0  -0.250411  0  3.201511  0  0  -0.187846  0  3.490453  0  0  -0.202296  0  3.507327  0  0  -0.244333  -0.178356  0  3.479383  0
N  N79  1  0.35406881  0.25000103  0.36190862  1  0  -0.250448  0  3.201521  0  0  -0.187864  0  3.490466  0  0  -0.202314  0  3.507341  0  0  -0.244349  -0.178383  0  3.479404  0
N  N80  1  0.19844017  0.09596528  0.18907111  1  0  -0.25364  0  3.199595  0  0  -0.191544  0  3.487787  0  0  -0.205921  0  3.504593  0  0  -0.243593  -0.181427  0  3.475795  0
N  N81  1  0.30156074  0.90403490  0.68907055  1  0  -0.253664  0  3.199583  0  0  -0.191565  0  3.487778  0  0  -0.205941  0  3.504582  0  0  -0.243607  -0.181449  0  3.475786  0
N  N82  1  0.80156220  0.59596434  0.81092969  1  0  -0.253694  0  3.199438  0  0  -0.191578  0  3.487632  0  0  -0.205954  0  3.504432  0  0  -0.24363  -0.18146  0  3.475636  0
N  N83  1  0.69843892  0.40403478  0.31092909  1  0  -0.253678  0  3.199564  0  0  -0.191579  0  3.487755  0  0  -0.205956  0  3.504563  0  0  -0.243603  -0.181461  0  3.475759  0
N  N84  1  0.80155951  0.90403487  0.81092911  1  0  -0.25367  0  3.199588  0  0  -0.191577  0  3.48779  0  0  -0.205952  0  3.504592  0  0  -0.2436  -0.181459  0  3.475796  0
N  N85  1  0.69843895  0.09596525  0.31092852  1  0  -0.253675  0  3.199558  0  0  -0.191579  0  3.487756  0  0  -0.205955  0  3.504558  0  0  -0.243612  -0.181461  0  3.475759  0
N  N86  1  0.19844015  0.40403481  0.18907110  1  0  -0.253625  0  3.19958  0  0  -0.191526  0  3.487768  0  0  -0.205905  0  3.50458  0  0  -0.243589  -0.181409  0  3.475776  0
N  N87  1  0.30155943  0.59596537  0.68907056  1  0  -0.253639  0  3.199543  0  0  -0.19157  0  3.487762  0  0  -0.205947  0  3.504571  0  0  -0.243586  -0.181453  0  3.475773  0
N  N88  1  0.70655708  0.25000003  0.02856851  1  0  -0.424602  0  3.297148  0  0  -0.33497  0  3.594323  0  0  -0.356915  0  3.604275  0  0  -0.369517  -0.320571  0  3.587806  0
N  N89  1  0.79344204  0.75000013  0.52856853  1  0  -0.424652  0  3.297268  0  0  -0.335021  0  3.594456  0  0  -0.356964  0  3.604407  0  0  -0.369544  -0.320622  0  3.58794  0
N  N90  1  0.29344127  0.74999911  0.97143170  1  0  -0.424566  0  3.297129  0  0  -0.334954  0  3.594319  0  0  -0.356899  0  3.60427  0  0  -0.369513  -0.320557  0  3.587805  0
N  N91  1  0.20655631  0.25000002  0.47143111  1  0  -0.424529  0  3.297118  0  0  -0.334898  0  3.594286  0  0  -0.356841  0  3.604237  0  0  -0.369473  -0.320497  0  3.58776  0
Cl  Cl92  1  0.69283759  0.75000016  0.07153277  1  0  -0.625545  0  0.751878  0  0  -0.566973  0  0.975932  0  0  -0.580335  0  0.952906  0  0  -0.381929  -0.557755  0  0.99242  0
Cl  Cl93  1  0.80715897  0.24999999  0.57153225  1  0  -0.625548  0  0.751875  0  0  -0.566974  0  0.975929  0  0  -0.580335  0  0.952902  0  0  -0.381938  -0.557755  0  0.992413  0
Cl  Cl94  1  0.30716076  0.24999999  0.92846744  1  0  -0.625554  0  0.751862  0  0  -0.566979  0  0.975912  0  0  -0.580341  0  0.952884  0  0  -0.381935  -0.557761  0  0.992398  0
Cl  Cl95  1  0.19283805  0.74999915  0.42846626  1  0  -0.625556  0  0.751857  0  0  -0.566987  0  0.975907  0  0  -0.580347  0  0.952882  0  0  -0.381936  -0.557763  0  0.992392  0
