# generated using pymatgen
data_Zn4H21C39N3O16
_symmetry_space_group_name_H-M   'P 1'
_cell_length_a   17.77863326
_cell_length_b   18.34326308
_cell_length_c   18.26619357
_cell_angle_alpha   90.00008313
_cell_angle_beta   116.47489853
_cell_angle_gamma   121.32145608
_symmetry_Int_Tables_number   1
_chemical_formula_structural   Zn4H21C39N3O16
_chemical_formula_sum   'Zn8 H42 C78 N6 O32'
_cell_volume   4340.90302252
_cell_formula_units_Z   2
loop_
 _symmetry_equiv_pos_site_id
 _symmetry_equiv_pos_as_xyz
  1  'x, y, z'
loop_
 _atom_site_type_symbol
 _atom_site_label
 _atom_site_symmetry_multiplicity
 _atom_site_fract_x
 _atom_site_fract_y
 _atom_site_fract_z
 _atom_site_occupancy
 _atom_site_pbe_bader_charge
 _atom_site_pbe_bader_spin_density
 _atom_site_pbe_cm5_charge
 _atom_site_pbe_ddec_charge
 _atom_site_pbe_ddec_spin_density
 _atom_site_pbe_ddec_sum_bond_order
 _atom_site_pbe_magmom
Zn  Zn0  1  0.10367480  0.95733253  0.03191119  1  1.319288  0  0.670991  0.963913  0  2.353467  0
Zn  Zn1  1  0.92804384  0.95371743  0.86700531  1  1.310326  0  0.674247  0.957238  0  2.402044  0
Zn  Zn2  1  0.10104075  0.12976761  0.02266754  1  1.323418  0  0.680748  0.972054  0  2.366278  0
Zn  Zn3  1  0.92171282  0.95395903  0.03884364  1  1.317634  0  0.6834  0.989432  0  2.287813  0
Zn  Zn4  1  0.92888378  0.54159403  0.45348193  1  1.307073  0  0.675549  0.965565  0  2.37946  0
Zn  Zn5  1  0.09057979  0.53328392  0.61563076  1  1.31832  0  0.674904  0.959368  0  2.409815  0
Zn  Zn6  1  0.11654459  0.55049845  0.45294670  1  1.311248  0  0.674869  0.970306  0  2.339568  0
Zn  Zn7  1  0.92729700  0.36705114  0.44598851  1  1.321864  0  0.677535  0.969309  0  2.367488  0
H  H8  1  0.97191114  0.90009098  0.66122312  1  0.037124  0  0.093758  0.030177  0  0.975578  0
H  H9  1  0.68261339  0.81276157  0.58785635  1  0.099496  0  0.115466  0.133231  0  0.987778  0
H  H10  1  0.59882606  0.65729213  0.62848966  1  0.082353  0  0.106779  0.124582  0  1.00351  0
H  H11  1  0.75001078  0.62968172  0.70148479  1  0.104036  0  0.121961  0.109804  0  0.994615  0
H  H12  1  0.86407698  0.66342262  0.59169879  1  0.152924  0  0.121616  0.140878  0  0.974433  0
H  H13  1  0.15625613  0.72990301  0.79585904  1  0.121379  0  0.119506  0.129355  0  0.976466  0
H  H14  1  0.15772653  0.82741991  0.89298517  1  0.120941  0  0.118076  0.125424  0  0.97421  0
H  H15  1  0.40610900  0.32050205  0.28868718  1  0.038188  0  0.088688  0.02246  0  0.98494  0
H  H16  1  0.33392108  0.46009868  0.13411314  1  0.110026  0  0.115978  0.136002  0  0.998369  0
H  H17  1  0.38238705  0.44912076  0.01547579  1  0.107288  0  0.108057  0.127267  0  1.011901  0
H  H18  1  0.45604432  0.34601836  0.05219743  1  0.092306  0  0.120328  0.105616  0  0.996197  0
H  H19  1  0.61980827  0.41684414  0.26737244  1  0.132485  0  0.122175  0.142417  0  0.976056  0
H  H20  1  0.60315507  0.17775097  0.30123368  1  0.119209  0  0.117874  0.126832  0  0.977178  0
H  H21  1  0.41235656  0.08605725  0.19720950  1  0.139044  0  0.115954  0.125134  0  0.981928  0
H  H22  1  0.79663046  0.67818097  0.21987974  1  0.015965  0  0.089382  0.022309  0  0.99812  0
H  H23  1  0.77708035  0.87835190  0.27184040  1  0.147403  0  0.120359  0.145691  0  0.98632  0
H  H24  1  0.95037527  0.03351637  0.29649717  1  0.069816  0  0.103268  0.1167  0  1.023866  0
H  H25  1  0.06726133  0.98701552  0.28329062  1  0.113767  0  0.120591  0.107671  0  0.99238  0
H  H26  1  0.96161598  0.74842909  0.35153848  1  0.12845  0  0.118196  0.133482  0  0.99334  0
H  H27  1  0.11357162  0.68614564  0.26182396  1  0.093283  0  0.114364  0.121997  0  0.982396  0
H  H28  1  0.10698153  0.78388267  0.16687094  1  0.111178  0  0.114744  0.1228  0  0.983886  0
H  H29  1  0.19891865  0.42054708  0.88746659  1  0.031753  0  0.093113  0.029498  0  0.987387  0
H  H30  1  0.15669321  0.45513015  0.07891568  1  0.105757  0  0.118459  0.138069  0  0.982649  0
H  H31  1  0.97505227  0.30308004  0.04464385  1  0.080797  0  0.101701  0.117209  0  1.020326  0
H  H32  1  0.89281301  0.19620507  0.88738449  1  0.089545  0  0.118042  0.104844  0  1.003519  0
H  H33  1  0.02714037  0.38728449  0.77661881  1  0.115426  0  0.117081  0.133331  0  0.991469  0
H  H34  1  0.92240638  0.17199407  0.57832532  1  0.130376  0  0.118787  0.128761  0  0.972781  0
H  H35  1  0.92222919  0.07911874  0.67799380  1  0.155807  0  0.110716  0.129147  0  1.030329  0
H  H36  1  0.47807785  0.78922812  0.89737778  1  0.026039  0  0.088622  0.021572  0  0.994694  0
H  H37  1  0.57759836  0.69734467  0.09362907  1  0.158114  0  0.122453  0.151227  0  0.982685  0
H  H38  1  0.68886959  0.65047409  0.06910715  1  0.075458  0  0.102453  0.115802  0  1.02599  0
H  H39  1  0.67650917  0.67911438  0.91901298  1  0.082052  0  0.119387  0.106978  0  0.994964  0
H  H40  1  0.39167540  0.63753098  0.79470452  1  0.116689  0  0.119857  0.136725  0  0.985856  0
H  H41  1  0.44447503  0.74173872  0.59883984  1  0.107262  0  0.114242  0.12307  0  0.981753  0
H  H42  1  0.63519350  0.83102173  0.70380997  1  0.107298  0  0.112354  0.118888  0  0.996326  0
H  H43  1  0.86324161  0.09873673  0.27738921  1  0.03805  0  0.092471  0.027115  0  0.995942  0
H  H44  1  0.59355180  0.92494363  0.06124997  1  0.143976  0  0.113508  0.140683  0  1.019798  0
H  H45  1  0.62090247  0.96513623  0.92689570  1  0.060844  0  0.10271  0.117618  0  1.011957  0
H  H46  1  0.81826794  0.11480029  0.99849290  1  0.083652  0  0.116193  0.103186  0  1.008781  0
H  H47  1  0.86197389  0.22249199  0.22978656  1  0.118699  0  0.116527  0.131053  0  0.997203  0
H  H48  1  0.18706751  0.40830145  0.32805751  1  0.115385  0  0.117302  0.127617  0  0.974917  0
H  H49  1  0.17461141  0.30618355  0.22763452  1  0.16189  0  0.109636  0.126378  0  1.038098  0
C  C50  1  0.89815130  0.89277814  0.63931254  1  0.974419  0  0.078772  0.238934  0  4.077286  0
C  C51  1  0.82002305  0.81212358  0.64357068  1  0.271217  0  0.061537  0.039031  0  4.004965  0
C  C52  1  0.71884341  0.77978221  0.61839810  1  0.011927  0  -0.095152  -0.153789  0  3.980794  0
C  C53  1  0.67593765  0.69962975  0.63909675  1  0.007901  0  -0.116087  -0.164711  0  4.071914  0
C  C54  1  0.75137839  0.68384390  0.67673339  1  0.282165  0  0.009411  -0.043033  0  3.930619  0
C  C55  1  0.92942597  0.75398877  0.71159095  1  0.32165  0  0.104272  0.144908  0  3.996742  0
C  C56  1  0.92906205  0.70006124  0.65751330  1  -0.091911  0  -0.07098  -0.165177  0  3.927342  0
C  C57  1  0.01103040  0.69201571  0.68747831  1  0.034476  0  -0.00869  -0.015463  0  3.973531  0
C  C58  1  0.09356817  0.73763317  0.77265477  1  -0.005744  0  -0.069437  -0.081286  0  3.943129  0
C  C59  1  0.09424967  0.79170656  0.82654805  1  -0.041614  0  -0.071932  -0.076338  0  3.957682  0
C  C60  1  0.01343320  0.80157795  0.79701809  1  0.006226  0  -0.003322  -0.093792  0  3.928357  0
C  C61  1  0.02097053  0.86340827  0.85756366  1  1.58156  0  0.230887  0.613574  0  4.160333  0
C  C62  1  0.00975239  0.63354784  0.62924365  1  1.563578  0  0.230229  0.603273  0  4.16693  0
C  C63  1  0.37827221  0.36049167  0.25614979  1  0.913863  0  0.071424  0.226152  0  4.091278  0
C  C64  1  0.38900445  0.37673070  0.18326295  1  0.30817  0  0.059641  0.03415  0  4.006914  0
C  C65  1  0.36477271  0.42419119  0.12812738  1  0.000237  0  -0.086742  -0.132374  0  3.936464  0
C  C66  1  0.38936223  0.41792562  0.06629183  1  -0.017167  0  -0.11222  -0.162959  0  4.041266  0
C  C67  1  0.42807463  0.36653800  0.08395185  1  0.336766  0  0.013676  -0.033451  0  3.929523  0
C  C68  1  0.46880599  0.29341786  0.19384145  1  0.334579  0  0.106792  0.15123  0  3.997881  0
C  C69  1  0.57482273  0.34423629  0.25239091  1  -0.044729  0  -0.071358  -0.168693  0  3.928021  0
C  C70  1  0.62348635  0.30310327  0.29136288  1  -0.00259  0  -0.008094  -0.011555  0  3.967615  0
C  C71  1  0.56488495  0.20960899  0.27125644  1  -0.026137  0  -0.071679  -0.085297  0  3.945087  0
C  C72  1  0.45897487  0.15877942  0.21327598  1  -0.025228  0  -0.073309  -0.076222  0  3.957089  0
C  C73  1  0.40885232  0.19911680  0.17358987  1  -0.003437  0  -0.005341  -0.10086  0  3.916815  0
C  C74  1  0.29387875  0.13978472  0.11322949  1  1.599724  0  0.231432  0.612045  0  4.163964  0
C  C75  1  0.73774768  0.35962810  0.35315764  1  1.592666  0  0.230885  0.60355  0  4.163372  0
C  C76  1  0.77661996  0.72130216  0.23761709  1  0.939508  0  0.072298  0.216611  0  4.104811  0
C  C77  1  0.85018391  0.81656055  0.25808968  1  0.266374  0  0.059306  0.029308  0  3.988933  0
C  C78  1  0.84219204  0.88645867  0.27202050  1  0.01266  0  -0.085276  -0.137351  0  3.933646  0
C  C79  1  0.93114769  0.96648368  0.28371768  1  0.014782  0  -0.112714  -0.158706  0  4.048907  0
C  C80  1  0.99211107  0.94482399  0.27645692  1  0.288822  0  0.009701  -0.03126  0  3.935285  0
C  C81  1  0.98606692  0.80837177  0.25579051  1  0.344902  0  0.108429  0.1593  0  3.988991  0
C  C82  1  0.99077217  0.75429270  0.30903050  1  0.024466  0  -0.075955  -0.176791  0  3.951802  0
C  C83  1  0.03443064  0.70907997  0.31010090  1  -0.003654  0  -0.011171  -0.013832  0  3.983912  0
C  C84  1  0.07796169  0.72035487  0.25958995  1  0.012121  0  -0.077715  -0.094315  0  3.967018  0
C  C85  1  0.07428141  0.77467482  0.20709296  1  -0.049348  0  -0.076486  -0.077525  0  3.971466  0
C  C86  1  0.02680195  0.81785554  0.20258976  1  -0.008545  0  -0.009246  -0.104967  0  3.911834  0
C  C87  1  0.01940961  0.86864581  0.13830854  1  1.551633  0  0.22787  0.608404  0  4.171175  0
C  C88  1  0.03348092  0.64923169  0.36569325  1  1.535997  0  0.229621  0.605055  0  4.160756  0
C  C89  1  0.20158562  0.44756226  0.94407968  1  0.973635  0  0.076409  0.217518  0  4.092245  0
C  C90  1  0.11442368  0.38818932  0.95337172  1  0.30344  0  0.062259  0.035234  0  3.992354  0
C  C91  1  0.10148668  0.39713302  0.02208487  1  -0.047025  0  -0.091814  -0.150017  0  3.96494  0
C  C92  1  0.00801720  0.31812625  0.00436990  1  0.004373  0  -0.117819  -0.162493  0  4.071201  0
C  C93  1  0.96508160  0.26179204  0.92532032  1  0.318532  0  0.003206  -0.050023  0  3.944096  0
C  C94  1  0.00643686  0.26901860  0.81204592  1  0.335632  0  0.104618  0.152621  0  4.003585  0
C  C95  1  0.00668724  0.32060389  0.75607333  1  0.005063  0  -0.077602  -0.177962  0  3.954148  0
C  C96  1  0.97928608  0.28671729  0.67287758  1  0.011045  0  -0.012717  -0.022845  0  3.987142  0
C  C97  1  0.94619396  0.19876541  0.64387857  1  -0.06914  0  -0.070743  -0.080205  0  3.931744  0
C  C98  1  0.94561389  0.14691988  0.69953485  1  0.013365  0  -0.071338  -0.074376  0  3.923497  0
C  C99  1  0.97889088  0.18240092  0.78470907  1  -0.00689  0  -0.005819  -0.095952  0  3.922384  0
C  C100  1  0.99062941  0.12838036  0.84465573  1  1.554381  0  0.229095  0.608742  0  4.1749  0
C  C101  1  0.98691440  0.34624244  0.61685838  1  1.55262  0  0.230371  0.606544  0  4.156576  0
C  C102  1  0.49018515  0.76349547  0.95418696  1  0.948081  0  0.074768  0.221735  0  4.095417  0
C  C103  1  0.54911947  0.72684802  0.97070257  1  0.248563  0  0.062441  0.035131  0  3.981403  0
C  C104  1  0.58917387  0.69884077  0.03996944  1  0.006693  0  -0.083784  -0.134625  0  3.928677  0
C  C105  1  0.64806328  0.67588091  0.02786657  1  0.022567  0  -0.115848  -0.16819  0  4.063252  0
C  C106  1  0.64405610  0.69052476  0.95203739  1  0.311882  0  0.007778  -0.035518  0  3.937786  0
C  C107  1  0.55115312  0.73229374  0.83428328  1  0.315341  0  0.109063  0.157563  0  4.001081  0
C  C108  1  0.44499649  0.68176505  0.77523182  1  0.00711  0  -0.074847  -0.174953  0  3.94355  0
C  C109  1  0.40651486  0.68574010  0.69114307  1  0.016412  0  -0.011473  -0.016475  0  3.984838  0
C  C110  1  0.47501141  0.73973626  0.66478414  1  -0.05758  0  -0.079616  -0.097629  0  3.963729  0
C  C111  1  0.58060941  0.78921433  0.72310437  1  0.008425  0  -0.076298  -0.079692  0  3.969045  0
C  C112  1  0.62057830  0.78755190  0.80866743  1  0.013895  0  -0.006304  -0.095834  0  3.910702  0
C  C113  1  0.73582402  0.84675377  0.86723584  1  1.579514  0  0.228458  0.604245  0  4.17205  0
C  C114  1  0.29229066  0.63045012  0.63038387  1  1.568744  0  0.230888  0.607147  0  4.158675  0
C  C115  1  0.78063048  0.04647622  0.22748778  1  0.935292  0  0.076418  0.226035  0  4.084388  0
C  C116  1  0.75367142  0.04329319  0.13951678  1  0.277843  0  0.060128  0.032793  0  3.987533  0
C  C117  1  0.66180898  0.98024929  0.06362836  1  -0.039184  0  -0.093557  -0.149121  0  3.950465  0
C  C118  1  0.67669958  0.00085188  0.99475662  1  0.067646  0  -0.117899  -0.168025  0  4.066884  0
C  C119  1  0.77730258  0.07626538  0.02932456  1  0.318866  0  0.005181  -0.04022  0  3.937245  0
C  C120  1  0.92326850  0.18140173  0.17420422  1  0.334229  0  0.102002  0.146081  0  4.017974  0
C  C121  1  0.93078837  0.23955385  0.23047989  1  0.001545  0  -0.080498  -0.183324  0  3.972287  0
C  C122  1  0.02560991  0.31988775  0.28747708  1  -0.080686  0  -0.013401  -0.020538  0  3.993403  0
C  C123  1  0.11331991  0.34492577  0.28502563  1  0.003978  0  -0.072922  -0.085651  0  3.933135  0
C  C124  1  0.10595549  0.28737176  0.22842623  1  0.025882  0  -0.07241  -0.071224  0  3.927557  0
C  C125  1  0.01218302  0.20405269  0.17436801  1  -0.037744  0  -0.007328  -0.102682  0  3.928827  0
C  C126  1  0.01282892  0.14201046  0.12168239  1  1.577378  0  0.230218  0.60982  0  4.173177  0
C  C127  1  0.02953652  0.37570127  0.35040868  1  1.574769  0  0.230562  0.609278  0  4.159508  0
N  N128  1  0.83846399  0.75180608  0.67959549  1  -1.216408  0  -0.234556  -0.021667  0  3.799368  0
N  N129  1  0.42779786  0.34167539  0.15428325  1  -1.240684  0  -0.237318  -0.022312  0  3.817202  0
N  N130  1  0.94358261  0.85426957  0.26056252  1  -1.223457  0  -0.231563  -0.015674  0  3.793342  0
N  N131  1  0.02928020  0.30380454  0.89434738  1  -1.245067  0  -0.229391  -0.008818  0  3.792174  0
N  N132  1  0.58449653  0.72152349  0.91723489  1  -1.256698  0  -0.233986  -0.020249  0  3.803532  0
N  N133  1  0.82418576  0.10211792  0.11684373  1  -1.265506  0  -0.232263  -0.010734  0  3.802114  0
O  O134  1  0.01404131  0.99829756  0.99264010  1  -1.229041  0  -0.573396  -1.037377  0  2.52387  0
O  O135  1  0.88749674  0.95108059  0.61420293  1  -1.093811  0  -0.285407  -0.380757  0  2.126345  0
O  O136  1  0.98275717  0.90612034  0.82503564  1  -1.175387  0  -0.305176  -0.542932  0  2.390499  0
O  O137  1  0.06758177  0.87015188  0.93703561  1  -1.162565  0  -0.309169  -0.536377  0  2.297901  0
O  O138  1  0.08133533  0.62196499  0.66367862  1  -1.160407  0  -0.310934  -0.540942  0  2.335759  0
O  O139  1  0.93767494  0.60006342  0.55039237  1  -1.169123  0  -0.311044  -0.539825  0  2.320499  0
O  O140  1  0.34132938  0.38667473  0.28349752  1  -1.096811  0  -0.294651  -0.390475  0  2.130517  0
O  O141  1  0.24716233  0.17717452  0.09105598  1  -1.178774  0  -0.301489  -0.534979  0  2.403761  0
O  O142  1  0.25184933  0.05579904  0.08993891  1  -1.17553  0  -0.312788  -0.542775  0  2.323794  0
O  O143  1  0.77961491  0.31865469  0.38152822  1  -1.175691  0  -0.309143  -0.539964  0  2.327477  0
O  O144  1  0.78362236  0.44435923  0.37202186  1  -1.181204  0  -0.311552  -0.540356  0  2.333553  0
O  O145  1  0.69593307  0.68673899  0.23784065  1  -1.081865  0  -0.285105  -0.367178  0  2.090493  0
O  O146  1  0.94365706  0.87477313  0.10551116  1  -1.170505  0  -0.306278  -0.544081  0  2.35855  0
O  O147  1  0.08995971  0.89964951  0.12031147  1  -1.161249  0  -0.313787  -0.543613  0  2.334071  0
O  O148  1  0.08813405  0.62039778  0.37643718  1  -1.165664  0  -0.310778  -0.54059  0  2.316203  0
O  O149  1  0.97693102  0.63192890  0.39727380  1  -1.165789  0  -0.313838  -0.54325  0  2.342455  0
O  O150  1  0.27594921  0.52265102  0.99479787  1  -1.077841  0  -0.276163  -0.357939  0  2.102369  0
O  O151  1  0.07086512  0.16993205  0.91977773  1  -1.168173  0  -0.307076  -0.538361  0  2.342466  0
O  O152  1  0.92058541  0.04410175  0.81395639  1  -1.158729  0  -0.311794  -0.535966  0  2.3251  0
O  O153  1  0.95014172  0.31138888  0.53814255  1  -1.165575  0  -0.309117  -0.538825  0  2.315362  0
O  O154  1  0.03117230  0.42844127  0.65323697  1  -1.175879  0  -0.316082  -0.546316  0  2.340035  0
O  O155  1  0.45606417  0.76915595  0.99798648  1  -1.071914  0  -0.281886  -0.363081  0  2.095259  0
O  O156  1  0.77432835  0.88347660  0.94572793  1  -1.162665  0  -0.301729  -0.534168  0  2.33986  0
O  O157  1  0.78595717  0.85687507  0.83080140  1  -1.173015  0  -0.312543  -0.545529  0  2.37416  0
O  O158  1  0.25926013  0.63019151  0.55231364  1  -1.175449  0  -0.310587  -0.542671  0  2.312476  0
O  O159  1  0.23701040  0.58764410  0.66230748  1  -1.174321  0  -0.313955  -0.541168  0  2.341229  0
O  O160  1  0.71966180  0.99581004  0.24876086  1  -1.077383  0  -0.289131  -0.370054  0  2.075719  0
O  O161  1  0.95660138  0.05849090  0.11217926  1  -1.1705  0  -0.308175  -0.548313  0  2.360006  0
O  O162  1  0.07286989  0.17990141  0.09309384  1  -1.173169  0  -0.305204  -0.532517  0  2.370508  0
O  O163  1  0.10680362  0.45769990  0.38714199  1  -1.172604  0  -0.311438  -0.540732  0  2.306676  0
O  O164  1  0.95384739  0.33518240  0.36232829  1  -1.176681  0  -0.315587  -0.547589  0  2.347468  0
O  O165  1  0.01617633  0.49840048  0.49012937  1  -1.216344  0  -0.574001  -1.036322  0  2.547078  0
