# generated using pymatgen
data_MnH22C30(N2O3)2
_symmetry_space_group_name_H-M   'P 1'
_cell_length_a   10.41245252
_cell_length_b   10.41247244
_cell_length_c   12.65322272
_cell_angle_alpha   108.88564160
_cell_angle_beta   108.88572881
_cell_angle_gamma   92.80288977
_symmetry_Int_Tables_number   1
_chemical_formula_structural   MnH22C30(N2O3)2
_chemical_formula_sum   'Mn2 H44 C60 N8 O12'
_cell_volume   1209.89748158
_cell_formula_units_Z   2
loop_
 _symmetry_equiv_pos_site_id
 _symmetry_equiv_pos_as_xyz
  1  'x, y, z'
loop_
 _atom_site_type_symbol
 _atom_site_label
 _atom_site_symmetry_multiplicity
 _atom_site_fract_x
 _atom_site_fract_y
 _atom_site_fract_z
 _atom_site_occupancy
 _atom_site_hle17_ddec_charge
 _atom_site_hle17_ddec_spin_density
 _atom_site_hle17_ddec_sum_bond_order
 _atom_site_hle17_magmom
 _atom_site_hse06_10hf_ddec_charge
 _atom_site_hse06_10hf_ddec_spin_density
 _atom_site_hse06_10hf_ddec_sum_bond_order
 _atom_site_hse06_10hf_magmom
 _atom_site_hse06_ddec_charge
 _atom_site_hse06_ddec_spin_density
 _atom_site_hse06_ddec_sum_bond_order
 _atom_site_hse06_magmom
 _atom_site_pbe_cm5_charge
 _atom_site_pbe_ddec_charge
 _atom_site_pbe_ddec_spin_density
 _atom_site_pbe_ddec_sum_bond_order
 _atom_site_pbe_magmom
Mn  Mn0  1  0.50852234  0.49147851  0.24999857  1  1.115367  -4.79321  1.810312  -4.668  0.956544  -4.711029  2.298738  -4.518  1.011689  -4.758459  2.230849  -4.586  0.603141  0.919  -4.654662  2.346492  -4.441
Mn  Mn1  1  0.49147610  0.50851646  0.75000210  1  1.115347  -4.793212  1.810304  -4.668  0.956544  -4.711025  2.298733  -4.518  1.011696  -4.758451  2.230842  -4.586  0.602997  0.9188  -4.654634  2.346569  -4.441
H  H2  1  0.58224702  0.82978121  0.07760276  1  0.118405  0.000218  0.977223  0.0  0.126922  0.000105  1.043928  0.0  0.131142  0.000176  1.040975  0.0  0.10991  0.123491  1e-05  1.046717  0.0
H  H3  1  0.17021933  0.41775256  0.42239862  1  0.118401  0.000231  0.97719  0.0  0.126913  0.000105  1.043912  0.0  0.131132  0.000176  1.040958  0.0  0.109906  0.123482  1e-05  1.046702  0.0
H  H4  1  0.41775108  0.17021786  0.92239811  1  0.118406  0.000226  0.977223  0.0  0.126932  0.000105  1.043909  0.0  0.131152  0.000176  1.040953  0.0  0.109922  0.1235  1e-05  1.0467  0.0
H  H5  1  0.82978163  0.58224550  0.57760194  1  0.118362  0.000231  0.977207  0.0  0.126877  0.000105  1.043924  0.0  0.131092  0.000176  1.04097  0.0  0.109882  0.123446  1e-05  1.046713  0.0
H  H6  1  0.33914938  0.90512054  0.35282280  1  0.100923  -6e-06  0.967344  0.0  0.111964  -3e-06  1.027346  0.0  0.114986  5e-06  1.026001  0.0  0.106278  0.109582  -1.5e-05  1.028527  0.0
H  H7  1  0.09487991  0.66084805  0.14717631  1  0.100912  -1.8e-05  0.967333  0.0  0.111959  -3e-06  1.027332  0.0  0.114979  4e-06  1.025991  0.0  0.106298  0.10958  -1.6e-05  1.028515  0.0
H  H8  1  0.66084903  0.09488058  0.64717631  1  0.100897  -2.1e-05  0.967356  0.0  0.11194  -3e-06  1.027358  0.0  0.114956  5e-06  1.026022  0.0  0.106293  0.109566  -1.6e-05  1.028531  0.0
H  H9  1  0.90512206  0.33915001  0.85282373  1  0.100904  -8e-06  0.967399  0.0  0.11195  -3e-06  1.027391  0.0  0.114971  4e-06  1.026047  0.0  0.106282  0.109571  -1.6e-05  1.028571  0.0
H  H10  1  0.16675349  0.05257820  0.38901080  1  0.087722  2.7e-05  0.945048  0.0  0.100679  -5.7e-05  1.001767  0.0  0.103384  -2.8e-05  1.000774  0.0  0.101144  0.098522  -8.4e-05  1.003  0.0
H  H11  1  0.94742368  0.83324675  0.11099124  1  0.087742  4.4e-05  0.945059  0.0  0.100699  -5.8e-05  1.001777  0.0  0.103401  -2.8e-05  1.000785  0.0  0.101163  0.098545  -8.4e-05  1.003008  0.0
H  H12  1  0.83324509  0.94742394  0.61098863  1  0.087715  3e-05  0.945068  0.0  0.10067  -5.8e-05  1.00179  0.0  0.103375  -2.8e-05  1.000797  0.0  0.101145  0.098518  -8.4e-05  1.003027  0.0
H  H13  1  0.05257660  0.16675337  0.88900969  1  0.087735  3.5e-05  0.945059  0.0  0.100691  -5.7e-05  1.00178  0.0  0.103393  -2.8e-05  1.000786  0.0  0.10116  0.09854  -8.4e-05  1.003015  0.0
H  H14  1  0.08638427  0.19837652  0.26654386  1  0.083018  -1.4e-05  0.965984  0.0  0.09526  -1.8e-05  1.026497  0.0  0.09746  -1.2e-05  1.026029  0.0  0.098837  0.093463  -4.3e-05  1.027211  0.0
H  H15  1  0.80162478  0.91361636  0.23345567  1  0.082984  -6e-06  0.966073  0.0  0.095244  -1.8e-05  1.026573  0.0  0.097421  -1.3e-05  1.026128  0.0  0.09882  0.093435  -4.3e-05  1.027301  0.0
H  H16  1  0.91361717  0.80162460  0.73345447  1  0.082933  -3e-06  0.96596  0.0  0.095195  -1.8e-05  1.026469  0.0  0.097375  -1.3e-05  1.026021  0.0  0.098794  0.093388  -4.3e-05  1.027201  0.0
H  H17  1  0.19837450  0.08638375  0.76654578  1  0.083026  -2.3e-05  0.966042  0.0  0.095266  -1.8e-05  1.026555  0.0  0.09746  -1.2e-05  1.026092  0.0  0.09883  0.093461  -4.3e-05  1.027286  0.0
H  H18  1  0.17963981  0.19994827  0.11125846  1  0.100048  0.000109  0.990454  0.0  0.110209  4.4e-05  1.053827  0.0  0.113759  8.7e-05  1.051745  0.0  0.104564  0.107418  4e-06  1.055567  0.0
H  H19  1  0.80004994  0.82035839  0.38874124  1  0.100056  0.000125  0.990465  0.0  0.110212  4.4e-05  1.053846  0.0  0.113763  8.6e-05  1.051765  0.0  0.104563  0.107422  4e-06  1.055588  0.0
H  H20  1  0.82036149  0.80005185  0.88874273  1  0.100044  0.000113  0.990475  0.0  0.110229  4.4e-05  1.053822  0.0  0.11378  8.7e-05  1.051743  0.0  0.104575  0.107442  4e-06  1.05556  0.0
H  H21  1  0.19994916  0.17964070  0.61125990  1  0.100051  0.000122  0.990497  0.0  0.110209  4.4e-05  1.05387  0.0  0.113759  8.6e-05  1.05179  0.0  0.104572  0.107423  4e-06  1.055609  0.0
H  H22  1  0.84225060  0.14874418  0.33196659  1  0.09758  -0.000293  0.958106  0.0  0.109367  -0.000369  1.018018  0.0  0.112195  -0.000279  1.017232  0.0  0.103822  0.107608  -0.000489  1.018334  0.0
H  H23  1  0.85125833  0.15775060  0.16803448  1  0.09757  -0.000282  0.958078  0.0  0.109357  -0.000369  1.017993  0.0  0.112182  -0.00028  1.01721  0.0  0.103821  0.107596  -0.000489  1.018309  0.0
H  H24  1  0.15775102  0.85125798  0.66803364  1  0.097605  -0.000291  0.958076  0.0  0.109389  -0.000369  1.017984  0.0  0.112215  -0.00028  1.017202  0.0  0.103828  0.107616  -0.000489  1.018321  0.0
H  H25  1  0.14874297  0.84224951  0.83196592  1  0.097577  -0.00029  0.958076  0.0  0.109383  -0.000369  1.017967  0.0  0.11221  -0.00028  1.017181  0.0  0.103824  0.107618  -0.000489  1.018294  0.0
H  H26  1  0.75753960  0.08515124  0.47425476  1  0.094865  0.000182  0.934601  0.0  0.108347  4.3e-05  0.991509  0.0  0.110697  5.3e-05  0.989943  0.0  0.107918  0.106886  3e-05  0.992273  0.0
H  H27  1  0.91485105  0.24246069  0.02574680  1  0.094915  0.000174  0.934612  0.0  0.108389  4.3e-05  0.991517  0.0  0.110739  5.3e-05  0.989951  0.0  0.107921  0.106927  3e-05  0.992282  0.0
H  H28  1  0.24245930  0.91484678  0.52574209  1  0.094927  0.000183  0.934584  0.0  0.108375  4.3e-05  0.991526  0.0  0.110726  5.3e-05  0.989959  0.0  0.107917  0.106914  3e-05  0.992292  0.0
H  H29  1  0.08515126  0.75753942  0.97425307  1  0.094903  0.000182  0.934605  0.0  0.108398  4.3e-05  0.991491  0.0  0.110748  5.3e-05  0.989924  0.0  0.107937  0.106937  3e-05  0.992258  0.0
H  H30  1  0.55822114  0.18733006  0.52013908  1  0.112843  -0.000131  0.96777  0.0  0.121047  -0.000115  1.02899  0.0  0.124453  -5.3e-05  1.027592  0.0  0.109602  0.118585  -0.000217  1.030104  0.0
H  H31  1  0.81267426  0.44177754  0.97986124  1  0.112818  -0.000127  0.967758  0.0  0.121028  -0.000115  1.028987  0.0  0.124433  -5.3e-05  1.027591  0.0  0.1096  0.118567  -0.000217  1.030101  0.0
H  H32  1  0.44177404  0.81266382  0.47985650  1  0.112845  -0.000126  0.967811  0.0  0.121079  -0.000115  1.028981  0.0  0.124487  -5.4e-05  1.027584  0.0  0.109607  0.118614  -0.000217  1.0301  0.0
H  H33  1  0.18732821  0.55822360  0.02013894  1  0.112846  -0.00013  0.967804  0.0  0.121078  -0.000115  1.028985  0.0  0.124483  -5.4e-05  1.02759  0.0  0.109618  0.118612  -0.000216  1.030107  0.0
H  H34  1  0.45534964  0.34910506  0.42225442  1  0.093523  0.000185  0.938088  0.0  0.09996  -0.000203  1.004076  -0.001  0.1026  -2.9e-05  1.001762  0.0  0.121666  0.097915  -0.000385  1.005932  -0.001
H  H35  1  0.65089721  0.54465004  0.07774598  1  0.093547  0.000196  0.938099  0.0  0.099974  -0.000203  1.004087  -0.001  0.102618  -3e-05  1.001778  0.0  0.121671  0.097933  -0.000385  1.005935  -0.001
H  H36  1  0.54464624  0.65089296  0.57774480  1  0.093569  0.000186  0.938085  0.0  0.099985  -0.000203  1.004072  -0.001  0.102629  -3.1e-05  1.001761  -0.001  0.121661  0.097942  -0.000386  1.005926  -0.001
H  H37  1  0.34910527  0.45535111  0.92225500  1  0.093554  0.000193  0.938059  0.0  0.09998  -0.000203  1.00405  -0.001  0.102623  -3e-05  1.001737  0.0  0.121664  0.097936  -0.000386  1.005905  -0.001
H  H38  1  0.63109156  0.72576174  0.41709716  1  0.399715  -0.000236  0.918393  0.0  0.367632  -0.001042  0.987848  -0.001  0.379272  -0.000772  0.971103  -0.001  0.282966  0.359586  -0.0013  0.999395  -0.001
H  H39  1  0.27423690  0.36890886  0.08290321  1  0.39971  -0.00024  0.918397  0.0  0.367627  -0.001042  0.987856  -0.001  0.379267  -0.000771  0.971111  -0.001  0.282958  0.359582  -0.0013  0.999402  -0.001
H  H40  1  0.36890990  0.27423940  0.58290355  1  0.39973  -0.000238  0.918397  0.0  0.367637  -0.001042  0.987845  -0.001  0.379275  -0.000772  0.971101  -0.001  0.282962  0.359587  -0.001301  0.999396  -0.001
H  H41  1  0.72576355  0.63109228  0.91709723  1  0.39972  -0.000239  0.918374  0.0  0.367641  -0.001042  0.98783  -0.001  0.379281  -0.000772  0.971084  -0.001  0.282966  0.359591  -0.001301  0.99938  -0.001
H  H42  1  0.75298385  0.63669271  0.43636971  1  0.380679  -6.8e-05  0.929369  -0.001  0.341602  -0.000821  1.023899  -0.001  0.352341  -0.000548  1.008275  -0.001  0.280695  0.334371  -0.001062  1.034423  -0.002
H  H43  1  0.36330650  0.24701703  0.06363100  1  0.380653  -7e-05  0.929409  -0.001  0.341576  -0.000821  1.023935  -0.001  0.352314  -0.000548  1.008313  -0.001  0.280682  0.334346  -0.001062  1.034458  -0.002
H  H44  1  0.24701643  0.36330740  0.56363041  1  0.38068  -6.9e-05  0.929365  -0.001  0.341603  -0.000821  1.023896  -0.001  0.352342  -0.000548  1.008271  -0.001  0.280697  0.334365  -0.001063  1.034429  -0.002
H  H45  1  0.63669395  0.75298411  0.93636945  1  0.380678  -6.5e-05  0.929358  -0.001  0.341599  -0.000821  1.0239  -0.001  0.352338  -0.000549  1.008277  -0.001  0.280683  0.334361  -0.001063  1.034434  -0.002
C  C46  1  0.46868469  0.99101241  0.04299102  1  0.19553  0.000316  3.748503  0.0  0.190149  -0.000583  4.004473  0.0  0.198396  8.7e-05  4.020542  0.0  0.12303  0.184222  -0.002084  3.994655  -0.001
C  C47  1  0.00898716  0.53131518  0.45700930  1  0.195506  0.000237  3.748546  0.0  0.190122  -0.000572  4.004508  0.0  0.19837  7.6e-05  4.020578  0.0  0.123031  0.184158  -0.002083  3.994715  -0.001
C  C48  1  0.53131544  0.00898669  0.95701038  1  0.195583  0.000183  3.748453  0.0  0.190174  -0.00058  4.004449  0.0  0.198422  8.2e-05  4.020517  0.0  0.123016  0.184159  -0.00209  3.994701  -0.001
C  C49  1  0.99101497  0.46868390  0.54299026  1  0.195505  0.0003  3.748612  0.0  0.190113  -0.000575  4.004566  0.0  0.198354  7.4e-05  4.020644  0.0  0.122978  0.184149  -0.002087  3.994769  -0.001
C  C50  1  0.50943293  0.89490046  0.10010349  1  -0.161343  -0.000874  3.673681  -0.001  -0.196212  -0.001411  3.930419  -0.001  -0.201614  -0.00104  3.948346  -0.001  -0.085789  -0.192952  -0.002067  3.920126  -0.002
C  C51  1  0.10509960  0.49056745  0.39989635  1  -0.16131  -0.000846  3.673614  -0.001  -0.196177  -0.001414  3.93029  -0.001  -0.201577  -0.001034  3.948215  -0.001  -0.085774  -0.19291  -0.002067  3.920007  -0.002
C  C52  1  0.49056651  0.10510068  0.89989748  1  -0.161367  -0.000828  3.673654  -0.001  -0.19624  -0.001412  3.930371  -0.001  -0.201639  -0.001035  3.948294  -0.001  -0.085802  -0.192971  -0.002068  3.92011  -0.002
C  C53  1  0.89490134  0.50943060  0.60010263  1  -0.161246  -0.000908  3.673578  -0.001  -0.196119  -0.001412  3.930276  -0.001  -0.201514  -0.001029  3.948202  -0.001  -0.085731  -0.192861  -0.002067  3.919998  -0.002
C  C54  1  0.45850225  0.88515559  0.18570128  1  -0.018561  -0.000116  3.686848  0.0  -0.006033  -0.00069  3.926183  -0.001  -0.005697  7e-06  3.942717  0.0  0.011414  -0.007552  -0.002319  3.916209  -0.002
C  C55  1  0.11484548  0.54149668  0.31429843  1  -0.018612  -0.000173  3.686842  0.0  -0.006031  -0.000697  3.926117  -0.001  -0.005695  1.3e-05  3.94265  0.0  0.0114  -0.007548  -0.002318  3.916142  -0.002
C  C56  1  0.54149753  0.11484760  0.81429953  1  -0.018628  -0.000164  3.686768  0.0  -0.006068  -0.00069  3.926057  -0.001  -0.005733  8e-06  3.942588  0.0  0.011382  -0.007585  -0.002325  3.916086  -0.002
C  C57  1  0.88515345  0.45850137  0.68570160  1  -0.018686  -0.000102  3.686855  0.0  -0.006105  -0.000694  3.926109  -0.001  -0.005769  -3e-06  3.942641  0.0  0.011347  -0.00762  -0.002323  3.916139  -0.002
C  C58  1  0.36013892  0.96838741  0.21170142  1  -0.002418  -0.000864  3.761044  -0.001  0.008466  -0.001182  3.986886  -0.001  0.005811  -0.000879  4.011283  -0.001  -0.001548  0.010386  -0.001799  3.971115  -0.001
C  C59  1  0.03161351  0.63986046  0.28829831  1  -0.002348  -0.000857  3.761005  -0.001  0.008515  -0.001172  3.986835  -0.001  0.005858  -0.000886  4.011236  -0.001  -0.001512  0.010433  -0.001799  3.971062  -0.001
C  C60  1  0.63986153  0.03161372  0.78829902  1  -0.002358  -0.000843  3.760887  -0.001  0.008507  -0.001189  3.986733  -0.001  0.005853  -0.000877  4.011127  -0.001  -0.00155  0.010431  -0.001799  3.970966  -0.001
C  C61  1  0.96838575  0.36013964  0.71170155  1  -0.002365  -0.000891  3.761016  -0.001  0.008493  -0.001174  3.986849  -0.001  0.005836  -0.000885  4.01125  -0.001  -0.001541  0.010415  -0.001799  3.971079  -0.001
C  C62  1  0.30392190  0.96916506  0.29990153  1  -0.092642  0.000805  3.727491  0.001  -0.114722  0.000205  3.978528  0.0  -0.116402  0.000482  3.999477  0.0  -0.084246  -0.113873  -6.6e-05  3.964766  0.0
C  C63  1  0.03083467  0.69607743  0.20009706  1  -0.092638  0.000889  3.727431  0.001  -0.114715  0.000202  3.978468  0.0  -0.116396  0.000492  3.999422  0.0  -0.084262  -0.113869  -6.6e-05  3.96471  0.0
C  C64  1  0.69607736  0.03083503  0.70009754  1  -0.092617  0.000867  3.727495  0.001  -0.114684  0.000212  3.978532  0.0  -0.116361  0.000478  3.999485  0.0  -0.084249  -0.113836  -6.7e-05  3.96477  0.0
C  C65  1  0.96916680  0.30392372  0.79990365  1  -0.092643  0.000883  3.727549  0.001  -0.114714  0.000205  3.978575  0.0  -0.116396  0.000483  3.999527  0.0  -0.084253  -0.113861  -6.7e-05  3.964816  0.0
C  C66  1  0.20820709  0.05153377  0.31996760  1  -0.05731  -0.000746  3.772143  -0.001  -0.072536  -0.001105  4.026127  -0.001  -0.074832  -0.000709  4.04759  -0.001  -0.085911  -0.071584  -0.002055  4.012347  -0.001
C  C67  1  0.94846506  0.79179000  0.18003045  1  -0.057322  -0.000799  3.772076  -0.001  -0.072556  -0.001107  4.026078  -0.001  -0.07485  -0.000713  4.047534  -0.001  -0.085909  -0.071601  -0.002054  4.012292  -0.001
C  C68  1  0.79179234  0.94846736  0.68003179  1  -0.057338  -0.000753  3.772195  -0.001  -0.072576  -0.001108  4.026199  -0.001  -0.074872  -0.000706  4.047658  -0.001  -0.085912  -0.071633  -0.002058  4.012434  -0.001
C  C69  1  0.05153522  0.20821011  0.81996967  1  -0.057298  -0.000805  3.772132  -0.001  -0.07253  -0.001108  4.026121  -0.001  -0.074822  -0.000706  4.047582  -0.001  -0.085908  -0.071585  -0.002056  4.012353  -0.001
C  C70  1  0.16230153  0.13371299  0.25036826  1  -0.051513  0.000684  3.768552  0.0  -0.066008  0.000204  4.018832  0.0  -0.066566  0.000428  4.04011  0.0  -0.088367  -0.065299  0.000152  4.004937  0.0
C  C71  1  0.86628553  0.83769687  0.24963001  1  -0.05144  0.000691  3.768492  0.0  -0.065951  0.000208  4.018759  0.0  -0.066487  0.000428  4.040046  0.0  -0.088343  -0.06523  0.000152  4.004866  0.0
C  C72  1  0.83769704  0.86628915  0.74963037  1  -0.051336  0.000617  3.768284  0.0  -0.065837  0.000205  4.018551  0.0  -0.066377  0.000427  4.039839  0.0  -0.088304  -0.065121  0.00015  4.004672  0.0
C  C73  1  0.13371475  0.16230324  0.75037012  1  -0.051525  0.000829  3.768482  0.001  -0.06602  0.000204  4.01876  0.0  -0.066572  0.000424  4.04004  0.0  -0.088357  -0.065302  0.00015  4.004882  0.0
C  C74  1  0.21447573  0.13492444  0.16339938  1  -0.154717  -0.000511  3.723922  -0.001  -0.175489  -0.000577  3.971661  -0.001  -0.180059  -0.000414  3.992403  0.0  -0.09225  -0.173071  -0.001521  3.958429  -0.001
C  C75  1  0.86507414  0.78552253  0.33660047  1  -0.154698  -0.000567  3.723874  -0.001  -0.17548  -0.000577  3.971629  -0.001  -0.180044  -0.000412  3.992351  0.0  -0.09223  -0.173065  -0.00152  3.958389  -0.001
C  C76  1  0.78552337  0.86507464  0.83660096  1  -0.154819  -0.000484  3.723835  -0.001  -0.17561  -0.000576  3.971579  -0.001  -0.180184  -0.000413  3.992318  0.0  -0.09228  -0.173179  -0.001523  3.958339  -0.001
C  C77  1  0.13492478  0.21447551  0.66339877  1  -0.154678  -0.00063  3.723859  -0.001  -0.175448  -0.000573  3.971594  -0.001  -0.180017  -0.000415  3.992333  0.0  -0.092219  -0.173018  -0.001521  3.958351  -0.001
C  C78  1  0.31716292  0.05544514  0.14371327  1  0.201214  0.000568  3.79479  0.0  0.200867  0.000294  4.035654  0.0  0.206089  0.000427  4.057446  0.0  0.107891  0.197101  0.000291  4.021916  0.0
C  C79  1  0.94455491  0.68283577  0.35628635  1  0.201113  0.000593  3.794927  0.0  0.200775  0.000289  4.035787  0.0  0.205997  0.000433  4.057581  0.0  0.107872  0.197023  0.000291  4.02203  0.0
C  C80  1  0.68283720  0.94455394  0.85628734  1  0.201266  0.00052  3.794753  0.0  0.200915  0.000298  4.035629  0.0  0.206138  0.000424  4.05742  0.0  0.107939  0.197144  0.00029  4.021896  0.0
C  C81  1  0.05544501  0.31716226  0.64371156  1  0.201131  0.000631  3.794853  0.0  0.200785  0.000286  4.03572  0.0  0.206007  0.000435  4.057512  0.0  0.107883  0.197023  0.00029  4.021978  0.0
C  C82  1  0.50876110  0.78999773  0.25259016  1  0.656523  -0.004213  3.892806  -0.004  0.603579  -0.007952  4.191777  -0.007  0.637821  -0.005979  4.183389  -0.006  0.222017  0.58067  -0.00957  4.195754  -0.008
C  C83  1  0.21000178  0.49123697  0.24741054  1  0.656535  -0.004206  3.892754  -0.004  0.603563  -0.007952  4.191734  -0.007  0.637807  -0.005978  4.183347  -0.006  0.221961  0.580656  -0.009569  4.19571  -0.008
C  C84  1  0.49123851  0.21000443  0.74741033  1  0.656594  -0.004211  3.892771  -0.004  0.603674  -0.007953  4.191686  -0.007  0.637917  -0.005983  4.183297  -0.006  0.222054  0.580746  -0.009576  4.195675  -0.008
C  C85  1  0.78999443  0.50876311  0.75258852  1  0.656499  -0.004223  3.892852  -0.004  0.60357  -0.007952  4.191768  -0.007  0.637814  -0.005977  4.183385  -0.006  0.221999  0.580643  -0.009574  4.195756  -0.008
C  C86  1  0.68660395  0.27484561  0.29493091  1  0.173102  -0.003629  3.763528  -0.004  0.167715  -0.006269  4.007627  -0.006  0.173828  -0.005117  4.029351  -0.005  0.118235  0.163739  -0.007531  3.992461  -0.006
C  C87  1  0.72515613  0.31339891  0.20507029  1  0.173122  -0.003522  3.763527  -0.004  0.167762  -0.006269  4.007582  -0.006  0.173875  -0.005118  4.029304  -0.005  0.118215  0.163785  -0.007532  3.992417  -0.006
C  C88  1  0.31339870  0.72515657  0.70507038  1  0.173197  -0.003579  3.763692  -0.004  0.167881  -0.006264  4.007726  -0.006  0.173994  -0.005114  4.029447  -0.005  0.118257  0.163899  -0.007532  3.992556  -0.006
C  C89  1  0.27484550  0.68660326  0.79492994  1  0.173056  -0.003556  3.763551  -0.004  0.167596  -0.00627  4.007739  -0.006  0.173707  -0.005122  4.029465  -0.005  0.118195  0.163617  -0.007537  3.992568  -0.006
C  C90  1  0.75385402  0.18806078  0.35050752  1  -0.153003  0.002424  3.725213  0.002  -0.172693  0.001292  3.980897  0.001  -0.180402  0.001991  4.003429  0.001  -0.086029  -0.167387  0.000755  3.964927  0.001
C  C91  1  0.81193942  0.24614588  0.14949177  1  -0.152913  0.002242  3.725195  0.002  -0.172607  0.001292  3.980863  0.001  -0.180315  0.001987  4.003396  0.001  -0.085996  -0.167301  0.000755  3.964893  0.001
C  C92  1  0.24614830  0.81193934  0.64949394  1  -0.153075  0.002385  3.725282  0.002  -0.172773  0.001286  3.980935  0.001  -0.180482  0.001987  4.003468  0.001  -0.086081  -0.167463  0.000753  3.964989  0.001
C  C93  1  0.18806103  0.75385525  0.85050867  1  -0.152971  0.002325  3.725147  0.002  -0.172657  0.001292  3.980847  0.001  -0.180364  0.001989  4.003378  0.001  -0.086031  -0.167355  0.000755  3.964894  0.001
C  C94  1  0.70817449  0.15468288  0.43193230  1  0.003585  -0.003582  3.722447  -0.003  -0.02022  -0.005025  3.983284  -0.004  -0.016313  -0.004357  4.00136  -0.003  -0.067261  -0.022303  -0.006294  3.97014  -0.005
C  C95  1  0.84531793  0.29182441  0.06806767  1  0.003408  -0.003467  3.722653  -0.003  -0.020383  -0.005024  3.983504  -0.004  -0.016477  -0.004355  4.001581  -0.003  -0.067315  -0.022464  -0.006294  3.970358  -0.005
C  C96  1  0.29182560  0.84531618  0.56806593  1  0.003513  -0.003561  3.722495  -0.003  -0.020272  -0.005021  3.983344  -0.004  -0.016366  -0.004353  4.001421  -0.003  -0.067232  -0.022363  -0.006295  3.97021  -0.005
C  C97  1  0.15468422  0.70817468  0.93193268  1  0.003524  -0.003522  3.722486  -0.003  -0.020283  -0.005025  3.983332  -0.004  -0.016374  -0.004354  4.001407  -0.003  -0.067288  -0.022373  -0.006297  3.970199  -0.005
C  C98  1  0.59865345  0.21099736  0.45809326  1  -0.097487  0.002471  3.688433  0.001  -0.114076  0.001414  3.947921  0.0  -0.119832  0.0023  3.966778  0.001  -0.074856  -0.110287  0.000472  3.935053  0.0
C  C99  1  0.78900617  0.40134541  0.04190894  1  -0.097356  0.002348  3.688469  0.001  -0.113962  0.001414  3.947954  0.0  -0.119719  0.002298  3.966819  0.001  -0.074796  -0.110175  0.000472  3.935086  0.0
C  C100  1  0.40134463  0.78900171  0.54190682  1  -0.097435  0.002416  3.6885  0.001  -0.114061  0.001412  3.94796  0.0  -0.11982  0.002298  3.966821  0.001  -0.074852  -0.110286  0.00047  3.93511  0.0
C  C101  1  0.21099598  0.59865369  0.95809221  1  -0.097459  0.0024  3.688529  0.001  -0.114083  0.001416  3.948021  0.0  -0.119842  0.002298  3.966884  0.001  -0.07486  -0.110308  0.000472  3.935171  0.0
C  C102  1  0.53947198  0.30038663  0.40253926  1  0.158981  -0.004106  3.653629  -0.004  0.127121  -0.006384  3.908737  -0.005  0.134985  -0.005468  3.925  -0.005  0.063311  0.121935  -0.00776  3.897607  -0.006
C  C103  1  0.69961499  0.46052858  0.09746125  1  0.158921  -0.004076  3.653709  -0.004  0.127072  -0.006385  3.908785  -0.005  0.134925  -0.005469  3.925058  -0.005  0.063267  0.121886  -0.007761  3.897656  -0.006
C  C104  1  0.46052595  0.69961143  0.59746209  1  0.158878  -0.004064  3.653753  -0.004  0.127063  -0.006383  3.908817  -0.005  0.13492  -0.005463  3.92509  -0.005  0.063258  0.121866  -0.007762  3.897692  -0.006
C  C105  1  0.30038649  0.53947257  0.90254025  1  0.158923  -0.004077  3.653691  -0.004  0.127086  -0.006387  3.908773  -0.005  0.134944  -0.005468  3.925042  -0.005  0.063272  0.121889  -0.007765  3.897647  -0.006
N  N106  1  0.37446940  0.06838222  0.06380298  1  -0.396586  -0.00079  3.098562  -0.001  -0.350288  -0.00181  3.349732  -0.002  -0.362877  -0.000902  3.363226  -0.001  -0.30734  -0.342861  -0.004561  3.341933  -0.005
N  N107  1  0.93161697  0.62552771  0.43619443  1  -0.39658  -0.000741  3.09866  -0.001  -0.350285  -0.001816  3.349834  -0.002  -0.362874  -0.000899  3.363326  -0.001  -0.307368  -0.342851  -0.004559  3.34204  -0.005
N  N108  1  0.62553004  0.93161892  0.93619799  1  -0.396621  -0.000697  3.098577  -0.001  -0.35031  -0.001812  3.349754  -0.002  -0.362899  -0.000897  3.363247  -0.001  -0.307352  -0.34286  -0.004569  3.341979  -0.005
N  N109  1  0.06838296  0.37447033  0.56380428  1  -0.396576  -0.00079  3.098745  -0.001  -0.35027  -0.001814  3.349899  -0.002  -0.362857  -0.000895  3.363395  -0.001  -0.307338  -0.342833  -0.004564  3.342104  -0.005
N  N110  1  0.58119492  0.33022574  0.32218166  1  -0.36471  -0.028846  3.230999  -0.016  -0.297778  -0.032421  3.499741  -0.015  -0.317406  -0.028796  3.515401  -0.013  -0.319167  -0.283809  -0.035582  3.488716  -0.018
N  N111  1  0.66977574  0.41880595  0.17781812  1  -0.364769  -0.028925  3.231062  -0.016  -0.297801  -0.032422  3.499743  -0.015  -0.317427  -0.028798  3.515401  -0.013  -0.319156  -0.283834  -0.035584  3.488719  -0.018
N  N112  1  0.41880298  0.66977228  0.67781652  1  -0.36475  -0.028908  3.231196  -0.016  -0.297818  -0.032422  3.499839  -0.015  -0.317447  -0.028799  3.515504  -0.013  -0.319165  -0.283825  -0.035598  3.488799  -0.018
N  N113  1  0.33022792  0.58119623  0.82218344  1  -0.364698  -0.028918  3.231035  -0.016  -0.297723  -0.032422  3.499741  -0.015  -0.317351  -0.028795  3.515406  -0.013  -0.319135  -0.283731  -0.035599  3.488699  -0.018
O  O114  1  0.48755669  0.66215371  0.19002932  1  -0.627187  -0.030139  2.014065  -0.017  -0.557844  -0.035302  2.271829  -0.018  -0.58907  -0.032288  2.260781  -0.016  -0.303893  -0.534376  -0.037148  2.277865  -0.02
O  O115  1  0.33784637  0.51243920  0.30997180  1  -0.627215  -0.030146  2.014055  -0.017  -0.557811  -0.035298  2.271776  -0.018  -0.589036  -0.032293  2.260719  -0.016  -0.303815  -0.534342  -0.037144  2.277811  -0.02
O  O116  1  0.51244173  0.33784742  0.80997059  1  -0.627179  -0.030153  2.014131  -0.017  -0.557858  -0.035303  2.271898  -0.018  -0.589088  -0.032292  2.260857  -0.016  -0.303869  -0.534378  -0.037155  2.277941  -0.02
O  O117  1  0.66215189  0.48756090  0.69002859  1  -0.627086  -0.030132  2.014162  -0.017  -0.557748  -0.035301  2.271913  -0.018  -0.588969  -0.032285  2.260857  -0.016  -0.303782  -0.534269  -0.037152  2.277955  -0.02
O  O118  1  0.56808180  0.84528833  0.36517282  1  -0.621801  -0.001704  1.965781  -0.002  -0.565366  -0.003966  2.185772  -0.005  -0.591562  -0.002874  2.177836  -0.003  -0.305552  -0.546557  -0.005093  2.190136  -0.006
O  O119  1  0.15471418  0.43191639  0.13482792  1  -0.621747  -0.001705  1.96564  -0.002  -0.565372  -0.003965  2.185723  -0.005  -0.591554  -0.002873  2.177758  -0.003  -0.305554  -0.546563  -0.005092  2.190088  -0.006
O  O120  1  0.43191798  0.15471487  0.63482878  1  -0.621783  -0.001707  1.965738  -0.002  -0.565372  -0.003967  2.185746  -0.005  -0.591566  -0.002875  2.177811  -0.003  -0.305578  -0.546575  -0.005096  2.190117  -0.006
O  O121  1  0.84528507  0.56808371  0.86517115  1  -0.621752  -0.001694  1.965647  -0.002  -0.565389  -0.003966  2.185724  -0.005  -0.591574  -0.002873  2.177765  -0.003  -0.305602  -0.546589  -0.005094  2.190094  -0.006
O  O122  1  0.65479799  0.63751468  0.42910517  1  -0.816683  -0.030463  1.917918  -0.02  -0.759945  -0.04078  2.141834  -0.027  -0.782482  -0.036266  2.106864  -0.023  -0.572611  -0.743031  -0.045381  2.165375  -0.031
O  O123  1  0.36248077  0.34520005  0.07089457  1  -0.816663  -0.030455  1.917976  -0.02  -0.759914  -0.040779  2.141875  -0.027  -0.782459  -0.036265  2.106916  -0.023  -0.572598  -0.743  -0.04538  2.165416  -0.031
O  O124  1  0.34520230  0.36248544  0.57089655  1  -0.816706  -0.030464  1.917943  -0.02  -0.759952  -0.040783  2.141838  -0.027  -0.782496  -0.03627  2.106881  -0.023  -0.572642  -0.743046  -0.045388  2.165404  -0.031
O  O125  1  0.63751816  0.65479799  0.92910467  1  -0.816693  -0.030463  1.917899  -0.02  -0.759946  -0.040778  2.141816  -0.027  -0.782484  -0.036264  2.106843  -0.023  -0.572627  -0.743045  -0.045384  2.165394  -0.031
