# generated using pymatgen
data_MnP2H30C36(NO2)2
_symmetry_space_group_name_H-M   'P 1'
_cell_length_a   5.44515148
_cell_length_b   13.74227040
_cell_length_c   20.87100000
_cell_angle_alpha   94.63592974
_cell_angle_beta   90.00000000
_cell_angle_gamma   90.00000000
_symmetry_Int_Tables_number   1
_chemical_formula_structural   MnP2H30C36(NO2)2
_chemical_formula_sum   'Mn2 P4 H60 C72 N4 O8'
_cell_volume   1556.64127597
_cell_formula_units_Z   2
loop_
 _symmetry_equiv_pos_site_id
 _symmetry_equiv_pos_as_xyz
  1  'x, y, z'
loop_
 _atom_site_type_symbol
 _atom_site_label
 _atom_site_symmetry_multiplicity
 _atom_site_fract_x
 _atom_site_fract_y
 _atom_site_fract_z
 _atom_site_occupancy
 _atom_site_hle17_ddec_charge
 _atom_site_hle17_ddec_spin_density
 _atom_site_hle17_ddec_sum_bond_order
 _atom_site_hle17_magmom
 _atom_site_hse06_10hf_ddec_charge
 _atom_site_hse06_10hf_ddec_spin_density
 _atom_site_hse06_10hf_ddec_sum_bond_order
 _atom_site_hse06_10hf_magmom
 _atom_site_hse06_ddec_charge
 _atom_site_hse06_ddec_spin_density
 _atom_site_hse06_ddec_sum_bond_order
 _atom_site_hse06_magmom
 _atom_site_pbe_bader_charge
 _atom_site_pbe_bader_spin_density
 _atom_site_pbe_cm5_charge
 _atom_site_pbe_ddec_charge
 _atom_site_pbe_ddec_spin_density
 _atom_site_pbe_ddec_sum_bond_order
 _atom_site_pbe_magmom
Mn  Mn0  1  0.50000078  0.50000179  0.99999878  1  1.24249  -4.778453  1.858309  -4.667  1.10872  -4.667236  2.363978  -4.474  1.140414  -4.739405  2.299261  -4.575  1.597907  -4.404376  0.660176  1.090725  -4.571925  2.409206  -4.353
Mn  Mn1  1  0.00001102  0.00000073  0.50000339  1  1.242461  4.778465  1.858468  4.667  1.108717  4.667226  2.364143  4.474  1.140396  4.7394  2.299436  4.575  1.597918  4.404448  0.660101  1.090671  4.572098  2.409397  4.353
P  P2  1  0.00382175  0.44669132  0.89329895  1  1.186902  -0.012131  4.749529  -0.011  1.0573  -0.018367  5.206554  -0.014  1.097579  -0.014583  5.187268  -0.012  3.132837  -0.01468  0.304655  1.030967  -0.021509  5.215503  -0.015
P  P3  1  0.50381519  0.05330389  0.60670379  1  1.186912  0.012134  4.749799  0.011  1.057271  0.018367  5.206868  0.014  1.097583  0.014582  5.187514  0.012  3.132716  0.014691  0.304618  1.030919  0.021525  5.215847  0.015
P  P4  1  0.99618533  0.55330495  0.10670205  1  1.186901  -0.012141  4.749648  -0.011  1.05725  -0.018367  5.206697  -0.014  1.097523  -0.014582  5.187447  -0.012  3.132867  -0.01468  0.304665  1.030907  -0.02151  5.215658  -0.015
P  P5  1  0.49619740  0.94669749  0.39329843  1  1.187162  0.012131  4.749439  0.011  1.05751  0.018364  5.206513  0.014  1.097771  0.014579  5.187313  0.012  3.132906  0.014687  0.304738  1.031167  0.02152  5.21547  0.015
H  H6  1  0.68229691  0.27772458  0.90130085  1  0.094233  0.000302  0.970361  0.0  0.10224  0.000316  1.036498  0.0  0.104413  0.000338  1.037049  0.0  0.10531  -7e-05  0.1014  0.10077  0.000277  1.036014  0.0
H  H7  1  0.18229980  0.22226844  0.59869938  1  0.094234  -0.000297  0.970309  0.0  0.102196  -0.000316  1.036514  0.0  0.104384  -0.000338  1.037017  0.0  0.105317  7.3e-05  0.101415  0.100737  -0.000275  1.036014  0.0
H  H8  1  0.31772119  0.72226731  0.09870135  1  0.094098  0.0003  0.970409  0.0  0.10212  0.000316  1.036556  0.0  0.104325  0.000338  1.037009  0.0  0.105167  -7e-05  0.101368  0.100655  0.000277  1.036066  0.0
H  H9  1  0.81770912  0.77773002  0.40130222  1  0.094159  -0.000293  0.970414  0.0  0.102152  -0.000316  1.036595  0.0  0.104352  -0.000338  1.037061  0.0  0.1052  7.3e-05  0.101381  0.100694  -0.000275  1.036094  0.0
H  H10  1  0.72913674  0.10188423  0.86435932  1  0.077349  -2.4e-05  0.966569  0.0  0.088203  -6e-05  1.028692  0.0  0.08999  -3.4e-05  1.029464  0.0  0.079648  -0.000135  0.092996  0.087437  -0.0001  1.02753  0.0
H  H11  1  0.22913596  0.39810880  0.63564235  1  0.077304  1.8e-05  0.966527  0.0  0.088156  6e-05  1.028662  0.0  0.089942  3.4e-05  1.029435  0.0  0.079787  0.00014  0.092982  0.087394  0.000103  1.027491  0.0
H  H12  1  0.27088870  0.89810766  0.13564432  1  0.077272  -3e-05  0.966597  0.0  0.088108  -6e-05  1.028744  0.0  0.089891  -3.4e-05  1.029523  0.0  0.079759  -0.000135  0.092973  0.087344  -0.0001  1.02758  0.0
H  H13  1  0.77086928  0.60189113  0.36435453  1  0.077333  2.4e-05  0.966484  0.0  0.088156  6e-05  1.028643  0.0  0.089942  3.4e-05  1.029417  0.0  0.079781  0.00014  0.092993  0.087396  0.000103  1.027471  0.0
H  H14  1  0.10233140  0.04545637  0.80170517  1  0.077068  1.8e-05  0.99242  0.0  0.087408  2e-06  1.056228  0.0  0.088851  2e-06  1.057571  0.0  0.078656  3e-06  0.091741  0.086446  4e-06  1.055097  0.0
H  H15  1  0.60233219  0.45453739  0.69829462  1  0.077048  -1e-05  0.992525  0.0  0.087392  -2e-06  1.056307  0.0  0.088835  -2e-06  1.057648  0.0  0.078663  0.0  0.091758  0.086426  -2e-06  1.055176  0.0
H  H16  1  0.89768669  0.95453845  0.19829479  1  0.077102  6e-06  0.992475  0.0  0.087437  2e-06  1.056265  0.0  0.088881  3e-06  1.057603  0.0  0.078667  3e-06  0.091774  0.086478  4e-06  1.055132  0.0
H  H17  1  0.39766938  0.54546983  0.30170074  1  0.077054  -5e-06  0.992467  0.0  0.08739  -2e-06  1.056272  0.0  0.088833  -2e-06  1.057613  0.0  0.078797  0.0  0.091732  0.086427  -2e-06  1.055137  0.0
H  H18  1  0.42245840  0.16536603  0.77668884  1  0.084315  -2.2e-05  0.982325  0.0  0.092382  -2.7e-05  1.049258  0.0  0.094014  -2.2e-05  1.050903  0.0  0.078138  -4.8e-05  0.093938  0.091132  -2.7e-05  1.048365  0.0
H  H19  1  0.92245735  0.33462991  0.72331585  1  0.08434  1.4e-05  0.982302  0.0  0.092402  2.7e-05  1.049242  0.0  0.094027  2.2e-05  1.050893  0.0  0.078091  5.1e-05  0.093956  0.091141  2.9e-05  1.048362  0.0
H  H20  1  0.57754500  0.83463243  0.22331179  1  0.084354  -2.3e-05  0.982358  0.0  0.092451  -2.7e-05  1.049249  0.0  0.094078  -2.2e-05  1.050903  0.0  0.078191  -4.8e-05  0.093977  0.091201  -2.7e-05  1.048357  0.0
H  H21  1  0.07753871  0.66538169  0.27668549  1  0.084373  2e-05  0.982353  0.0  0.092423  2.7e-05  1.049291  0.0  0.094043  2.2e-05  1.050955  0.0  0.07823  5.1e-05  0.093973  0.091164  2.9e-05  1.048408  0.0
H  H22  1  0.38194346  0.33892127  0.81681144  1  0.092742  7.9e-05  0.949472  0.0  0.104085  3.2e-05  1.011239  0.0  0.106702  6.4e-05  1.010304  0.0  0.070344  -0.000217  0.102922  0.101926  1e-06  1.012291  0.0
H  H23  1  0.88193322  0.16107249  0.68319937  1  0.092733  -8.8e-05  0.949454  0.0  0.104098  -3.2e-05  1.011178  0.0  0.106735  -6.4e-05  1.01022  0.0  0.070029  0.00022  0.102885  0.101925  1e-06  1.012248  0.0
H  H24  1  0.61806545  0.66107574  0.18319008  1  0.092751  8.7e-05  0.949416  0.0  0.104072  3.2e-05  1.01122  0.0  0.106685  6.4e-05  1.010291  0.0  0.070279  -0.000217  0.10293  0.101924  1e-06  1.012259  0.0
H  H25  1  0.11807752  0.83893765  0.31680860  1  0.092716  -8e-05  0.949511  0.0  0.10409  -3.2e-05  1.011239  0.0  0.106705  -6.4e-05  1.010309  0.0  0.070004  0.00022  0.102929  0.101919  1e-06  1.012308  0.0
H  H26  1  0.57674429  0.56514377  0.86583527  1  0.104692  0.000336  0.992294  0.0  0.109  0.0001  1.063245  0.0  0.112574  0.000248  1.061287  0.0  0.138582  -0.00031  0.105254  0.106243  -4.8e-05  1.064792  0.0
H  H27  1  0.07671963  0.93485575  0.63417129  1  0.104655  -0.000329  0.992414  0.0  0.108966  -0.0001  1.063345  0.0  0.112533  -0.000248  1.061399  0.0  0.138343  0.000312  0.105224  0.106223  5e-05  1.064874  0.0
H  H28  1  0.42327381  0.43485031  0.13416753  1  0.104612  0.000338  0.992426  0.0  0.108929  0.0001  1.063356  0.0  0.112496  0.000248  1.061413  0.0  0.1387  -0.000309  0.10523  0.106177  -4.8e-05  1.064893  0.0
H  H29  1  0.92327643  0.06514855  0.36583014  1  0.104601  -0.000335  0.992437  0.0  0.108937  -0.0001  1.06333  0.0  0.112502  -0.000248  1.061387  0.0  0.138542  0.000312  0.105243  0.106195  5e-05  1.064858  0.0
H  H30  1  0.48181212  0.67171140  0.77798348  1  0.080887  -1.8e-05  0.978512  0.0  0.091013  -3.7e-05  1.041613  0.0  0.093036  -2e-05  1.042319  0.0  0.062779  -0.000101  0.094137  0.089677  -5.5e-05  1.041053  0.0
H  H31  1  0.98180372  0.82828812  0.72202548  1  0.080772  1.7e-05  0.978648  0.0  0.090905  3.7e-05  1.041771  0.0  0.092928  2e-05  1.042473  0.0  0.062932  0.000105  0.094092  0.089569  5.7e-05  1.041209  0.0
H  H32  1  0.51819311  0.32828195  0.22202072  1  0.080799  -1.8e-05  0.97868  0.0  0.090954  -3.7e-05  1.041764  0.0  0.092978  -2e-05  1.042465  0.0  0.062891  -0.000101  0.094107  0.089619  -5.5e-05  1.041202  0.0
H  H33  1  0.01820702  0.17170815  0.27797360  1  0.080756  2e-05  0.97866  0.0  0.090862  3.7e-05  1.041809  0.0  0.092885  2e-05  1.042514  0.0  0.062688  0.000105  0.094081  0.089526  5.7e-05  1.041248  0.0
H  H34  1  0.76994920  0.67956039  0.68603043  1  0.077717  -7e-06  0.963557  0.0  0.08977  1.3e-05  1.023674  0.0  0.09207  -2e-05  1.022991  0.0  0.06115  0.000103  0.094887  0.088384  7.1e-05  1.023933  0.0
H  H35  1  0.26996494  0.82043694  0.81397362  1  0.077644  8e-06  0.963641  0.0  0.08974  -1.3e-05  1.023712  0.0  0.092077  2e-05  1.022991  0.0  0.061017  -9.9e-05  0.094861  0.088338  -6.8e-05  1.023995  0.0
H  H36  1  0.23003951  0.32043297  0.31397041  1  0.077767  -8e-06  0.963504  0.0  0.089779  1.3e-05  1.023663  0.0  0.092129  -2e-05  1.022928  0.0  0.061044  0.000103  0.094877  0.088397  7.1e-05  1.02392  0.0
H  H37  1  0.73005499  0.17955276  0.18602272  1  0.077771  5e-06  0.963588  0.0  0.089824  -1.3e-05  1.023708  0.0  0.092131  2e-05  1.023019  0.0  0.061632  -9.9e-05  0.094889  0.088421  -6.9e-05  1.023994  0.0
H  H38  1  0.15693595  0.58242891  0.68300449  1  0.079925  -1.5e-05  0.949152  0.0  0.094519  -2e-06  1.002985  0.0  0.096894  -9e-06  1.002771  0.0  0.032179  -6e-06  0.097139  0.093318  1.1e-05  1.002638  0.0
H  H39  1  0.65694775  0.91756842  0.81699525  1  0.079926  1.7e-05  0.949157  0.0  0.094528  2e-06  1.002981  0.0  0.096904  9e-06  1.002766  0.0  0.032394  1.2e-05  0.097109  0.093311  -7e-06  1.002659  0.0
H  H40  1  0.84306195  0.41756809  0.31699607  1  0.079919  -1.7e-05  0.949125  0.0  0.094516  -2e-06  1.002964  0.0  0.096891  -9e-06  1.00275  0.0  0.032202  -6e-06  0.097113  0.093315  1.1e-05  1.002615  0.0
H  H41  1  0.34307218  0.08242202  0.18300113  1  0.079929  2.1e-05  0.949141  0.0  0.094582  2e-06  1.002917  0.0  0.096962  8e-06  1.002696  0.0  0.031995  1.2e-05  0.097148  0.093361  -7e-06  1.002593  0.0
H  H42  1  0.25922511  0.48187487  0.77265109  1  0.083937  3e-06  0.973651  0.0  0.094041  -4.9e-05  1.040918  0.0  0.096378  -2.4e-05  1.040134  0.0  0.058905  -0.000174  0.100075  0.092259  -7.3e-05  1.041694  0.0
H  H43  1  0.75922222  0.01812034  0.72734734  1  0.083881  -4e-06  0.973782  0.0  0.093988  4.9e-05  1.041036  0.0  0.096325  2.4e-05  1.040252  0.0  0.058967  0.000177  0.100022  0.092196  7.4e-05  1.041839  0.0
H  H44  1  0.74078747  0.51812505  0.22735011  1  0.083943  1e-05  0.973716  0.0  0.094037  -4.9e-05  1.04097  0.0  0.096379  -2.4e-05  1.040173  0.0  0.058944  -0.000174  0.100056  0.092243  -7.3e-05  1.041783  0.0
H  H45  1  0.24078302  0.98187593  0.27265174  1  0.083937  -7e-06  0.973754  0.0  0.094041  4.9e-05  1.041003  0.0  0.096381  2.4e-05  1.040212  0.0  0.058939  0.000177  0.100072  0.092248  7.4e-05  1.041808  0.0
H  H46  1  0.85497162  0.67969910  0.01836305  1  0.079911  -0.000137  0.972435  0.0  0.085118  -0.000626  1.042282  0.0  0.088178  -0.000466  1.039372  0.0  0.10117  -0.001154  0.119401  0.082405  -0.000724  1.04511  0.0
H  H47  1  0.35502961  0.82030699  0.48163716  1  0.079795  0.000117  0.972447  0.0  0.08508  0.000625  1.042249  0.0  0.08814  0.000466  1.039329  0.0  0.10629  0.001156  0.119315  0.08236  0.000726  1.045081  0.0
H  H48  1  0.14498954  0.32031834  0.98163429  1  0.07986  -0.000125  0.972396  0.0  0.085127  -0.000625  1.042218  0.0  0.088192  -0.000466  1.039291  0.0  0.105441  -0.001154  0.119339  0.08241  -0.000724  1.045051  0.0
H  H49  1  0.64498481  0.17969658  0.51836471  1  0.079821  0.000149  0.972557  0.0  0.085134  0.000625  1.042311  0.0  0.088194  0.000465  1.039395  0.0  0.105701  0.001156  0.119328  0.082416  0.000725  1.045141  0.0
H  H50  1  0.81783216  0.85837943  0.03197290  1  0.098167  -0.000207  0.969561  0.0  0.107878  -0.000235  1.032752  0.0  0.11008  -0.000175  1.033775  0.0  0.082409  -0.000648  0.102507  0.106475  -0.000313  1.032087  0.0
H  H51  1  0.31790300  0.64162520  0.46802675  1  0.098197  0.000214  0.969584  0.0  0.107862  0.000236  1.032833  0.0  0.110061  0.000175  1.033849  0.0  0.081735  0.000653  0.102584  0.106463  0.000316  1.032157  0.0
H  H52  1  0.18209594  0.14163510  0.96801997  1  0.098237  -0.000212  0.969498  0.0  0.107884  -0.000235  1.032775  0.0  0.11008  -0.000174  1.033797  0.0  0.08202  -0.000649  0.102595  0.1065  -0.000313  1.032084  0.0
H  H53  1  0.68212060  0.35837910  0.53197372  1  0.098222  0.000221  0.969477  0.0  0.107865  0.000236  1.032755  0.0  0.110064  0.000175  1.033771  0.0  0.082035  0.000652  0.102584  0.106472  0.000316  1.032077  0.0
H  H54  1  0.11650732  0.82757849  0.93391910  1  0.097353  -0.000224  0.953863  0.0  0.108923  -0.000251  1.012137  0.0  0.112091  -0.000188  1.011334  0.0  0.058867  -0.000664  0.103424  0.10674  -0.00032  1.013017  0.0
H  H55  1  0.61657605  0.67242030  0.56608119  1  0.097471  0.000224  0.953909  0.0  0.108871  0.000251  1.012348  0.0  0.112038  0.000188  1.011544  0.0  0.058976  0.00067  0.103457  0.106686  0.000323  1.013242  0.0
H  H56  1  0.88342446  0.17241267  0.06607492  1  0.09743  -0.000214  0.953998  0.0  0.108895  -0.000251  1.012375  0.0  0.112063  -0.000189  1.011572  0.0  0.059007  -0.000665  0.103487  0.106715  -0.000319  1.013258  0.0
H  H57  1  0.38344388  0.32757743  0.43391940  1  0.097388  0.000225  0.953865  0.0  0.108855  0.000251  1.012247  0.0  0.112022  0.000188  1.011442  0.0  0.058859  0.00067  0.103466  0.10667  0.000323  1.013141  0.0
H  H58  1  0.17894084  0.64706350  0.92933384  1  0.088405  0.000168  0.949736  0.0  0.094628  -0.000245  1.014452  0.0  0.097801  -0.000104  1.011586  0.0  0.138103  -0.001092  0.121068  0.091895  -0.000334  1.017206  0.0
H  H59  1  0.67899672  0.85293675  0.57066557  1  0.088576  -0.000176  0.94957  0.0  0.094716  0.000245  1.014341  0.0  0.097889  0.000104  1.011479  0.0  0.138305  0.001097  0.121028  0.091975  0.000337  1.017102  0.0
H  H60  1  0.82102950  0.35292985  0.07066077  1  0.088534  0.000164  0.949545  0.0  0.094699  -0.000245  1.014314  0.0  0.097875  -0.000104  1.011445  0.0  0.137831  -0.001093  0.121032  0.091966  -0.000334  1.01707  0.0
H  H61  1  0.32102688  0.14706317  0.42934137  1  0.088464  -0.000175  0.949645  0.0  0.094667  0.000245  1.014366  0.0  0.09784  0.000104  1.0115  0.0  0.138222  0.001096  0.12102  0.091923  0.000337  1.017132  0.0
H  H62  1  0.24959269  0.98837720  0.96562961  1  0.090197  4.4e-05  0.945924  0.0  0.103527  -7.9e-05  1.004736  0.0  0.107115  -2.4e-05  1.001652  0.0  0.041775  -0.000544  0.101317  0.100369  -0.000204  1.008314  0.0
H  H63  1  0.74967428  0.51162962  0.53437303  1  0.090198  -3.4e-05  0.945918  0.0  0.103462  7.9e-05  1.004789  0.0  0.107039  2.4e-05  1.001718  0.0  0.042083  0.00055  0.101334  0.100317  0.000207  1.008355  0.0
H  H64  1  0.75030787  0.01162637  0.03436460  1  0.090242  4.5e-05  0.94584  0.0  0.103473  -7.9e-05  1.004771  0.0  0.10705  -2.4e-05  1.001703  0.0  0.042418  -0.000544  0.101372  0.100384  -0.000204  1.00827  0.0
H  H65  1  0.25035300  0.48837177  0.46562488  1  0.090131  -4.7e-05  0.94602  0.0  0.103445  7.9e-05  1.004834  0.0  0.107024  2.4e-05  1.001761  0.0  0.041934  0.00055  0.101327  0.100279  0.000207  1.008424  0.0
C  C66  1  0.02649146  0.32006282  0.86087803  1  -0.224881  -0.001872  3.778574  -0.002  -0.184048  -0.002475  4.013405  -0.002  -0.192441  -0.001915  4.035758  -0.002  -0.611361  -0.00522  -0.029655  -0.178992  -0.003034  3.998726  -0.003
C  C67  1  0.52649224  0.17993021  0.63912603  1  -0.225112  0.001893  3.778766  0.002  -0.184212  0.002475  4.013559  0.002  -0.192622  0.001913  4.035936  0.002  -0.611431  0.005225  -0.02967  -0.179155  0.003037  3.998869  0.003
C  C68  1  0.97351378  0.67993053  0.13912233  1  -0.225038  -0.001887  3.77867  -0.002  -0.184126  -0.002475  4.013434  -0.002  -0.192529  -0.001915  4.035804  -0.002  -0.611484  -0.00522  -0.029579  -0.179068  -0.003034  3.99875  -0.003
C  C69  1  0.47352402  0.82007410  0.36087875  1  -0.225051  0.001908  3.778726  0.002  -0.184105  0.002474  4.013457  0.002  -0.192509  0.001914  4.035833  0.002  -0.611491  0.005226  -0.029563  -0.179048  0.003037  3.99877  0.003
C  C70  1  0.84399489  0.25251745  0.87403202  1  -0.05382  -7.8e-05  3.754625  0.0  -0.073311  -0.000398  3.995522  0.0  -0.074072  -0.000231  4.018728  0.0  -0.015783  -0.000904  -0.085075  -0.072233  -0.000576  3.979056  -0.001
C  C71  1  0.34400329  0.24747777  0.62597119  1  -0.053696  3.8e-05  3.754417  0.0  -0.073183  0.000399  3.995327  0.0  -0.073941  0.000231  4.018553  0.0  -0.015474  0.000909  -0.085035  -0.072099  0.00058  3.978833  0.001
C  C72  1  0.15601035  0.74747810  0.12596989  1  -0.053639  -6.3e-05  3.754559  0.0  -0.073175  -0.000399  3.99545  0.0  -0.073926  -0.00023  4.018682  0.0  -0.015532  -0.000904  -0.085008  -0.072096  -0.000576  3.978979  -0.001
C  C73  1  0.65600746  0.75252434  0.37403155  1  -0.053648  2.8e-05  3.754375  0.0  -0.07318  0.000399  3.995257  0.0  -0.073934  0.000231  4.018487  0.0  -0.015629  0.000909  -0.08498  -0.072097  0.00058  3.978764  0.001
C  C74  1  0.87144132  0.15387765  0.85328842  1  -0.092388  7.1e-05  3.794081  0.0  -0.100633  -3.7e-05  4.038728  0.0  -0.104653  1e-06  4.062245  0.0  -0.157143  -0.000103  -0.098683  -0.097223  -9.6e-05  4.020948  0.0
C  C75  1  0.37144972  0.34611976  0.64671443  1  -0.092415  -3.5e-05  3.794064  0.0  -0.100655  3.6e-05  4.038722  0.0  -0.104679  -1e-06  4.062247  0.0  -0.157207  0.000108  -0.098745  -0.09724  9.9e-05  4.020929  0.0
C  C76  1  0.12856759  0.84611936  0.14671405  1  -0.092219  7.1e-05  3.793934  0.0  -0.100435  -3.6e-05  4.038573  0.0  -0.104459  0.0  4.062099  0.0  -0.157316  -0.000103  -0.098683  -0.097025  -9.6e-05  4.020792  0.0
C  C77  1  0.62855368  0.65388235  0.35328496  1  -0.09238  -4e-05  3.793865  0.0  -0.100577  3.6e-05  4.038507  0.0  -0.104601  -1e-06  4.062033  0.0  -0.157082  0.000108  -0.098774  -0.097162  9.9e-05  4.020713  0.0
C  C78  1  0.07926869  0.12231379  0.81816034  1  -0.080632  -0.00019  3.777706  0.0  -0.091852  -0.000378  4.019101  0.0  -0.093196  -0.000238  4.041363  0.0  -0.065746  -0.000718  -0.096568  -0.090291  -0.000546  4.002847  0.0
C  C79  1  0.57927130  0.37768508  0.68184067  1  -0.080543  0.000149  3.777921  0.0  -0.091759  0.000379  4.019313  0.0  -0.0931  0.000238  4.041569  0.0  -0.065805  0.000725  -0.096548  -0.090205  0.000551  4.00308  0.0
C  C80  1  0.92074206  0.87768614  0.18183941  1  -0.08074  -0.000158  3.777709  0.0  -0.091958  -0.000379  4.019125  0.0  -0.093297  -0.000238  4.041381  0.0  -0.065786  -0.000719  -0.09662  -0.090399  -0.000546  4.002875  0.0
C  C81  1  0.42073393  0.62232069  0.31815748  1  -0.080681  0.000128  3.777718  0.0  -0.09191  0.000379  4.019144  0.0  -0.093252  0.000237  4.041402  0.0  -0.065803  0.000725  -0.096575  -0.090355  0.000551  4.002911  0.0
C  C82  1  0.26030681  0.18958685  0.80408198  1  -0.069027  8e-06  3.748208  0.0  -0.078597  -0.000118  3.992185  0.0  -0.081816  -5e-05  4.015188  0.0  0.021743  -0.000244  -0.092146  -0.076334  -0.000208  3.976299  0.0
C  C83  1  0.76030575  0.31041202  0.69592095  1  -0.069097  3e-05  3.748134  0.0  -0.078671  0.000117  3.992147  0.0  -0.081889  5e-05  4.015155  0.0  0.021444  0.000249  -0.092213  -0.076414  0.000211  3.976293  0.0
C  C84  1  0.73970210  0.81041381  0.19591781  1  -0.069137  1.5e-05  3.748226  0.0  -0.07873  -0.000117  3.992219  0.0  -0.081951  -5e-05  4.015223  0.0  0.021794  -0.000243  -0.092207  -0.076467  -0.000207  3.976336  0.0
C  C85  1  0.23969765  0.68959885  0.30407987  1  -0.069058  2.9e-05  3.747885  0.0  -0.078606  0.000117  3.991862  0.0  -0.081824  5.1e-05  4.014866  0.0  0.021534  0.000249  -0.092227  -0.076349  0.000211  3.976007  0.0
C  C86  1  0.23548473  0.28769223  0.82589580  1  -0.04737  -0.00031  3.742395  0.0  -0.068396  -0.000696  3.984529  -0.001  -0.06819  -0.000457  4.004872  0.0  -0.076789  -0.001329  -0.081091  -0.068321  -0.00094  3.971135  -0.001
C  C87  1  0.73548184  0.21230663  0.67411049  1  -0.047314  0.000314  3.742334  0.0  -0.068357  0.000697  3.984413  0.001  -0.068172  0.000456  4.004764  0.0  -0.076286  0.001334  -0.081029  -0.068278  0.000944  3.971036  0.001
C  C88  1  0.76452419  0.71230842  0.17410400  1  -0.047294  -0.00033  3.742246  0.0  -0.068324  -0.000697  3.984408  -0.001  -0.068117  -0.000456  4.004762  0.0  -0.076668  -0.001329  -0.081112  -0.068254  -0.00094  3.971001  -0.001
C  C89  1  0.26452708  0.78770278  0.32589360  1  -0.047368  0.000289  3.742268  0.0  -0.06845  0.000696  3.984388  0.001  -0.068247  0.000456  4.004743  0.0  -0.076479  0.001334  -0.081068  -0.068374  0.000943  3.971008  0.001
C  C90  1  0.92642051  0.51816083  0.82607320  1  -0.208076  -0.001624  3.736732  -0.002  -0.168468  -0.002475  3.973945  -0.002  -0.176521  -0.0018  3.996183  -0.002  -0.549273  -0.005512  -0.028008  -0.163803  -0.00323  3.959635  -0.003
C  C91  1  0.42642156  0.98183431  0.67392786  1  -0.208184  0.001637  3.736737  0.002  -0.168623  0.002474  3.974016  0.002  -0.176691  0.0018  3.996271  0.002  -0.549381  0.005518  -0.028044  -0.163952  0.003234  3.959681  0.003
C  C92  1  0.07358473  0.48183472  0.17392680  1  -0.208251  -0.00157  3.736986  -0.002  -0.168645  -0.002475  3.974194  -0.002  -0.176707  -0.001799  3.99645  -0.002  -0.549585  -0.005511  -0.028101  -0.163977  -0.00323  3.959872  -0.003
C  C93  1  0.57358551  0.01816707  0.32607294  1  -0.208218  0.001583  3.736856  0.002  -0.168615  0.002476  3.97406  0.002  -0.176673  0.001799  3.996313  0.002  -0.549711  0.005518  -0.028052  -0.163945  0.003234  3.959725  0.003
C  C94  1  0.70626685  0.57121138  0.82663587  1  -0.051138  -0.000319  3.733799  0.0  -0.071559  -0.000813  3.973966  -0.001  -0.071815  -0.000496  3.995072  -0.001  -0.062343  -0.00176  -0.082439  -0.071088  -0.001178  3.959819  -0.001
C  C95  1  0.20625322  0.92878522  0.67336957  1  -0.051131  0.000293  3.733899  0.0  -0.07148  0.000812  3.974023  0.001  -0.071732  0.000497  3.995126  0.001  -0.061748  0.001767  -0.082379  -0.071002  0.001182  3.959841  0.001
C  C96  1  0.29374573  0.42878270  0.17336788  1  -0.051005  -0.000371  3.734069  0.0  -0.071384  -0.000812  3.974181  -0.001  -0.071635  -0.000497  3.995281  -0.001  -0.061967  -0.00176  -0.082358  -0.070913  -0.001178  3.960034  -0.001
C  C97  1  0.79375386  0.07121836  0.32663038  1  -0.051063  0.000362  3.734156  0.0  -0.071432  0.000812  3.97423  0.001  -0.071683  0.000497  3.995332  0.001  -0.061871  0.001766  -0.082407  -0.070955  0.001182  3.960053  0.001
C  C98  1  0.65236018  0.63010542  0.77688857  1  -0.087412  0.00016  3.78428  0.0  -0.096875  4.4e-05  4.028289  0.0  -0.100803  9.6e-05  4.051439  0.0  -0.063062  -0.0  -0.098751  -0.093964  -5e-06  4.011825  0.0
C  C99  1  0.15235022  0.86989263  0.72311792  1  -0.087197  -0.000159  3.784402  0.0  -0.096716  -4.4e-05  4.028451  0.0  -0.100645  -9.6e-05  4.051619  0.0  -0.063496  6e-06  -0.098679  -0.093803  9e-06  4.011982  0.0
C  C100  1  0.34765057  0.36988939  0.22311523  1  -0.087229  0.000215  3.784512  0.0  -0.096749  4.4e-05  4.028514  0.0  -0.100679  9.7e-05  4.051682  0.0  -0.063513  -0.0  -0.098647  -0.093839  -5e-06  4.012048  0.0
C  C101  1  0.84765686  0.13010291  0.27688065  1  -0.087147  -0.000228  3.784467  0.0  -0.096639  -4.4e-05  4.028504  0.0  -0.100567  -9.6e-05  4.051659  0.0  -0.063242  6e-06  -0.098636  -0.093728  9e-06  4.012036  0.0
C  C102  1  0.81373677  0.63436027  0.72517451  1  -0.080111  -0.000408  3.798901  0.0  -0.091073  -0.000715  4.042091  -0.001  -0.092219  -0.000521  4.064181  0.0  -0.074776  -0.001236  -0.095865  -0.089577  -0.00097  4.025691  -0.001
C  C103  1  0.31374150  0.86563778  0.77482958  1  -0.080038  0.00041  3.798784  0.0  -0.091024  0.000715  4.041995  0.001  -0.092202  0.000522  4.064071  0.0  -0.074595  0.001244  -0.095864  -0.089541  0.000975  4.025643  0.001
C  C104  1  0.18626295  0.36563527  0.27482789  1  -0.080153  -0.000466  3.798833  0.0  -0.091069  -0.000714  4.042018  -0.001  -0.09226  -0.000522  4.064093  0.0  -0.07459  -0.001236  -0.095871  -0.089574  -0.00097  4.025618  -0.001
C  C105  1  0.68627108  0.13435411  0.22516639  1  -0.08015  0.00048  3.798825  0.0  -0.091107  0.000715  4.04202  0.001  -0.092259  0.000522  4.064107  0.0  -0.075107  0.001244  -0.095885  -0.089624  0.000975  4.02567  0.001
C  C106  1  0.03095782  0.57980723  0.72349934  1  -0.086309  0.000171  3.789843  0.0  -0.095947  9.4e-05  4.035145  0.0  -0.099853  0.000138  4.058132  0.0  -0.022252  4.3e-05  -0.095419  -0.092931  5.3e-05  4.018283  0.0
C  C107  1  0.53096044  0.92018864  0.77650223  1  -0.086313  -0.000171  3.789666  0.0  -0.095957  -9.4e-05  4.034982  0.0  -0.099865  -0.000138  4.05798  0.0  -0.022704  -3.8e-05  -0.095373  -0.092949  -5e-05  4.018169  0.0
C  C108  1  0.96904926  0.42018758  0.27650110  1  -0.086371  0.000239  3.78968  0.0  -0.096011  9.4e-05  4.034957  0.0  -0.099921  0.000139  4.057961  0.0  -0.022198  4.3e-05  -0.095403  -0.092991  5.4e-05  4.01809  0.0
C  C109  1  0.46905582  0.07980471  0.22349382  1  -0.086407  -0.000239  3.789701  0.0  -0.096108  -9.4e-05  4.035006  0.0  -0.100018  -0.000138  4.057998  0.0  -0.022299  -3.8e-05  -0.095457  -0.093092  -5e-05  4.018185  0.0
C  C110  1  0.08778268  0.52280772  0.77387021  1  -0.051372  -0.000421  3.757272  0.0  -0.072073  -0.000855  4.0003  -0.001  -0.072025  -0.000635  4.02219  -0.001  -0.080569  -0.00146  -0.083788  -0.071902  -0.001121  3.985639  -0.001
C  C111  1  0.58778346  0.97718815  0.72612897  1  -0.051308  0.000416  3.7572  0.0  -0.071992  0.000855  4.000248  0.001  -0.071949  0.000636  4.022155  0.001  -0.080562  0.001466  -0.083765  -0.071824  0.001125  3.985584  0.001
C  C112  1  0.91222256  0.47718928  0.22612891  1  -0.051325  -0.000493  3.75713  0.0  -0.071999  -0.000855  4.000147  -0.001  -0.071952  -0.000636  4.022044  -0.001  -0.080658  -0.001461  -0.083776  -0.071827  -0.001121  3.98547  -0.001
C  C113  1  0.41222728  0.02281032  0.27387023  1  -0.051337  0.000479  3.75711  0.0  -0.072017  0.000855  4.000136  0.001  -0.071975  0.000636  4.022044  0.001  -0.080501  0.001466  -0.0838  -0.071847  0.001125  3.985467  0.001
C  C114  1  0.69185036  0.71528346  0.00123803  1  0.130332  -0.00515  3.704107  -0.005  0.09952  -0.00841  3.962522  -0.006  0.107363  -0.006967  3.976153  -0.006  0.490245  -0.011656  0.050747  0.093615  -0.009092  3.955981  -0.006
C  C115  1  0.19191385  0.78472409  0.49876082  1  0.130747  0.005282  3.703557  0.005  0.09988  0.008404  3.961973  0.006  0.107728  0.006965  3.975601  0.006  0.484866  0.011661  0.050974  0.093977  0.009092  3.955456  0.006
C  C116  1  0.30810346  0.28472888  0.99875760  1  0.130709  -0.005208  3.703539  -0.005  0.09989  -0.008407  3.961909  -0.006  0.107743  -0.006965  3.97552  -0.006  0.485524  -0.011655  0.050982  0.093991  -0.009088  3.955378  -0.006
C  C117  1  0.80810608  0.21527875  0.50124149  1  0.130493  0.005165  3.703794  0.005  0.099636  0.008407  3.962204  0.006  0.107475  0.006967  3.975832  0.006  0.485632  0.011663  0.050873  0.093734  0.009096  3.95569  0.006
C  C118  1  0.67077656  0.81609302  0.00772692  1  -0.16558  0.002278  3.695904  0.002  -0.180868  -0.000259  3.938726  0.0  -0.188615  0.001904  3.960113  0.002  -0.078775  -0.005929  -0.085828  -0.176829  -0.004365  3.925539  -0.003
C  C119  1  0.17084190  0.68391015  0.49227169  1  -0.165734  -0.002401  3.695801  -0.002  -0.180993  0.000262  3.938744  0.0  -0.188726  -0.001906  3.960124  -0.002  -0.077966  0.005923  -0.085947  -0.176972  0.004362  3.925555  0.003
C  C120  1  0.32915521  0.18391712  0.99226619  1  -0.165881  0.002344  3.695487  0.002  -0.181135  -0.000261  3.93844  0.0  -0.188868  0.001907  3.959816  0.002  -0.078065  -0.005926  -0.08595  -0.177111  -0.004366  3.925226  -0.003
C  C121  1  0.82918171  0.31609343  0.50772922  1  -0.165636  -0.00236  3.695638  -0.002  -0.180913  0.00026  3.938548  0.0  -0.188643  -0.001905  3.959923  -0.002  -0.078097  0.005923  -0.0859  -0.176901  0.004362  3.925362  0.003
C  C122  1  0.46121031  0.86087481  0.98340415  1  0.126679  -0.004002  3.829301  -0.003  0.139533  -0.009487  4.063515  -0.007  0.145051  -0.005821  4.084641  -0.005  -0.052423  -0.018443  -0.001042  0.13612  -0.014148  4.050411  -0.01
C  C123  1  0.96129006  0.63912617  0.51659435  1  0.126529  0.004079  3.829908  0.004  0.139407  0.009478  4.064035  0.007  0.14491  0.00582  4.085185  0.005  -0.052255  0.01843  -0.001096  0.13601  0.014135  4.05091  0.01
C  C124  1  0.53871229  0.13912731  0.01658998  1  0.12667  -0.004044  3.829691  -0.003  0.139506  -0.009483  4.063851  -0.007  0.145015  -0.005822  4.084991  -0.005  -0.052492  -0.018438  -0.001093  0.13611  -0.014143  4.050733  -0.01
C  C125  1  0.03873538  0.36087375  0.48340589  1  0.12639  0.004064  3.829923  0.004  0.139359  0.009481  4.063946  0.007  0.144862  0.00582  4.085095  0.005  -0.052491  0.018432  -0.001169  0.135965  0.014138  4.050815  0.01
C  C126  1  0.28261105  0.79774855  0.95404836  1  -0.175658  0.002402  3.72003  0.002  -0.192229  -0.00022  3.969535  0.001  -0.199983  0.001896  3.988904  0.002  0.008706  -0.005088  -0.087058  -0.188373  -0.004025  3.958492  -0.002
C  C127  1  0.78268162  0.70225024  0.54595194  1  -0.175573  -0.002495  3.719834  -0.002  -0.192009  0.000226  3.969302  -0.001  -0.199758  -0.001897  3.988674  -0.002  0.008386  0.005095  -0.087114  -0.188186  0.004032  3.958294  0.002
C  C128  1  0.71731889  0.20224919  0.04594649  1  -0.17571  0.002414  3.720234  0.002  -0.19218  -0.000223  3.969709  0.001  -0.199933  0.001898  3.98908  0.002  0.008594  -0.005091  -0.087086  -0.18834  -0.004028  3.958667  -0.002
C  C129  1  0.21734382  0.29774968  0.45404974  1  -0.175487  -0.002464  3.719843  -0.002  -0.191998  0.000224  3.969263  -0.001  -0.199746  -0.001896  3.988633  -0.002  0.008593  0.005092  -0.087091  -0.188175  0.00403  3.958252  0.002
C  C130  1  0.31546413  0.69745149  0.95112562  1  0.138273  -0.004711  3.691879  -0.005  0.106693  -0.008703  3.951301  -0.007  0.115568  -0.006434  3.963565  -0.006  0.456562  -0.014514  0.050715  0.099617  -0.010767  3.946027  -0.008
C  C131  1  0.81552920  0.80255679  0.54887278  1  0.137979  0.004805  3.691659  0.005  0.106537  0.0087  3.950974  0.007  0.115406  0.006434  3.963245  0.006  0.456888  0.014512  0.050784  0.099456  0.010766  3.945736  0.008
C  C132  1  0.68449335  0.30254989  0.04886894  1  0.138208  -0.004714  3.691609  -0.005  0.106719  -0.008701  3.950965  -0.007  0.115595  -0.006434  3.963222  -0.006  0.457301  -0.014511  0.050756  0.099647  -0.010765  3.945691  -0.008
C  C133  1  0.18449624  0.19744605  0.45113096  1  0.138218  0.004781  3.691541  0.005  0.106727  0.0087  3.950911  0.007  0.115597  0.006433  3.96317  0.006  0.45669  0.014514  0.050808  0.099648  0.010767  3.945676  0.008
C  C134  1  0.42196990  0.96545373  0.98678809  1  -0.102038  -0.001528  3.733428  -0.001  -0.125718  -0.007944  3.989189  -0.005  -0.124358  -0.002755  4.002142  -0.002  0.022467  -0.020992  -0.087976  -0.129906  -0.016884  3.985518  -0.011
C  C135  1  0.92201659  0.53455528  0.51321418  1  -0.101839  0.001432  3.733286  0.001  -0.125479  0.007952  3.989076  0.005  -0.124106  0.002752  4.002035  0.002  -0.074551  0.020922  -0.08803  -0.129712  0.016884  3.985402  0.011
C  C136  1  0.57794535  0.03454985  0.01320659  1  -0.101733  -0.001445  3.733428  -0.001  -0.125327  -0.007947  3.989198  -0.005  -0.123958  -0.002749  4.002164  -0.002  -0.074634  -0.020926  -0.088003  -0.129574  -0.016886  3.98548  -0.011
C  C137  1  0.07800518  0.46544537  0.48678561  1  -0.101743  0.001542  3.733284  0.001  -0.125443  0.007949  3.989026  0.005  -0.124072  0.002753  4.001983  0.002  0.022261  0.020988  -0.087953  -0.129661  0.016882  3.985363  0.011
N  N138  1  0.51775419  0.65549216  0.97409316  1  -0.314948  -0.024934  3.195746  -0.011  -0.25547  -0.032982  3.474751  -0.015  -0.266707  -0.027302  3.48116  -0.01  -1.238231  -0.054918  -0.314452  -0.249861  -0.040075  3.473798  -0.022
N  N139  1  0.01780483  0.84450955  0.52590202  1  -0.315074  0.024859  3.195771  0.011  -0.255661  0.032993  3.474876  0.015  -0.266904  0.027309  3.481286  0.01  -1.238505  0.054917  -0.314576  -0.250081  0.040077  3.473955  0.022
N  N140  1  0.48221064  0.34451141  0.02590056  1  -0.315154  -0.024912  3.195608  -0.011  -0.255769  -0.032987  3.474709  -0.015  -0.267008  -0.027305  3.481111  -0.01  -1.238247  -0.054914  -0.314558  -0.250169  -0.040079  3.473766  -0.022
N  N141  1  0.98220959  0.15549183  0.47410069  1  -0.315037  0.024898  3.19568  0.011  -0.25568  0.032989  3.474827  0.015  -0.266911  0.027306  3.481228  0.01  -1.238352  0.054912  -0.314557  -0.25011  0.040073  3.473916  0.022
O  O142  1  0.79448846  0.45432640  0.94131678  1  -0.810233  -0.036643  2.080303  -0.021  -0.730153  -0.044471  2.377088  -0.025  -0.758307  -0.040317  2.357835  -0.021  -1.45995  -0.066175  -0.358895  -0.707823  -0.048718  2.387494  -0.03
O  O143  1  0.29447849  0.04567685  0.55868734  1  -0.810215  0.036643  2.080385  0.021  -0.730095  0.044474  2.377171  0.025  -0.758248  0.040322  2.357883  0.021  -1.459933  0.066197  -0.358793  -0.707749  0.048725  2.387562  0.03
O  O144  1  0.20551862  0.54566987  0.05868326  1  -0.810192  -0.036644  2.08014  -0.021  -0.730169  -0.044474  2.377053  -0.025  -0.758285  -0.040319  2.357709  -0.021  -1.459969  -0.066175  -0.358955  -0.707844  -0.048722  2.387471  -0.03
O  O145  1  0.70554144  0.95432965  0.44131276  1  -0.810294  0.03664  2.080128  0.021  -0.730197  0.044472  2.37698  0.025  -0.758319  0.04032  2.357649  0.021  -1.459983  0.066179  -0.358894  -0.707859  0.048723  2.38739  0.03
O  O146  1  0.25953732  0.47724477  0.91672072  1  -0.809475  -0.03197  2.028387  -0.018  -0.732978  -0.040831  2.316255  -0.024  -0.760518  -0.036738  2.297424  -0.02  -1.462903  -0.060732  -0.355622  -0.711727  -0.045639  2.326812  -0.029
O  O147  1  0.75952341  0.02274826  0.58327903  1  -0.809378  0.031967  2.028417  0.018  -0.732911  0.04083  2.316362  0.024  -0.760427  0.036735  2.297463  0.02  -1.462789  0.060732  -0.355628  -0.711647  0.04564  2.326904  0.029
O  O148  1  0.74047343  0.52275005  0.08327876  1  -0.809431  -0.031961  2.028461  -0.018  -0.732888  -0.040827  2.316291  -0.024  -0.760423  -0.036734  2.297453  -0.02  -1.462818  -0.060725  -0.355604  -0.711658  -0.045634  2.326899  -0.029
O  O149  1  0.24049101  0.97725385  0.41672564  1  -0.809467  0.031965  2.028182  0.018  -0.733095  0.040832  2.31624  0.024  -0.760603  0.036738  2.297325  0.02  -1.46272  0.06073  -0.355721  -0.711826  0.045642  2.326771  0.029
