# generated using pymatgen
data_Zn2H9C20N6ClO16
_symmetry_space_group_name_H-M   'P 1'
_cell_length_a   10.00429184
_cell_length_b   10.91085758
_cell_length_c   11.08489309
_cell_angle_alpha   90.40881500
_cell_angle_beta   87.70111443
_cell_angle_gamma   89.35154632
_symmetry_Int_Tables_number   1
_chemical_formula_structural   Zn2H9C20N6ClO16
_chemical_formula_sum   'Zn2 H9 C20 N6 Cl1 O16'
_cell_volume   1208.88985476
_cell_formula_units_Z   1
loop_
 _symmetry_equiv_pos_site_id
 _symmetry_equiv_pos_as_xyz
  1  'x, y, z'
loop_
 _atom_site_type_symbol
 _atom_site_label
 _atom_site_symmetry_multiplicity
 _atom_site_fract_x
 _atom_site_fract_y
 _atom_site_fract_z
 _atom_site_occupancy
 _atom_site_pbe_bader_charge
 _atom_site_pbe_bader_spin_density
 _atom_site_pbe_cm5_charge
 _atom_site_pbe_ddec_charge
 _atom_site_pbe_ddec_spin_density
 _atom_site_pbe_ddec_sum_bond_order
 _atom_site_pbe_magmom
Zn  Zn0  1  0.64175430  0.49414344  0.48924311  1  1.298547  0  0.682202  0.87153  0  2.419753  0
Zn  Zn1  1  0.36133764  0.48349227  0.49650129  1  1.298952  0  0.673452  0.836315  0  2.406381  0
H  H2  1  0.36736414  0.10365810  0.65732213  1  0.127254  0  0.119477  0.137803  0  0.968911  0
H  H3  1  0.80224729  0.08307046  0.16915162  1  0.182189  0  0.132711  0.157468  0  0.972803  0
H  H4  1  0.54394895  0.78216588  0.25401546  1  0.148545  0  0.122672  0.141075  0  0.988902  0
H  H5  1  0.32191108  0.47658271  0.88129018  1  0.107586  0  0.113499  0.115992  0  0.972422  0
H  H6  1  0.61082387  0.57072258  0.89185281  1  0.114665  0  0.111901  0.137813  0  1.006202  0
H  H7  1  0.31493053  0.51048585  0.10482730  1  0.122628  0  0.123631  0.135002  0  0.961197  0
H  H8  1  0.87313905  0.61155588  0.61223706  1  0.165121  0  0.152495  0.125075  0  0.925711  0
H  H9  1  0.89044951  0.43644913  0.40720974  1  0.491857  0  0.311834  0.294005  0  0.941178  0
H  H10  1  0.11638483  0.64551600  0.53675037  1  0.199255  0  0.154399  0.141727  0  0.94394  0
C  C11  1  0.50207898  0.46400129  0.26159716  1  1.579586  0  0.215662  0.581633  0  4.22473  0
C  C12  1  0.50839151  0.25241908  0.51853624  1  1.584722  0  0.222227  0.604184  0  4.165621  0
C  C13  1  0.51661925  0.53024255  0.72170746  1  1.570064  0  0.211493  0.638136  0  4.172174  0
C  C14  1  0.45494462  0.72424407  0.46882637  1  1.5927  0  0.215973  0.612242  0  4.176194  0
C  C15  1  0.69132568  0.09552245  0.33913989  1  0.216711  0  0.08763  0.050769  0  3.878842  0
C  C16  1  0.72530947  0.04354193  0.22864486  1  0.053263  0  -0.064219  -0.162308  0  3.933782  0
C  C17  1  0.66206970  0.93388017  0.19717443  1  0.212589  0  0.078463  0.079435  0  3.947289  0
C  C18  1  0.58151937  0.87165319  0.27880022  1  0.063374  0  -0.057836  -0.132321  0  3.881048  0
C  C19  1  0.54528226  0.92613261  0.39229832  1  -0.016224  0  0.012132  0.089891  0  3.940183  0
C  C20  1  0.58693085  0.04875801  0.41787978  1  0.039491  0  0.016247  0.019094  0  3.901257  0
C  C21  1  0.51391900  0.11427024  0.51178685  1  -0.024454  0  0.002863  -0.027314  0  3.894583  0
C  C22  1  0.42547498  0.05269853  0.58805055  1  0.055614  0  -0.070652  -0.136202  0  3.932208  0
C  C23  1  0.40849168  0.92501009  0.57799942  1  0.069582  0  0.025039  0.137476  0  4.041322  0
C  C24  1  0.46363873  0.86135588  0.47908257  1  0.067813  0  -0.006533  -0.118289  0  3.878096  0
C  C25  1  0.41367268  0.50135323  0.92554543  1  -0.075541  0  -0.070159  -0.017944  0  3.975529  0
C  C26  1  0.51849993  0.53769336  0.85489360  1  -0.018616  0  -0.083643  -0.210518  0  3.847668  0
C  C27  1  0.41068832  0.49447321  0.05582687  1  0.080855  0  -0.05679  -0.066237  0  3.942502  0
C  C28  1  0.51195224  0.46499964  0.12706247  1  0.206494  0  0.075841  -0.06729  0  3.846945  0
C  C29  1  0.92117258  0.55214714  0.54242807  1  0.760933  0  0.131852  0.193611  0  3.83826  0
C  C30  1  0.06896037  0.55507763  0.53245292  1  0.600095  0  0.132525  0.122648  0  3.788112  0
N  N31  1  0.84605474  0.49236461  0.47318654  1  -1.193635  0  -0.426402  -0.376357  0  3.250344  0
N  N32  1  0.15223010  0.46559998  0.52006578  1  -0.815103  0  -0.197889  -0.198311  0  3.209346  0
N  N33  1  0.64612360  0.42880471  0.07703400  1  0.413431  0  0.060012  0.542212  0  4.227878  0
N  N34  1  0.09941676  0.33594515  0.51832813  1  0.719454  0  0.142409  0.58465  0  4.278339  0
N  N35  1  0.78751574  0.18637447  0.38195936  1  0.404002  0  0.057303  0.51962  0  4.213431  0
N  N36  1  0.68985849  0.88056898  0.07595169  1  0.389517  0  0.059439  0.518348  0  4.203439  0
Cl  Cl37  1  0.31687530  0.85400806  0.69206100  1  -0.184644  0  0.004773  -0.055745  0  1.463707  0
O  O38  1  0.61250713  0.45306007  0.31328034  1  -1.145145  0  -0.31277  -0.536428  0  2.382135  0
O  O39  1  0.38623422  0.47530128  0.31203776  1  -1.159268  0  -0.311367  -0.527264  0  2.311279  0
O  O40  1  0.61526091  0.31165818  0.52755359  1  -1.16728  0  -0.30532  -0.532617  0  2.374336  0
O  O41  1  0.39106310  0.29766161  0.51159726  1  -1.144168  0  -0.313811  -0.538229  0  2.314888  0
O  O42  1  0.63018799  0.54217268  0.66594018  1  -1.156169  0  -0.320327  -0.547192  0  2.269395  0
O  O43  1  0.40598410  0.50939835  0.67234244  1  -1.166921  0  -0.322721  -0.569933  0  2.340959  0
O  O44  1  0.56752576  0.66990738  0.45334471  1  -1.162184  0  -0.31019  -0.552321  0  2.313746  0
O  O45  1  0.34149350  0.67357225  0.47945786  1  -1.161577  0  -0.315009  -0.550315  0  2.317441  0
O  O46  1  0.73169761  0.50940469  0.06788894  1  -0.417551  0  -0.126292  -0.319693  0  1.880295  0
O  O47  1  0.66258293  0.31935612  0.05041472  1  -0.436245  0  -0.125459  -0.32204  0  1.867846  0
O  O48  1  0.10128143  0.29036711  0.41786326  1  -0.349019  0  -0.069254  -0.261628  0  1.950826  0
O  O49  1  0.07334696  0.29275931  0.61707705  1  -0.37518  0  -0.068274  -0.253389  0  1.89664  0
O  O50  1  0.83347291  0.16602840  0.48169142  1  -0.416717  0  -0.118705  -0.31145  0  1.934367  0
O  O51  1  0.82280018  0.27009127  0.31278875  1  -0.454432  0  -0.124271  -0.324443  0  1.958335  0
O  O52  1  0.78035868  0.92731465  0.01261708  1  -0.435819  0  -0.138406  -0.331592  0  1.851353  0
O  O53  1  0.62012031  0.79340329  0.04507396  1  -0.460995  0  -0.133858  -0.340384  0  1.9152  0
