# generated using pymatgen
data_CoH14C20N2O5
_symmetry_space_group_name_H-M   'P 1'
_cell_length_a   8.97212088
_cell_length_b   10.14005362
_cell_length_c   11.28823074
_cell_angle_alpha   111.95454534
_cell_angle_beta   95.24642463
_cell_angle_gamma   114.82103629
_symmetry_Int_Tables_number   1
_chemical_formula_structural   CoH14C20N2O5
_chemical_formula_sum   'Co2 H28 C40 N4 O10'
_cell_volume   826.02357028
_cell_formula_units_Z   2
loop_
 _symmetry_equiv_pos_site_id
 _symmetry_equiv_pos_as_xyz
  1  'x, y, z'
loop_
 _atom_site_type_symbol
 _atom_site_label
 _atom_site_symmetry_multiplicity
 _atom_site_fract_x
 _atom_site_fract_y
 _atom_site_fract_z
 _atom_site_occupancy
 _atom_site_hle17_ddec_charge
 _atom_site_hle17_ddec_spin_density
 _atom_site_hle17_ddec_sum_bond_order
 _atom_site_hle17_magmom
 _atom_site_hse06_10hf_bader_charge
 _atom_site_hse06_10hf_bader_spin_density
 _atom_site_hse06_10hf_ddec_charge
 _atom_site_hse06_10hf_ddec_spin_density
 _atom_site_hse06_10hf_ddec_sum_bond_order
 _atom_site_hse06_10hf_magmom
 _atom_site_hse06_ddec_charge
 _atom_site_hse06_ddec_spin_density
 _atom_site_hse06_ddec_sum_bond_order
 _atom_site_hse06_magmom
 _atom_site_pbe_cm5_charge
 _atom_site_pbe_ddec_charge
 _atom_site_pbe_ddec_spin_density
 _atom_site_pbe_ddec_sum_bond_order
 _atom_site_pbe_magmom
Co  Co0  1  0.45937928  0.83873778  0.69128648  1  0.78407  1.342218  2.410495  1.073  1.169903  0.99593  0.766238  1.121015  2.867723  0.968  0.82782  1.091849  2.791441  0.962  0.672501  0.730809  1.129239  2.913622  0.957
Co  Co1  1  0.54064926  0.16133787  0.30871840  1  0.784315  -1.342247  2.411382  -1.073  1.169854  -0.995797  0.76606  -1.120952  2.868925  -0.968  0.827565  -1.091806  2.792722  -0.962  0.672571  0.730617  -1.129128  2.914796  -0.957
H  H2  1  0.37971053  0.80934156  0.40693821  1  0.104006  0.00047  0.940831  0.001  0.138275  0.000114  0.109924  -7.4e-05  1.005331  0.0  0.114097  -1.4e-05  0.99968  0.0  0.125002  0.106339  -9.6e-05  1.010311  0.0
H  H3  1  0.62023320  0.19058033  0.59299712  1  0.104131  -0.00047  0.94083  -0.001  0.138493  -0.000113  0.10994  7.5e-05  1.005381  0.0  0.114116  1.4e-05  0.999723  0.0  0.124978  0.106352  9.7e-05  1.010364  0.0
H  H4  1  0.45814639  0.67950175  0.20576727  1  0.108839  -0.000141  0.95064  -0.001  0.115823  0.000139  0.120415  0.000111  1.005503  0.0  0.123381  7.7e-05  1.00533  0.0  0.109856  0.117761  0.000167  1.006435  0.0
H  H5  1  0.54190873  0.32051605  0.79421164  1  0.108835  0.000141  0.95058  0.001  0.11568  -0.000138  0.120422  -0.000111  1.005441  0.0  0.123388  -7.7e-05  1.005272  0.0  0.109816  0.117796  -0.000167  1.006347  0.0
H  H6  1  0.64898045  0.56065611  0.22008311  1  0.098438  0.000656  0.943097  0.002  0.0989  -0.000124  0.114643  -3.8e-05  0.995659  0.0  0.118011  5e-06  0.991894  0.0  0.108455  0.112006  -7.9e-05  0.998531  0.0
H  H7  1  0.35103859  0.43933904  0.77991379  1  0.098528  -0.000656  0.942969  -0.002  0.099129  0.000124  0.114672  3.8e-05  0.99559  0.0  0.118041  -4e-06  0.991824  0.0  0.108445  0.112034  7.9e-05  0.998463  0.0
H  H8  1  0.82875831  0.50590974  0.37349772  1  0.105226  -0.00035  0.953616  0.0  0.107465  -0.000622  0.115756  -0.000539  1.018552  0.0  0.119836  -0.000467  1.015281  0.0  0.105527  0.112611  -0.000607  1.02135  0.0
H  H9  1  0.17120633  0.49405110  0.62646224  1  0.104958  0.000348  0.953546  0.0  0.10661  0.00062  0.115431  0.000537  1.018596  0.0  0.119513  0.000466  1.015328  0.0  0.105317  0.11228  0.000605  1.021401  0.0
H  H10  1  0.93967115  0.54608318  0.60024401  1  0.104577  -9.1e-05  0.934431  0.0  0.09039  -2e-05  0.12051  -2.8e-05  0.987328  0.0  0.123387  -2.7e-05  0.986337  0.0  0.110037  0.118207  -2.3e-05  0.988452  0.0
H  H11  1  0.06028157  0.45387619  0.39972257  1  0.104539  9.2e-05  0.934696  0.0  0.090838  2e-05  0.120489  2.8e-05  0.987566  0.0  0.12335  2.7e-05  0.986589  0.0  0.110048  0.118185  2.4e-05  0.988689  0.0
H  H12  1  0.95353496  0.66503892  0.85206446  1  0.101783  0.000398  0.954327  0.001  0.098848  -0.000135  0.113644  -8.2e-05  1.012947  0.0  0.116669  -4.4e-05  1.0107  0.0  0.106255  0.110953  -9.2e-05  1.015253  0.0
H  H13  1  0.04640339  0.33485039  0.14784068  1  0.10181  -0.000398  0.954343  -0.001  0.099095  0.000134  0.11364  8.2e-05  1.012967  0.0  0.116675  4.4e-05  1.01074  0.0  0.106266  0.110963  9.2e-05  1.015219  0.0
H  H14  1  0.84549580  0.80944286  0.02705535  1  0.114643  -0.000214  0.945711  -0.001  0.105215  -0.000156  0.123345  -2.7e-05  1.005152  0.0  0.127059  -2.7e-05  1.003914  0.0  0.109769  0.120587  -1.5e-05  1.006142  0.0
H  H15  1  0.15439507  0.19032843  0.97287581  1  0.114642  0.000214  0.946358  0.001  0.104353  0.000157  0.123373  2.7e-05  1.00574  0.0  0.127066  2.7e-05  1.004532  0.0  0.109769  0.120661  1.5e-05  1.00668  0.0
H  H16  1  0.63041725  0.88040080  0.96274732  1  0.113574  9.3e-05  0.953571  0.001  0.186186  -0.000377  0.120169  -0.000288  1.015308  0.0  0.124553  -0.000188  1.009375  0.0  0.128597  0.116385  -0.000304  1.020482  0.0
H  H17  1  0.36959487  0.11952110  0.03724959  1  0.113748  -9.4e-05  0.95338  -0.001  0.186971  0.000376  0.120173  0.000287  1.015246  0.0  0.12454  0.000188  1.009333  0.0  0.128633  0.116399  0.000304  1.020393  0.0
H  H18  1  0.95522969  0.28448241  0.77904689  1  0.094705  0.000124  0.990141  0.0  0.109884  8e-05  0.104081  7.5e-05  1.055496  0.0  0.106861  5.1e-05  1.054863  0.0  0.100769  0.102301  0.000114  1.055671  0.0
H  H19  1  0.04487009  0.71564081  0.22102194  1  0.094631  -0.000125  0.990378  0.0  0.108491  -8e-05  0.104206  -7.5e-05  1.055537  0.0  0.107033  -5.1e-05  1.054852  0.0  0.100859  0.102428  -0.000114  1.055712  0.0
H  H20  1  0.77800927  0.44385608  0.11752538  1  0.089537  9.1e-05  0.979069  0.0  0.094938  -7.6e-05  0.098259  3.8e-05  1.044731  0.0  0.101696  4.1e-05  1.042404  0.0  0.099315  0.096279  2.3e-05  1.045706  0.0
H  H21  1  0.22209586  0.55626219  0.88255277  1  0.089588  -9.1e-05  0.979164  0.0  0.095261  7.7e-05  0.098203  -3.8e-05  1.044887  0.0  0.101631  -4.1e-05  1.042578  0.0  0.099348  0.096223  -2.3e-05  1.045861  0.0
H  H22  1  0.20205185  0.91102541  0.40954094  1  0.105417  5.6e-05  0.972711  0.0  0.127635  -2e-06  0.112142  -7e-06  1.041126  0.0  0.116418  -5e-06  1.037539  0.0  0.103778  0.108824  -2.3e-05  1.043889  0.0
H  H23  1  0.79794811  0.08904875  0.59054642  1  0.105393  -5.6e-05  0.972944  0.0  0.127397  2e-06  0.11213  7e-06  1.041347  0.0  0.116405  5e-06  1.03776  0.0  0.103731  0.108827  2.3e-05  1.04407  0.0
H  H24  1  0.98094569  0.03826326  0.72738405  1  0.099669  2.3e-05  0.950348  0.0  0.08948  -3e-06  0.107104  -1.7e-05  1.016263  0.0  0.110526  -1.5e-05  1.014349  0.0  0.102483  0.104487  -2.2e-05  1.01792  0.0
H  H25  1  0.01903563  0.96180945  0.27270237  1  0.099961  -2.3e-05  0.950009  0.0  0.089691  3e-06  0.107317  1.7e-05  1.015992  0.0  0.110766  1.4e-05  1.014051  0.0  0.102583  0.104706  2.2e-05  1.017656  0.0
H  H26  1  0.26697089  0.87085561  0.81218777  1  0.407949  -0.00023  0.912152  0.0  0.662222  0.00019  0.378336  -0.000134  0.977217  0.001  0.390768  -0.000206  0.959983  0.0  0.288042  0.369473  -9.1e-05  0.989553  0.001
H  H27  1  0.73302808  0.12910877  0.18781218  1  0.408078  0.00023  0.912206  0.0  0.662043  -0.000189  0.378455  0.000134  0.977077  -0.001  0.390892  0.000206  0.959834  0.0  0.28806  0.369587  9.1e-05  0.989418  -0.001
H  H28  1  0.36247763  0.81326283  0.89963600  1  0.420621  -9.8e-05  0.894082  0.0  0.661649  0.000176  0.392846  -0.000123  0.954644  0.0  0.403174  -0.000304  0.940395  0.0  0.291307  0.385639  2e-06  0.964492  0.001
H  H29  1  0.63753081  0.18673138  0.10033147  1  0.420703  9.9e-05  0.894021  0.0  0.676569  -0.00015  0.392875  0.000123  0.954638  0.0  0.403204  0.000303  0.940389  0.0  0.291238  0.385664  -1e-06  0.964492  -0.001
C  C30  1  0.46137158  0.75572843  0.41136254  1  0.1455  -0.025587  3.608612  -0.029  0.44677  -0.01283  0.113912  -0.00697  3.870804  -0.008  0.131039  -0.00387  3.876349  -0.005  0.0558  0.101562  -0.008922  3.869461  -0.01
C  C31  1  0.53862766  0.24424987  0.58860057  1  0.145471  0.0256  3.608836  0.029  0.44754  0.012822  0.114065  0.006967  3.870854  0.008  0.13121  0.003871  3.876406  0.005  0.055932  0.101711  0.008916  3.869519  0.01
C  C32  1  0.50674728  0.68228154  0.29907120  1  -0.106747  0.011903  3.725432  0.016  0.039404  0.003154  -0.121835  0.001601  3.983708  0.003  -0.128537  0.00145  3.997991  0.002  -0.080776  -0.118314  0.001082  3.976268  0.002
C  C33  1  0.49325183  0.31769428  0.70089459  1  -0.106734  -0.011902  3.725615  -0.016  0.039402  -0.003149  -0.12191  -0.001599  3.983861  -0.003  -0.128614  -0.00145  3.998148  -0.002  -0.080796  -0.118416  -0.001081  3.976399  -0.002
C  C34  1  0.61336159  0.61698883  0.30721074  1  -0.052573  -0.028146  3.676347  -0.032  -0.086785  -0.013897  -0.079059  -0.007478  3.927231  -0.008  -0.069242  -0.003801  3.937665  -0.004  -0.070167  -0.086462  -0.010563  3.921203  -0.012
C  C35  1  0.38661646  0.38297188  0.69277051  1  -0.052644  0.028156  3.676164  0.032  -0.087824  0.013887  -0.079019  0.007472  3.927073  0.008  -0.069206  0.003799  3.937511  0.004  -0.070115  -0.086413  0.010551  3.921044  0.012
C  C36  1  0.67660755  0.62610583  0.43082155  1  0.035008  0.006753  3.797359  0.01  -0.016576  0.001296  0.051213  0.000704  4.030127  0.001  0.047438  0.000485  4.052206  0.001  0.000475  0.053491  0.000498  4.016091  0.002
C  C37  1  0.32331117  0.37380193  0.56914258  1  0.034821  -0.006757  3.797073  -0.01  -0.013959  -0.001299  0.050905  -0.000705  4.029874  -0.001  0.047129  -0.000487  4.051952  -0.001  0.000605  0.053185  -0.000499  4.015831  -0.002
C  C38  1  0.79072233  0.56790932  0.45660081  1  -0.100555  -0.001666  3.708309  -0.001  -0.052734  -0.001168  -0.132223  -0.001327  3.982608  0.001  -0.133359  -0.000946  3.998346  0.001  -0.080983  -0.132637  -0.001738  3.974032  0.001
C  C39  1  0.20920841  0.43202442  0.54334829  1  -0.099953  0.001674  3.707658  0.001  -0.050628  0.001162  -0.131535  0.001322  3.981929  -0.001  -0.132686  0.000945  3.99769  -0.001  -0.080812  -0.131941  0.001731  3.973333  -0.001
C  C40  1  0.85153444  0.58939466  0.58214862  1  -0.079128  0.001425  3.694323  0.001  -0.00571  -0.003965  -0.105095  -0.002323  3.955329  -0.003  -0.105252  -0.002309  3.97296  -0.003  -0.07636  -0.104748  -0.002986  3.944604  -0.003
C  C41  1  0.14841300  0.41055878  0.41780136  1  -0.079281  -0.001444  3.694285  -0.001  -0.010888  0.003945  -0.10526  0.002311  3.955309  0.003  -0.105405  0.002297  3.972945  0.003  -0.076366  -0.104909  0.002969  3.944575  0.003
C  C42  1  0.80128062  0.66795243  0.69267979  1  0.03642  0.002733  3.7905  0.004  0.000207  0.000628  0.051345  0.000369  4.022036  0.001  0.047982  0.000566  4.043311  0.001  0.002359  0.053335  -3.3e-05  4.007919  0.001
C  C43  1  0.19867799  0.33199876  0.30726667  1  0.036591  -0.002733  3.790826  -0.004  0.004377  -0.000632  0.051353  -0.00037  4.022287  -0.001  0.047995  -0.000566  4.043558  -0.001  0.002405  0.05334  3.2e-05  4.008172  -0.001
C  C44  1  0.86096168  0.70032056  0.82603251  1  -0.039385  -0.019217  3.665646  -0.021  0.015491  -0.011112  -0.065411  -0.006035  3.914109  -0.007  -0.055952  -0.003609  3.924559  -0.004  -0.064216  -0.072628  -0.00784  3.90875  -0.008
C  C45  1  0.13901016  0.29961261  0.17390692  1  -0.039608  0.01924  3.665497  0.021  0.015055  0.011117  -0.065563  0.006038  3.914014  0.007  -0.056129  0.00361  3.924436  0.004  -0.064386  -0.072771  0.007839  3.908674  0.008
C  C46  1  0.80115293  0.77876742  0.92236142  1  -0.113305  0.006073  3.715103  0.008  -0.009202  0.001166  -0.125693  0.000519  3.968009  0.001  -0.1332  0.00085  3.982796  0.001  -0.081074  -0.121161  -6e-05  3.95941  0.001
C  C47  1  0.19877372  0.22108101  0.07757933  1  -0.113233  -0.006076  3.715378  -0.008  -0.00713  -0.00117  -0.12573  -0.00052  3.968256  -0.001  -0.133223  -0.000851  3.983054  -0.001  -0.08095  -0.121233  5.8e-05  3.959638  -0.001
C  C48  1  0.67952854  0.82138493  0.88748494  1  0.138232  -0.017967  3.605961  -0.02  0.418001  -0.010885  0.109016  -0.006102  3.859183  -0.007  0.125258  -0.004065  3.866627  -0.005  0.05622  0.097305  -0.007325  3.856373  -0.008
C  C49  1  0.32041413  0.17849501  0.11248461  1  0.138025  0.017984  3.606513  0.02  0.41569  0.010886  0.109028  0.006101  3.859688  0.007  0.1253  0.004064  3.867094  0.005  0.056047  0.097313  0.00732  3.85689  0.008
C  C50  1  0.68265711  0.71832724  0.66669006  1  0.112708  -0.007936  3.78077  -0.009  0.460539  -0.00606  0.109462  -0.003213  4.016057  -0.004  0.116102  -0.002028  4.035462  -0.002  0.111611  0.105166  -0.004152  4.003222  -0.004
C  C51  1  0.31727903  0.28161490  0.33327383  1  0.112404  0.007948  3.780996  0.009  0.455904  0.00606  0.109524  0.003213  4.015777  0.004  0.116164  0.002027  4.035177  0.002  0.111531  0.105229  0.004147  4.002938  0.004
C  C52  1  0.62388536  0.70098034  0.53844050  1  0.111233  -0.012399  3.782954  -0.015  0.484007  -0.007041  0.106726  -0.003685  4.017974  -0.004  0.113708  -0.001921  4.037181  -0.003  0.11001  0.102236  -0.004608  4.005194  -0.005
C  C53  1  0.37605786  0.29896911  0.46152995  1  0.111384  0.012404  3.782754  0.015  0.4858  0.007034  0.106918  0.003681  4.017482  0.004  0.11392  0.001921  4.036682  0.003  0.109908  0.102427  0.004601  4.004708  0.005
C  C54  1  0.68748454  0.18265507  0.88241351  1  0.622636  -0.003436  3.919402  -0.006  1.608178  -0.000931  0.577314  5.9e-05  4.219968  -0.001  0.61111  -8.7e-05  4.21628  -0.001  0.205325  0.553909  0.000299  4.220554  -0.002
C  C55  1  0.31259929  0.81742368  0.11759372  1  0.623556  0.003441  3.919801  0.006  1.608532  0.00093  0.578204  -5.9e-05  4.220275  0.001  0.612004  8.4e-05  4.216564  0.001  0.205656  0.554796  -0.000302  4.220873  0.002
C  C56  1  0.84876919  0.34674606  0.94161959  1  -0.061243  0.006624  3.757326  0.008  -0.050195  0.005339  -0.038305  0.003115  3.987115  0.004  -0.044138  0.002179  4.009736  0.003  -0.017268  -0.034081  0.004483  3.971202  0.006
C  C57  1  0.15131838  0.65339069  0.05842999  1  -0.061788  -0.006623  3.758736  -0.008  -0.050951  -0.005343  -0.038886  -0.003116  3.98859  -0.004  -0.04472  -0.002181  4.011202  -0.003  -0.017575  -0.034654  -0.004484  3.972676  -0.006
C  C58  1  0.97503241  0.37905757  0.87580909  1  -0.080415  -0.002223  3.744287  -0.003  -0.001829  -0.000526  -0.101269  -0.00025  3.988031  0.0  -0.103182  -0.000215  4.010151  0.0  -0.087239  -0.099311  -0.000455  3.97179  -0.001
C  C59  1  0.02507659  0.62107059  0.12426388  1  -0.08021  0.002225  3.744108  0.003  -0.002579  0.000525  -0.101249  0.00025  3.98793  0.0  -0.103192  0.000215  4.010021  0.0  -0.087178  -0.099294  0.000456  3.971682  0.001
C  C60  1  0.87576836  0.46986921  0.06631039  1  -0.089065  -0.001521  3.762469  -0.002  -0.121239  0.000156  -0.110625  0.000131  4.010873  0.0  -0.112857  7e-06  4.032483  0.0  -0.08987  -0.108465  0.000173  3.994559  0.0
C  C61  1  0.12433302  0.53026380  0.93375749  1  -0.088951  0.001522  3.763097  0.002  -0.121456  -0.000155  -0.110375  -0.000131  4.011376  0.0  -0.11259  -7e-06  4.032955  0.0  -0.089634  -0.108224  -0.000173  3.995065  0.0
C  C62  1  0.20611056  0.93703919  0.66102976  1  0.626182  -0.003179  3.866899  -0.003  1.569626  -0.001324  0.582906  -0.000985  4.161887  -0.001  0.619533  -0.00054  4.156839  0.0  0.213239  0.557583  -0.0013  4.164976  -0.001
C  C63  1  0.79386959  0.06299598  0.33903659  1  0.626208  0.003175  3.867784  0.003  1.571019  0.001317  0.582751  0.000982  4.162928  0.001  0.619405  0.000541  4.157889  0.0  0.21316  0.557407  0.001294  4.166013  0.001
C  C64  1  0.10178943  0.97026838  0.57709811  1  -0.063383  -3.6e-05  3.778605  0.0  -0.005114  -0.000795  -0.041278  -0.000457  4.008031  -0.001  -0.049599  -0.000403  4.033557  -0.001  -0.018436  -0.035567  -0.000445  3.990609  -0.001
C  C65  1  0.89817132  0.02976163  0.42297128  1  -0.06382  3.6e-05  3.779565  0.0  -0.006195  0.000798  -0.041251  0.000458  4.008521  0.001  -0.049689  0.000402  4.034201  0.001  -0.018572  -0.035459  0.000443  3.990987  0.001
C  C66  1  0.11189348  0.94773351  0.44860772  1  -0.077122  -0.00126  3.727107  -0.002  -0.105427  -0.000272  -0.102034  -9.1e-05  3.980654  0.0  -0.103039  -1.2e-05  4.001266  0.0  -0.08883  -0.101239  -0.000209  3.966969  0.0
C  C67  1  0.88810134  0.05233934  0.55148061  1  -0.077032  0.00126  3.727882  0.002  -0.106195  0.00027  -0.1021  8.9e-05  3.981294  0.0  -0.103067  1.3e-05  4.001924  0.0  -0.088892  -0.101326  0.000209  3.9676  0.0
C  C68  1  0.98932238  0.02305675  0.62791439  1  -0.076963  -0.001477  3.734279  -0.002  -0.029028  -0.000484  -0.101946  -0.000268  3.99051  0.0  -0.10418  -0.000163  4.01246  0.0  -0.087517  -0.100503  -0.00035  3.975968  0.0
C  C69  1  0.01067041  0.97702094  0.37217546  1  -0.076902  0.001477  3.734112  0.002  -0.028339  0.000483  -0.10199  0.000267  3.990286  0.0  -0.104219  0.000163  4.012269  0.0  -0.087416  -0.100578  0.000349  3.975736  0.0
N  N70  1  0.51759527  0.76439811  0.52975307  1  -0.289297  6.9e-05  3.358345  0.002  -1.199458  0.000343  -0.248002  0.000965  3.652096  0.0  -0.271228  0.002501  3.661799  0.002  -0.335939  -0.23443  0.000845  3.645456  0.0
N  N71  1  0.48241375  0.23562147  0.47023202  1  -0.289529  -5.6e-05  3.358756  -0.002  -1.199812  -0.000322  -0.248139  -0.000953  3.652161  0.0  -0.271407  -0.002482  3.66194  -0.002  -0.336055  -0.234551  -0.000838  3.645503  0.0
N  N72  1  0.61861174  0.78958583  0.76116488  1  -0.285107  -0.010714  3.374936  -0.013  -1.202053  -0.013446  -0.245877  -0.007218  3.669509  -0.01  -0.271219  -0.005702  3.682159  -0.009  -0.34029  -0.231418  -0.007938  3.661776  -0.011
N  N73  1  0.38136300  0.21037715  0.23882576  1  -0.284929  0.010712  3.375988  0.013  -1.201682  0.013435  -0.245754  0.007215  3.670272  0.01  -0.271074  0.005704  3.682913  0.009  -0.340188  -0.231289  0.007933  3.662516  0.011
O  O74  1  0.66027906  0.08172973  0.76238983  1  -0.585204  0.048195  2.056203  0.077  -1.176752  0.057603  -0.552494  0.031733  2.324531  0.053  -0.591295  0.023526  2.320363  0.04  -0.29633  -0.520834  0.042317  2.322967  0.069
O  O75  1  0.33982371  0.91841292  0.23759908  1  -0.585678  -0.048243  2.0564  -0.077  -1.176835  -0.057653  -0.55287  -0.031766  2.324766  -0.053  -0.591676  -0.023552  2.320597  -0.04  -0.296517  -0.521207  -0.042353  2.323217  -0.069
O  O76  1  0.58787406  0.15362560  0.95298355  1  -0.62794  -0.000331  2.033806  0.001  -1.229938  -0.00028  -0.579918  -0.000257  2.266947  0.0  -0.604632  -0.000365  2.257244  0.0  -0.317767  -0.561593  0.000347  2.272547  0.001
O  O77  1  0.41221549  0.84638499  0.04701925  1  -0.628235  0.000335  2.033861  -0.001  -1.229552  0.000283  -0.580183  0.00026  2.266909  0.0  -0.604922  0.000367  2.257247  0.0  -0.317889  -0.561827  -0.000344  2.272452  -0.001
O  O78  1  0.29887450  0.87801327  0.60523987  1  -0.561599  -0.011139  2.124715  -0.017  -1.144642  -0.008698  -0.532885  -0.004631  2.409246  -0.009  -0.574756  -0.004859  2.401662  -0.009  -0.305224  -0.504669  -0.003703  2.413878  -0.007
O  O79  1  0.70119255  0.12212938  0.39480496  1  -0.561406  0.01112  2.125039  0.017  -1.144662  0.008682  -0.532815  0.004622  2.409757  0.009  -0.574656  0.004848  2.40216  0.009  -0.305297  -0.504608  0.003694  2.414398  0.007
O  O80  1  0.19492645  0.96503048  0.77793345  1  -0.589915  -0.001295  1.995479  -0.002  -1.19473  -0.000617  -0.542196  -0.000454  2.216241  0.0  -0.568169  -0.000248  2.208291  0.0  -0.30632  -0.524143  -0.000451  2.2214  0.0
O  O81  1  0.80504289  0.03494367  0.22212621  1  -0.589919  0.001292  1.995631  0.002  -1.1946  0.00061  -0.542173  0.00045  2.216452  0.0  -0.568145  0.000245  2.208508  0.0  -0.306252  -0.524123  0.000446  2.221632  0.0
O  O82  1  0.31839360  0.79510389  0.80564999  1  -0.802088  0.005427  2.03254  0.002  -1.266578  0.015034  -0.773169  0.009229  2.26978  0.006  -0.812565  0.004173  2.238655  -0.001  -0.572071  -0.745101  0.013476  2.290159  0.012
O  O83  1  0.68162779  0.20487836  0.19431163  1  -0.802404  -0.005411  2.032557  -0.002  -1.281553  -0.015067  -0.773323  -0.009223  2.269601  -0.006  -0.812712  -0.00418  2.238477  0.001  -0.572067  -0.74525  -0.013468  2.289996  -0.012
