# generated using pymatgen
data_CoH24(C11N2)4
_symmetry_space_group_name_H-M   'P 1'
_cell_length_a   9.14653425
_cell_length_b   19.07598491
_cell_length_c   19.07884514
_cell_angle_alpha   117.48476457
_cell_angle_beta   99.20474899
_cell_angle_gamma   99.19404043
_symmetry_Int_Tables_number   1
_chemical_formula_structural   CoH24(C11N2)4
_chemical_formula_sum   'Co3 H72 C132 N24'
_cell_volume   2809.48223283
_cell_formula_units_Z   3
loop_
 _symmetry_equiv_pos_site_id
 _symmetry_equiv_pos_as_xyz
  1  'x, y, z'
loop_
 _atom_site_type_symbol
 _atom_site_label
 _atom_site_symmetry_multiplicity
 _atom_site_fract_x
 _atom_site_fract_y
 _atom_site_fract_z
 _atom_site_occupancy
 _atom_site_pbe_bader_charge
 _atom_site_pbe_bader_spin_density
 _atom_site_pbe_cm5_charge
 _atom_site_pbe_ddec_charge
 _atom_site_pbe_ddec_spin_density
 _atom_site_pbe_ddec_sum_bond_order
 _atom_site_pbe_magmom
Co  Co0  1  0.50000099  0.99999846  0.49999848  1  1.115329  1.001118  0.67064  0.488664  1.096435  3.073131  0.993
Co  Co1  1  0.00000172  0.50000126  0.50000109  1  1.112752  1.001509  0.671225  0.488037  1.09709  3.076897  0.993
Co  Co2  1  0.49999958  0.49999973  0.99999946  1  1.112561  1.0013  0.670061  0.486076  1.097121  3.075904  0.993
H  H3  1  0.98814179  0.23413297  0.58069649  1  0.098601  7.1e-05  0.102398  0.121876  3.6e-05  1.015967  0.0
H  H4  1  0.08471669  0.14787052  0.64999889  1  0.090475  3.3e-05  0.098444  0.112282  -1.2e-05  1.058826  0.0
H  H5  1  0.81722129  0.88684448  0.65999390  1  0.091375  4.6e-05  0.104715  0.123288  4e-06  1.020834  0.0
H  H6  1  0.52972928  0.78769472  0.59931595  1  0.077581  2e-05  0.09982  0.116239  3e-06  1.048321  0.0
H  H7  1  0.85425938  0.18372752  0.39597820  1  0.10568  0.001026  0.109894  0.124836  0.000413  0.994218  0.0
H  H8  1  0.95408316  0.31287432  0.39520638  1  0.106526  0.001837  0.114628  0.079032  0.000525  1.034507  0.001
H  H9  1  0.64480112  0.32075159  0.58504227  1  0.080297  0.001246  0.108765  0.121187  0.000504  0.990073  0.001
H  H10  1  0.75248838  0.44452151  0.57600146  1  0.118696  0.002056  0.115339  0.084893  0.000674  1.013977  0.001
H  H11  1  0.09785703  0.98265268  0.56389557  1  0.102661  -7.6e-05  0.101581  0.10895  -0.000122  1.031038  0.0
H  H12  1  0.34566607  0.98616881  0.64088532  1  0.110101  -0.000157  0.107634  0.110174  -0.000227  1.04377  0.0
H  H13  1  0.17815774  0.05566035  0.85626001  1  0.118296  -2.2e-05  0.118955  0.126937  -1.9e-05  0.970654  0.0
H  H14  1  0.92580053  0.04802022  0.77709169  1  0.079313  1.1e-05  0.109957  0.117006  -0.0  0.983357  0.0
H  H15  1  0.40700073  0.41917863  0.65347593  1  0.060481  5.3e-05  0.102492  0.121721  3.3e-05  1.016757  0.0
H  H16  1  0.43433527  0.34990463  0.49795461  1  0.096279  3.6e-05  0.097544  0.110125  -1.2e-05  1.059637  0.0
H  H17  1  0.15729844  0.33994559  0.22694493  1  0.075538  4.3e-05  0.104622  0.123135  5e-06  1.020653  0.0
H  H18  1  0.93050750  0.40059810  0.18837209  1  0.107223  3.4e-05  0.099657  0.115329  4e-06  1.048869  0.0
H  H19  1  0.45814295  0.60415648  0.78782463  1  0.094319  0.001029  0.110087  0.125334  0.000413  0.99382  0.0
H  H20  1  0.55869430  0.60505327  0.91781886  1  0.058587  0.001875  0.114537  0.078554  0.000525  1.033897  0.001
H  H21  1  0.05990166  0.41482271  0.73569407  1  0.089866  0.001242  0.108291  0.120659  0.000503  0.990378  0.001
H  H22  1  0.17667469  0.42390757  0.86849570  1  0.104116  0.002064  0.116106  0.086271  0.000674  1.011719  0.001
H  H23  1  0.53403957  0.43622816  0.41919182  1  0.109947  -7.4e-05  0.101371  0.108284  -0.000122  1.03092  0.0
H  H24  1  0.70510073  0.35944979  0.34578597  1  0.093974  -0.000159  0.10787  0.110418  -0.000231  1.044189  0.0
H  H25  1  0.32242458  0.14397594  0.19948443  1  0.090114  -2.2e-05  0.118734  0.126518  -1.9e-05  0.97112  0.0
H  H26  1  0.14897841  0.22292827  0.27089807  1  0.060537  1e-05  0.109972  0.117723  -1e-06  0.983048  0.0
H  H27  1  0.75399083  0.34667521  0.76596387  1  0.066599  5.7e-05  0.101645  0.120709  3.4e-05  1.017301  0.0
H  H28  1  0.93670625  0.50226211  0.85220606  1  0.092239  3.3e-05  0.098204  0.112089  -1e-05  1.059838  0.0
H  H29  1  0.93033598  0.77314996  0.11318799  1  0.087206  5e-05  0.10445  0.122691  5e-06  1.021114  0.0
H  H30  1  0.74203647  0.81162027  0.21232929  1  0.087228  2.5e-05  0.099754  0.116412  4e-06  1.049179  0.0
H  H31  1  0.67036438  0.21208023  0.81638721  1  0.056258  0.001039  0.109519  0.12429  0.00041  0.995049  0.0
H  H32  1  0.64108207  0.08220088  0.68728348  1  0.096403  0.001865  0.113889  0.077925  0.000536  1.032612  0.001
H  H33  1  0.32470906  0.26446533  0.67919379  1  0.09035  0.001256  0.108138  0.120757  0.000509  0.990242  0.001
H  H34  1  0.30857979  0.13167769  0.55548814  1  0.112019  0.002029  0.11587  0.085845  0.000659  1.012891  0.001
H  H35  1  0.11513286  0.58129120  0.01743150  1  0.094106  -7.6e-05  0.101576  0.108545  -0.000121  1.030655  0.0
H  H36  1  0.35943076  0.65484786  0.01403173  1  0.112116  -0.000159  0.107552  0.109871  -0.000231  1.044189  0.0
H  H37  1  0.12238701  0.80071978  0.94445740  1  0.119566  -2.2e-05  0.119213  0.127217  -1.9e-05  0.970076  0.0
H  H38  1  0.87764329  0.72910069  0.95195694  1  0.070957  1e-05  0.110035  0.117096  -0.0  0.983569  0.0
H  H39  1  0.01185464  0.76586580  0.41930416  1  0.098547  7.1e-05  0.102385  0.12187  3.6e-05  1.01596  0.0
H  H40  1  0.91528165  0.85212763  0.35000111  1  0.090502  3.3e-05  0.098442  0.112276  -1.2e-05  1.058812  0.0
H  H41  1  0.18277686  0.11315551  0.34000797  1  0.09137  4.6e-05  0.104722  0.123297  4e-06  1.020806  0.0
H  H42  1  0.47026819  0.21230834  0.40068939  1  0.077548  2e-05  0.099733  0.116155  3e-06  1.048337  0.0
H  H43  1  0.14573515  0.81627186  0.60402102  1  0.105642  0.001026  0.109913  0.124848  0.000413  0.994132  0.0
H  H44  1  0.04591358  0.68712506  0.60479353  1  0.106509  0.001837  0.11461  0.079005  0.000525  1.034496  0.001
H  H45  1  0.35520448  0.67924779  0.41496042  1  0.080354  0.001246  0.108765  0.121211  0.000504  0.99007  0.001
H  H46  1  0.24751753  0.55547848  0.42400258  1  0.118683  0.002056  0.115339  0.084897  0.000674  1.013933  0.001
H  H47  1  0.90214685  0.01734547  0.43610171  1  0.102727  -7.6e-05  0.101607  0.109058  -0.000122  1.030887  0.0
H  H48  1  0.65433640  0.01382873  0.35911208  1  0.110442  -0.000157  0.107643  0.110252  -0.000227  1.043719  0.0
H  H49  1  0.82184535  0.94433841  0.14373539  1  0.118176  -2.2e-05  0.118946  0.126947  -1.9e-05  0.970552  0.0
H  H50  1  0.07420285  0.95197916  0.22290664  1  0.079269  1.1e-05  0.109957  0.117019  -0.0  0.983392  0.0
H  H51  1  0.59300056  0.58082320  0.34652546  1  0.060493  5.3e-05  0.102492  0.121738  3.3e-05  1.016711  0.0
H  H52  1  0.56566854  0.65009782  0.50204725  1  0.096317  3.5e-05  0.097525  0.110084  -1.2e-05  1.059682  0.0
H  H53  1  0.84270033  0.66005563  0.77305703  1  0.075471  4.3e-05  0.104628  0.12322  5e-06  1.020546  0.0
H  H54  1  0.06949065  0.59940189  0.81163083  1  0.107161  3.4e-05  0.09966  0.115363  4e-06  1.048883  0.0
H  H55  1  0.54185643  0.39584597  0.21217742  1  0.094326  0.001029  0.110092  0.125309  0.000413  0.993813  0.0
H  H56  1  0.44130305  0.39494733  0.08218323  1  0.058621  0.001875  0.114529  0.078548  0.000526  1.033876  0.001
H  H57  1  0.94009902  0.58517790  0.26430514  1  0.08984  0.001242  0.108306  0.120698  0.000503  0.990306  0.001
H  H58  1  0.82332316  0.57609181  0.13150273  1  0.105203  0.002066  0.116092  0.086271  0.000674  1.011735  0.001
H  H59  1  0.46596725  0.56377367  0.58081000  1  0.109989  -7.4e-05  0.101366  0.10824  -0.000122  1.030925  0.0
H  H60  1  0.29490438  0.64055082  0.65421463  1  0.094033  -0.000159  0.107873  0.110399  -0.00023  1.044133  0.0
H  H61  1  0.67757591  0.85602650  0.80051718  1  0.090059  -2.2e-05  0.118777  0.126553  -1.9e-05  0.971065  0.0
H  H62  1  0.85102571  0.77707478  0.72910411  1  0.060464  1e-05  0.109948  0.117722  -1e-06  0.983086  0.0
H  H63  1  0.24601458  0.65332601  0.23403599  1  0.066605  5.6e-05  0.101654  0.120715  3.3e-05  1.017302  0.0
H  H64  1  0.06329805  0.49773911  0.14779686  1  0.092147  3.3e-05  0.098217  0.112127  -1e-05  1.059836  0.0
H  H65  1  0.06966328  0.22685003  0.88681188  1  0.08721  5e-05  0.104464  0.122721  5e-06  1.021073  0.0
H  H66  1  0.25796390  0.18837973  0.78767118  1  0.087245  2.5e-05  0.099769  0.116437  4e-06  1.049139  0.0
H  H67  1  0.32963741  0.78792037  0.18360946  1  0.056347  0.001039  0.10957  0.124318  0.00041  0.994928  0.0
H  H68  1  0.35891972  0.91779972  0.31271477  1  0.096326  0.001865  0.113869  0.077917  0.000536  1.032589  0.001
H  H69  1  0.67528251  0.73553037  0.32080246  1  0.090045  0.001256  0.108131  0.120751  0.000509  0.990327  0.001
H  H70  1  0.69141431  0.86831862  0.44450911  1  0.112098  0.002029  0.115844  0.085835  0.000659  1.013015  0.001
H  H71  1  0.88486209  0.41871125  0.98257073  1  0.094127  -7.6e-05  0.101549  0.10853  -0.000121  1.030715  0.0
H  H72  1  0.64056296  0.34515213  0.98596771  1  0.112281  -0.000159  0.107525  0.109837  -0.000231  1.044235  0.0
H  H73  1  0.87761336  0.19928021  0.05554150  1  0.119571  -2.2e-05  0.119199  0.127241  -1.9e-05  0.97012  0.0
H  H74  1  0.12235357  0.27090114  0.04804202  1  0.071031  1e-05  0.110071  0.117178  -0.0  0.983535  0.0
C  C75  1  0.76413444  0.13802215  0.53280219  1  0.427261  -0.010219  0.085088  0.171064  -0.010721  4.069744  -0.007
C  C76  1  0.92361675  0.17885358  0.57668870  1  -0.150733  -0.005755  -0.110784  -0.191496  -0.00605  4.006141  -0.003
C  C77  1  0.97247408  0.13508957  0.61106929  1  -0.059744  -0.006427  -0.111258  -0.189226  -0.006798  4.011471  -0.003
C  C78  1  0.84298026  0.06746906  0.58814106  1  0.396489  -0.009371  0.085579  0.165667  -0.009678  4.054537  -0.006
C  C79  1  0.84635023  0.01217100  0.61690401  1  0.032724  -0.005973  -0.005407  -0.085347  -0.00664  3.993634  -0.003
C  C80  1  0.71561860  0.95224118  0.60031790  1  0.388434  -0.008978  0.084396  0.161109  -0.009209  4.061667  -0.006
C  C81  1  0.71733412  0.89072685  0.62420715  1  -0.018493  -0.006499  -0.106089  -0.180602  -0.006946  3.998272  -0.004
C  C82  1  0.57229697  0.84030130  0.59301759  1  -0.114597  -0.005469  -0.108491  -0.183959  -0.005792  3.99956  -0.003
C  C83  1  0.48164311  0.87077746  0.54985216  1  0.418909  -0.010375  0.085638  0.16633  -0.01088  4.07029  -0.007
C  C84  1  0.67298989  0.16662966  0.49183128  1  -0.010274  -0.00613  -0.004972  -0.084483  -0.006806  4.00097  -0.003
C  C85  1  0.74275599  0.24231053  0.49170312  1  -0.047828  -0.002595  0.013314  0.129454  -0.002613  4.014558  -0.002
C  C86  1  0.83167859  0.24070398  0.43807160  1  -0.100764  0.0037  -0.080961  -0.1748  0.001875  3.922289  0.003
C  C87  1  0.88695914  0.31255307  0.43739136  1  0.536256  -0.001462  0.046025  0.096471  -0.002337  3.951347  -0.001
C  C88  1  0.71438290  0.31691559  0.54265053  1  -0.008111  0.003682  -0.087464  -0.191979  0.001896  3.959352  0.003
C  C89  1  0.77390239  0.38577795  0.53769609  1  0.464021  -0.000574  0.045064  0.095163  -0.001604  3.959234  -0.001
C  C90  1  0.99499440  0.01580851  0.66528030  1  -0.006204  -9e-06  0.003606  0.097043  -5e-06  3.98764  0.0
C  C91  1  0.11488934  0.99852614  0.62784350  1  -0.04073  -0.000326  -0.087903  -0.130199  -0.000359  3.959493  0.0
C  C92  1  0.25446198  0.00041679  0.67096195  1  -0.042508  -6.6e-05  -0.078664  -0.107955  -9.4e-05  3.962355  0.0
C  C93  1  0.27857078  0.02164370  0.75376960  1  0.094478  -0.000203  0.004287  0.049905  -0.0002  4.08668  0.0
C  C94  1  0.15910762  0.03867585  0.79197499  1  -0.061331  -2e-05  -0.06856  -0.095113  -1.8e-05  3.939687  0.0
C  C95  1  0.01858646  0.03501333  0.74755570  1  -0.040985  -0.000296  -0.082706  -0.130569  -0.000294  3.955397  0.0
C  C96  1  0.42714067  0.02827846  0.79737456  1  0.814192  2.4e-05  0.181921  0.24904  1.9e-05  4.009309  0.0
C  C97  1  0.23107617  0.46716989  0.60524320  1  0.411705  -0.010272  0.085033  0.171148  -0.010742  4.069959  -0.007
C  C98  1  0.34650986  0.42319667  0.60219993  1  0.016707  -0.005696  -0.111005  -0.191925  -0.006086  4.004765  -0.003
C  C99  1  0.36105142  0.38884638  0.52409054  1  -0.159463  -0.006494  -0.109947  -0.185891  -0.006826  4.008924  -0.003
C  C100  1  0.25464263  0.41183700  0.47939503  1  0.364361  -0.009445  0.085551  0.164891  -0.009712  4.057557  -0.006
C  C101  1  0.22937965  0.38307805  0.39534913  1  0.043936  -0.005973  -0.004808  -0.084843  -0.006654  3.994974  -0.003
C  C102  1  0.11523368  0.39961844  0.35194633  1  0.369191  -0.009001  0.084296  0.161699  -0.009221  4.067498  -0.006
C  C103  1  0.09312434  0.37570255  0.26656354  1  -0.037404  -0.006533  -0.106583  -0.182784  -0.006956  4.001264  -0.004
C  C104  1  0.97929891  0.40688015  0.24727747  1  -0.091901  -0.005445  -0.107675  -0.181061  -0.0058  3.999571  -0.003
C  C105  1  0.93174396  0.45005611  0.32088211  1  0.420413  -0.010403  0.08631  0.167844  -0.010894  4.07008  -0.007
C  C106  1  0.18110755  0.50820275  0.67484770  1  0.007825  -0.006118  -0.005949  -0.087009  -0.006839  4.00254  -0.003
C  C107  1  0.25106409  0.50827977  0.75063081  1  -0.010558  -0.002551  0.014538  0.132224  -0.002565  4.009888  -0.002
C  C108  1  0.39355315  0.56201223  0.80268726  1  -0.01951  0.003655  -0.081874  -0.177486  0.001869  3.923048  0.003
C  C109  1  0.44946699  0.56278980  0.87526782  1  0.52229  -0.001415  0.046791  0.098791  -0.002296  3.948048  -0.001
C  C110  1  0.17185513  0.45726337  0.77426053  1  -0.078026  0.00368  -0.087005  -0.19122  0.001888  3.957224  0.003
C  C111  1  0.23635439  0.46227296  0.84809599  1  0.496066  -0.000626  0.044529  0.093319  -0.001589  3.957843  -0.001
C  C112  1  0.32980005  0.33478404  0.35073194  1  0.022559  -6e-06  0.003297  0.09716  -5e-06  3.987296  0.0
C  C113  1  0.48717189  0.37229541  0.37106381  1  -0.053467  -0.000336  -0.087123  -0.128056  -0.000367  3.956454  0.0
C  C114  1  0.58380831  0.32931891  0.32986110  1  -0.066453  -6.9e-05  -0.079185  -0.10901  -9.7e-05  3.960743  0.0
C  C115  1  0.52523061  0.24654887  0.26816682  1  0.05998  -0.000212  0.004903  0.04993  -0.000209  4.08498  0.0
C  C116  1  0.36756028  0.20824236  0.24685752  1  -0.020133  -1.9e-05  -0.067288  -0.092146  -1.8e-05  3.939568  0.0
C  C117  1  0.27131743  0.25253785  0.28757066  1  -0.002763  -0.000293  -0.084148  -0.134499  -0.000293  3.957528  0.0
C  C118  1  0.63015482  0.20299611  0.23111812  1  0.845789  2.5e-05  0.182504  0.249561  1.8e-05  4.008753  0.0
C  C119  1  0.62608665  0.39485186  0.86202821  1  0.476397  -0.010151  0.085688  0.171949  -0.010696  4.069663  -0.007
C  C120  1  0.74469125  0.39794314  0.82121080  1  -0.14319  -0.005762  -0.110829  -0.190591  -0.006052  4.004138  -0.003
C  C121  1  0.83724192  0.47610074  0.86495881  1  -0.020265  -0.006384  -0.110942  -0.18912  -0.0068  4.012993  -0.003
C  C122  1  0.77532968  0.52075578  0.93253277  1  0.398524  -0.009377  0.084677  0.163818  -0.009681  4.057734  -0.006
C  C123  1  0.83402224  0.60479109  0.98784395  1  -0.027659  -0.005985  -0.004286  -0.082781  -0.006597  3.992999  -0.003
C  C124  1  0.76325648  0.64813362  0.04777916  1  0.444196  -0.008959  0.083433  0.158391  -0.009236  4.06766  -0.006
C  C125  1  0.82654705  0.73349929  0.10930020  1  -0.054657  -0.006534  -0.105939  -0.179351  -0.006952  3.999656  -0.004
C  C126  1  0.73192858  0.75273555  0.15970750  1  -0.071577  -0.005452  -0.108136  -0.185354  -0.005817  4.00002  -0.003
C  C127  1  0.61077709  0.67910710  0.12923393  1  0.396373  -0.010438  0.086406  0.169521  -0.010914  4.067296  -0.007
C  C128  1  0.50645905  0.32522350  0.83339657  1  -0.027819  -0.006199  -0.006027  -0.088523  -0.006862  4.001924  -0.003
C  C129  1  0.50070705  0.24943389  0.75774823  1  -0.013074  -0.002588  0.014256  0.133177  -0.002599  4.010539  -0.002
C  C130  1  0.59101637  0.19730455  0.75938660  1  0.004242  0.003655  -0.082017  -0.177563  0.001884  3.925565  0.003
C  C131  1  0.57438604  0.12475735  0.68758173  1  0.495956  -0.001328  0.04793  0.099964  -0.002243  3.947116  -0.001
C  C132  1  0.39797499  0.22585471  0.68310575  1  -0.071198  0.003637  -0.086635  -0.191924  0.001872  3.957565  0.003
C  C133  1  0.38859502  0.15203054  0.61425614  1  0.459544  -0.000678  0.045032  0.094511  -0.001673  3.958894  -0.001
C  C134  1  0.97904815  0.64948905  0.98419326  1  -0.00833  -1e-05  0.004232  0.097359  -4e-06  3.989012  0.0
C  C135  1  0.11622979  0.62934040  0.00150969  1  0.010768  -0.000338  -0.088416  -0.129984  -0.000374  3.960313  0.0
C  C136  1  0.25393703  0.67062519  0.99970250  1  -0.086764  -7.1e-05  -0.078207  -0.106715  -9.8e-05  3.959921  0.0
C  C137  1  0.25684304  0.73223361  0.97849777  1  0.062352  -0.000195  0.003708  0.048429  -0.000191  4.08833  0.0
C  C138  1  0.12030853  0.75336699  0.96138878  1  -0.067955  -2.1e-05  -0.068982  -0.095186  -1.9e-05  3.941487  0.0
C  C139  1  0.98344778  0.71256943  0.96497711  1  -0.008129  -0.000281  -0.082777  -0.130983  -0.00028  3.957653  0.0
C  C140  1  0.39884273  0.76929244  0.97198981  1  0.830101  2.5e-05  0.181942  0.249359  1.9e-05  4.008747  0.0
C  C141  1  0.23586471  0.86197539  0.46719653  1  0.42738  -0.010219  0.085109  0.171069  -0.010721  4.069571  -0.007
C  C142  1  0.07638190  0.82114518  0.42331107  1  -0.150643  -0.005755  -0.110809  -0.191566  -0.006049  4.006242  -0.003
C  C143  1  0.02752617  0.86490797  0.38892952  1  -0.060078  -0.006427  -0.111226  -0.189117  -0.006798  4.011497  -0.003
C  C144  1  0.15701938  0.93252726  0.41185451  1  0.396513  -0.009371  0.085534  0.165567  -0.009678  4.054628  -0.006
C  C145  1  0.15365224  0.98782654  0.38309287  1  0.031927  -0.005974  -0.005454  -0.085454  -0.006642  3.993676  -0.003
C  C146  1  0.28438498  0.04775636  0.39967959  1  0.389292  -0.008977  0.084454  0.161218  -0.009208  4.061737  -0.006
C  C147  1  0.28266785  0.10927192  0.37579288  1  -0.018512  -0.006499  -0.106098  -0.18063  -0.006946  3.998335  -0.004
C  C148  1  0.42770370  0.15969931  0.40698476  1  -0.114544  -0.005468  -0.108453  -0.183941  -0.005791  3.999612  -0.003
C  C149  1  0.51835665  0.12922130  0.45014822  1  0.418955  -0.010374  0.085726  0.166469  -0.01088  4.070423  -0.007
C  C150  1  0.32700845  0.83336849  0.50816871  1  -0.010296  -0.00613  -0.004914  -0.084324  -0.006806  4.000755  -0.003
C  C151  1  0.25724518  0.75768885  0.50829766  1  -0.047672  -0.002595  0.013326  0.129401  -0.002613  4.014596  -0.002
C  C152  1  0.16831925  0.75929540  0.56192840  1  -0.100724  0.0037  -0.081016  -0.174875  0.001875  3.922304  0.003
C  C153  1  0.11303981  0.68744631  0.56260872  1  0.536252  -0.001462  0.046085  0.096592  -0.002337  3.951321  -0.001
C  C154  1  0.28562048  0.68308379  0.45735199  1  -0.008142  0.003682  -0.087445  -0.191967  0.001896  3.959327  0.003
C  C155  1  0.22610130  0.61422204  0.46230674  1  0.464009  -0.000574  0.045009  0.095099  -0.001604  3.959175  -0.001
C  C156  1  0.00500524  0.98418780  0.33471580  1  -0.006113  -9e-06  0.003547  0.097017  -5e-06  3.987589  0.0
C  C157  1  0.88511091  0.00147140  0.37215269  1  -0.040681  -0.000327  -0.087909  -0.13031  -0.00036  3.959443  0.0
C  C158  1  0.74553736  0.99957892  0.32903332  1  -0.042888  -6.6e-05  -0.078662  -0.108005  -9.4e-05  3.962529  0.0
C  C159  1  0.72143039  0.97835568  0.24622803  1  0.094507  -0.000203  0.004259  0.049924  -0.0002  4.086755  0.0
C  C160  1  0.84089627  0.96132230  0.20802072  1  -0.061326  -2e-05  -0.068541  -0.095084  -1.8e-05  3.93947  0.0
C  C161  1  0.98141410  0.96498482  0.25244027  1  -0.041164  -0.000296  -0.082665  -0.13056  -0.000293  3.955431  0.0
C  C162  1  0.57286099  0.97171969  0.20262359  1  0.814339  2.5e-05  0.181902  0.249013  1.9e-05  4.009301  0.0
C  C163  1  0.76892574  0.53283317  0.39475828  1  0.41157  -0.010272  0.085025  0.171108  -0.010741  4.070114  -0.007
C  C164  1  0.65349426  0.57680639  0.39780173  1  0.01687  -0.005695  -0.111026  -0.191933  -0.006085  4.004652  -0.003
C  C165  1  0.63895381  0.61115668  0.47591172  1  -0.159514  -0.006494  -0.109921  -0.185864  -0.006826  4.008821  -0.003
C  C166  1  0.74536370  0.58816606  0.52060732  1  0.363632  -0.009445  0.085537  0.16492  -0.009712  4.057613  -0.006
C  C167  1  0.77062558  0.61692501  0.60465313  1  0.044791  -0.005973  -0.004742  -0.084822  -0.006654  3.995024  -0.003
C  C168  1  0.88476791  0.60038400  0.64805642  1  0.369216  -0.009001  0.084201  0.161541  -0.009221  4.067713  -0.006
C  C169  1  0.90687412  0.62429806  0.73343864  1  -0.03745  -0.006533  -0.106591  -0.182929  -0.006956  4.001231  -0.004
C  C170  1  0.02069955  0.59312046  0.75272524  1  -0.091889  -0.005445  -0.107693  -0.181075  -0.0058  3.999643  -0.003
C  C171  1  0.06825561  0.54994449  0.67912015  1  0.420414  -0.010404  0.0863  0.167876  -0.010894  4.070033  -0.007
C  C172  1  0.81889060  0.49179724  0.32515313  1  0.007812  -0.006119  -0.005987  -0.086986  -0.00684  4.002623  -0.003
C  C173  1  0.74893578  0.49172145  0.24937019  1  -0.010513  -0.002552  0.014568  0.132206  -0.002566  4.009941  -0.002
C  C174  1  0.60644593  0.43798960  0.19731449  1  -0.019516  0.003655  -0.081866  -0.177443  0.001869  3.923029  0.003
C  C175  1  0.55053098  0.43721203  0.12473384  1  0.522302  -0.001415  0.046741  0.098769  -0.002296  3.947955  -0.001
C  C176  1  0.82814395  0.54273846  0.22574069  1  -0.078055  0.00368  -0.087033  -0.19125  0.001887  3.957202  0.003
C  C177  1  0.76364327  0.53772826  0.15190484  1  0.494998  -0.000628  0.044525  0.09327  -0.001589  3.957875  -0.001
C  C178  1  0.67020407  0.66521902  0.64926971  1  0.022469  -6e-06  0.00327  0.097181  -5e-06  3.98721  0.0
C  C179  1  0.51283352  0.62770581  0.62893762  1  -0.053492  -0.000336  -0.087199  -0.128125  -0.000367  3.956441  0.0
C  C180  1  0.41619649  0.67068108  0.67013971  1  -0.066454  -7e-05  -0.079133  -0.108877  -9.7e-05  3.960575  0.0
C  C181  1  0.47477308  0.75345112  0.73183443  1  0.059973  -0.000212  0.004903  0.049894  -0.000209  4.084905  0.0
C  C182  1  0.63244322  0.79175948  0.75314457  1  -0.020204  -1.8e-05  -0.06736  -0.092214  -1.8e-05  3.939463  0.0
C  C183  1  0.72868779  0.74746520  0.71243212  1  -0.002764  -0.000294  -0.084107  -0.134491  -0.000293  3.957537  0.0
C  C184  1  0.36984715  0.79700266  0.76888087  1  0.845855  2.5e-05  0.182591  0.249699  1.8e-05  4.008482  0.0
C  C185  1  0.37391262  0.60514813  0.13797061  1  0.476042  -0.01015  0.085609  0.171876  -0.010695  4.069741  -0.007
C  C186  1  0.25530863  0.60205807  0.17878863  1  -0.143237  -0.005762  -0.11084  -0.190624  -0.006052  4.004145  -0.003
C  C187  1  0.16276047  0.52390109  0.13504267  1  -0.020128  -0.006383  -0.110909  -0.189086  -0.006799  4.012932  -0.003
C  C188  1  0.22467020  0.47924544  0.06746718  1  0.398588  -0.009378  0.084635  0.163741  -0.009682  4.057747  -0.006
C  C189  1  0.16597542  0.39521013  0.01215531  1  -0.027728  -0.005985  -0.00425  -0.082728  -0.006597  3.992909  -0.003
C  C190  1  0.23674229  0.35186760  0.95222123  1  0.449744  -0.008949  0.083471  0.158385  -0.009235  4.06763  -0.006
C  C191  1  0.17345283  0.26650193  0.89070027  1  -0.0602  -0.006544  -0.105982  -0.179438  -0.006952  3.999608  -0.004
C  C192  1  0.26807320  0.24726506  0.84029337  1  -0.071556  -0.005452  -0.10812  -0.185303  -0.005817  3.999984  -0.003
C  C193  1  0.38922278  0.32089411  0.87076811  1  0.396418  -0.010438  0.086408  0.169519  -0.010914  4.067184  -0.007
C  C194  1  0.49353800  0.67477649  0.16660260  1  -0.027528  -0.006199  -0.00598  -0.088379  -0.006863  4.002028  -0.003
C  C195  1  0.49929080  0.75056549  0.24224915  1  -0.012742  -0.002588  0.014277  0.133097  -0.0026  4.010598  -0.002
C  C196  1  0.40898228  0.80269421  0.24061003  1  0.003849  0.003656  -0.082056  -0.177558  0.001884  3.925463  0.003
C  C197  1  0.42561513  0.87524203  0.31241591  1  0.496154  -0.001329  0.047882  0.099901  -0.002243  3.947155  -0.001
C  C198  1  0.60202255  0.77414405  0.31689184  1  -0.071155  0.003637  -0.086674  -0.191916  0.001872  3.957732  0.003
C  C199  1  0.61140050  0.84796639  0.38574045  1  0.459846  -0.00068  0.045036  0.094423  -0.001673  3.959204  -0.001
C  C200  1  0.02094982  0.35051278  0.01580630  1  -0.0083  -1e-05  0.004224  0.097464  -3e-06  3.988854  0.0
C  C201  1  0.88376677  0.37066082  0.99849105  1  0.010293  -0.000338  -0.088333  -0.129939  -0.000374  3.96035  0.0
C  C202  1  0.74605700  0.32937542  0.00029881  1  -0.086576  -7.1e-05  -0.078241  -0.106806  -9.8e-05  3.959979  0.0
C  C203  1  0.74314927  0.26776577  0.02150232  1  0.062373  -0.000195  0.003805  0.048755  -0.000191  4.088148  0.0
C  C204  1  0.87968772  0.24663362  0.03861061  1  -0.067976  -2.1e-05  -0.069016  -0.095317  -1.9e-05  3.941614  0.0
C  C205  1  0.01654847  0.28743117  0.03502175  1  -0.008078  -0.000282  -0.082828  -0.131157  -0.00028  3.957745  0.0
C  C206  1  0.60115168  0.23070449  0.02800774  1  0.829778  2.5e-05  0.181586  0.248863  1.9e-05  4.00882  0.0
N  N207  1  0.71571818  0.06932891  0.53933669  1  -1.126872  -0.002942  -0.346228  -0.309485  -0.002883  3.459452  0.0
N  N208  1  0.56934953  0.94018863  0.55547477  1  -1.143604  -0.001889  -0.350479  -0.317978  -0.002212  3.477236  0.001
N  N209  1  0.85926715  0.38413060  0.48613555  1  -1.197919  0.071577  -0.309471  -0.216561  0.038315  3.52887  0.062
N  N210  1  0.55238775  0.03509727  0.83002284  1  -1.137228  -6.3e-05  -0.322599  -0.381623  -9e-05  2.699532  0.0
N  N211  1  0.17622639  0.46067426  0.53003353  1  -1.129807  -0.003048  -0.347279  -0.309633  -0.002966  3.46148  0.0
N  N212  1  0.01381366  0.44445768  0.38469478  1  -1.159293  -0.00175  -0.350564  -0.318781  -0.002089  3.479955  0.001
N  N213  1  0.37313007  0.51397851  0.89807603  1  -1.205661  0.071595  -0.310371  -0.217643  0.038294  3.526881  0.062
N  N214  1  0.72256446  0.17027209  0.20518006  1  -1.146325  -6.6e-05  -0.323892  -0.382868  -9.3e-05  2.700931  0.0
N  N215  1  0.64626278  0.47005888  0.93067817  1  -1.128528  -0.003046  -0.34542  -0.30781  -0.002965  3.459995  0.0
N  N216  1  0.62905888  0.61533379  0.05982259  1  -1.151476  -0.001763  -0.350475  -0.317615  -0.002109  3.476267  0.001
N  N217  1  0.47531611  0.10200066  0.61595059  1  -1.195203  0.071483  -0.310803  -0.218635  0.038192  3.527867  0.062
N  N218  1  0.51728771  0.79520542  0.96526495  1  -1.143432  -5.8e-05  -0.322572  -0.381661  -8.6e-05  2.698694  0.0
N  N219  1  0.28428066  0.93066802  0.46066067  1  -1.126792  -0.002942  -0.346201  -0.309408  -0.002883  3.459229  0.0
N  N220  1  0.43065214  0.05980952  0.44452339  1  -1.143766  -0.001888  -0.350497  -0.318007  -0.002212  3.477373  0.001
N  N221  1  0.14073482  0.61586816  0.51386606  1  -1.19798  0.071581  -0.309469  -0.216567  0.038317  3.528883  0.062
N  N222  1  0.44761231  0.96490211  0.16997523  1  -1.137206  -6.3e-05  -0.322575  -0.381621  -9.1e-05  2.699452  0.0
N  N223  1  0.82377601  0.53932757  0.46996690  1  -1.129798  -0.003048  -0.347253  -0.30961  -0.002967  3.461529  0.0
N  N224  1  0.98618763  0.55554415  0.61530766  1  -1.159212  -0.001749  -0.35051  -0.318656  -0.002089  3.479867  0.001
N  N225  1  0.62686649  0.48602271  0.10192524  1  -1.205657  0.071593  -0.310341  -0.217619  0.038293  3.526846  0.062
N  N226  1  0.27743610  0.82972607  0.79481906  1  -1.146335  -6.6e-05  -0.323955  -0.382971  -9.3e-05  2.700728  0.0
N  N227  1  0.35373599  0.52994234  0.06932118  1  -1.128558  -0.003046  -0.345401  -0.307795  -0.002966  3.460017  0.0
N  N228  1  0.37094019  0.38466804  0.94017864  1  -1.151549  -0.001763  -0.350509  -0.317615  -0.002109  3.476312  0.001
N  N229  1  0.52468224  0.89799750  0.38404678  1  -1.195449  0.071488  -0.310684  -0.218447  0.038193  3.527917  0.062
N  N230  1  0.48270203  0.20478660  0.03472998  1  -1.143175  -5.8e-05  -0.322241  -0.381288  -8.6e-05  2.698668  0.0
