# generated using pymatgen
data_NiH30C28(NO5)2
_symmetry_space_group_name_H-M   'P 1'
_cell_length_a   10.65165053
_cell_length_b   12.24510856
_cell_length_c   23.50058814
_cell_angle_alpha   89.99419810
_cell_angle_beta   89.99650267
_cell_angle_gamma   90.00199402
_symmetry_Int_Tables_number   1
_chemical_formula_structural   NiH30C28(NO5)2
_chemical_formula_sum   'Ni4 H120 C112 N8 O40'
_cell_volume   3065.19619047
_cell_formula_units_Z   4
loop_
 _symmetry_equiv_pos_site_id
 _symmetry_equiv_pos_as_xyz
  1  'x, y, z'
loop_
 _atom_site_type_symbol
 _atom_site_label
 _atom_site_symmetry_multiplicity
 _atom_site_fract_x
 _atom_site_fract_y
 _atom_site_fract_z
 _atom_site_occupancy
 _atom_site_pbe_bader_charge
 _atom_site_pbe_bader_spin_density
 _atom_site_pbe_cm5_charge
 _atom_site_pbe_ddec_charge
 _atom_site_pbe_ddec_spin_density
 _atom_site_pbe_ddec_sum_bond_order
 _atom_site_pbe_magmom
Ni  Ni0  1  0.79431338  0.32933820  0.72675269  1  1.177696  -0.00323  0.591  0.861728  -0.006373  2.324511  -0.004
Ni  Ni1  1  0.29439677  0.17067960  0.77327134  1  1.177799  0.003263  0.5911  0.862197  0.010361  2.323828  0.004
Ni  Ni2  1  0.20580343  0.67064092  0.27322459  1  1.177017  -0.003094  0.590811  0.861256  -0.006074  2.324419  -0.004
Ni  Ni3  1  0.70570502  0.82936677  0.22674406  1  1.177604  -0.003139  0.590885  0.861458  -0.00616  2.324465  -0.004
H  H4  1  0.93572573  0.55231158  0.53485204  1  0.083891  3.7e-05  0.105037  0.106318  8e-06  1.022328  0.0
H  H5  1  0.43570042  0.94764921  0.96515968  1  0.084412  -3.6e-05  0.105093  0.10663  -8e-06  1.022262  0.0
H  H6  1  0.06427561  0.44768770  0.46514319  1  0.084106  3.6e-05  0.105032  0.106355  7e-06  1.022298  0.0
H  H7  1  0.56432156  0.05233829  0.03486018  1  0.084933  3.4e-05  0.105105  0.106576  8e-06  1.022207  0.0
H  H8  1  0.94245402  0.65186372  0.44242897  1  0.119073  3e-05  0.100018  0.110533  2.3e-05  1.062171  0.0
H  H9  1  0.44243740  0.84809593  0.05756995  1  0.120031  2.9e-05  0.099937  0.110322  2.3e-05  1.061847  0.0
H  H10  1  0.05753886  0.34810672  0.55758445  1  0.119522  2.8e-05  0.100026  0.110493  2.4e-05  1.062149  0.0
H  H11  1  0.55755737  0.15195086  0.94241482  1  0.120316  -3e-05  0.100055  0.110416  -2.6e-05  1.061889  0.0
H  H12  1  0.85777287  0.79442975  0.37864833  1  0.017159  0.000232  0.094473  0.091598  0.000177  1.032923  0.0
H  H13  1  0.35779831  0.70549537  0.12136047  1  0.01882  0.000203  0.094485  0.091618  0.000159  1.033058  0.0
H  H14  1  0.14229043  0.20557177  0.62136180  1  0.018389  0.00013  0.094383  0.091584  0.000138  1.032812  0.0
H  H15  1  0.64225466  0.29452096  0.87864163  1  0.018702  -0.000101  0.094472  0.091656  -0.000118  1.032726  0.0
H  H16  1  0.67655325  0.90886263  0.40981700  1  0.054523  -7.2e-05  0.091263  0.088783  -8.8e-05  1.060626  0.0
H  H17  1  0.17656612  0.59108288  0.09021309  1  0.053312  -7.3e-05  0.091189  0.088553  -9e-05  1.060754  0.0
H  H18  1  0.32345466  0.09109349  0.59016913  1  0.054472  7.7e-05  0.091253  0.088665  9.2e-05  1.060724  0.0
H  H19  1  0.82344742  0.40896008  0.90981167  1  0.053758  -7.8e-05  0.091185  0.088518  -9.2e-05  1.060866  0.0
H  H20  1  0.57615155  0.87691922  0.50321973  1  0.063459  2e-06  0.095273  0.094335  8e-06  1.038207  0.0
H  H21  1  0.07611281  0.62304818  0.99683094  1  0.063138  2e-06  0.095162  0.094099  6e-06  1.038264  0.0
H  H22  1  0.42376341  0.12300048  0.49674201  1  0.064055  1e-06  0.095206  0.094356  9e-06  1.038498  0.0
H  H23  1  0.92382468  0.37703285  0.00321651  1  0.063823  -3e-06  0.095279  0.094247  -5e-06  1.038202  0.0
H  H24  1  0.48564014  0.62306540  0.52015054  1  0.067812  5e-06  0.096467  0.093231  4e-06  1.043884  0.0
H  H25  1  0.98560623  0.87688040  0.97987123  1  0.068491  1.3e-05  0.096399  0.09321  1.3e-05  1.043942  0.0
H  H26  1  0.51432928  0.37694361  0.47984899  1  0.067628  -5e-06  0.09634  0.093025  -2e-06  1.043871  0.0
H  H27  1  0.01433596  0.12310501  0.02012224  1  0.067957  1.3e-05  0.096412  0.093149  1.1e-05  1.043915  0.0
H  H28  1  0.28206434  0.57595749  0.47584279  1  0.058908  1e-05  0.095233  0.094162  3e-06  1.033129  0.0
H  H29  1  0.78201013  0.92399806  0.02416270  1  0.058891  -0.0  0.095268  0.094253  -5e-06  1.03316  0.0
H  H30  1  0.71792854  0.42401493  0.52414510  1  0.059508  -8e-06  0.095346  0.094281  -1e-05  1.033167  0.0
H  H31  1  0.21794333  0.07600595  0.97584404  1  0.059072  -3e-06  0.095292  0.0942  2e-06  1.033228  0.0
H  H32  1  0.08801853  0.67621481  0.50300959  1  0.086426  -3e-06  0.095498  0.091589  -9e-06  1.062087  0.0
H  H33  1  0.58795578  0.82375107  0.99699989  1  0.085907  -1e-06  0.095503  0.091802  -4e-06  1.062013  0.0
H  H34  1  0.91196497  0.32374276  0.49698889  1  0.086775  -3e-06  0.095526  0.091593  -5e-06  1.061893  0.0
H  H35  1  0.41198735  0.17628515  0.00298101  1  0.087037  2e-06  0.095536  0.091777  7e-06  1.061982  0.0
H  H36  1  0.09564151  0.81997654  0.57713280  1  0.057652  -8e-06  0.100335  0.101567  -6e-06  0.999402  0.0
H  H37  1  0.59560086  0.68001504  0.92286551  1  0.057302  7e-06  0.100388  0.101667  6e-06  0.999352  0.0
H  H38  1  0.90432415  0.17999588  0.42285553  1  0.057442  -6e-06  0.100307  0.101597  -1e-06  0.999351  0.0
H  H39  1  0.40433851  0.32001859  0.07712559  1  0.057048  -5e-06  0.100311  0.101592  -1e-06  0.999355  0.0
H  H40  1  0.22113440  0.93454489  0.64389308  1  0.075188  0.000109  0.104029  0.105733  9.3e-05  1.005497  0.0
H  H41  1  0.72111227  0.56550405  0.85606919  1  0.071379  -0.000111  0.103976  0.105619  -9.1e-05  1.005451  0.0
H  H42  1  0.77880216  0.06547582  0.35608734  1  0.070679  -0.000112  0.104086  0.105764  -9.2e-05  1.005461  0.0
H  H43  1  0.27886654  0.43443626  0.14393731  1  0.072851  -0.000111  0.103992  0.105745  -9.2e-05  1.005301  0.0
H  H44  1  0.89592894  0.15174889  0.65561658  1  0.071809  -0.003223  0.126982  0.053002  -0.00201  1.005607  -0.002
H  H45  1  0.39596475  0.34834630  0.84440577  1  0.072225  0.003224  0.127051  0.052912  0.002024  1.005399  0.002
H  H46  1  0.10415502  0.84812454  0.34432627  1  0.072897  -0.002835  0.126932  0.053006  -0.001579  1.005968  -0.002
H  H47  1  0.60407695  0.65177792  0.15564822  1  0.071436  -0.002831  0.126905  0.053102  -0.001575  1.005603  -0.002
H  H48  1  0.58860177  0.16294435  0.59133587  1  0.078286  -0.00049  0.108948  0.124916  -0.000452  1.017786  0.0
H  H49  1  0.08855808  0.33711342  0.90871615  1  0.077436  0.000488  0.109017  0.12504  0.000452  1.017776  0.0
H  H50  1  0.41129067  0.83690250  0.40852134  1  0.079785  -0.000447  0.109021  0.124941  -0.000402  1.018476  0.0
H  H51  1  0.91134656  0.66294605  0.09135462  1  0.078969  -0.000447  0.10891  0.124825  -0.000401  1.017984  0.0
H  H52  1  0.60497450  0.02387164  0.56891849  1  0.050098  3.9e-05  0.102369  0.113466  5e-05  1.023465  0.0
H  H53  1  0.10498965  0.47620311  0.93112208  1  0.049553  -3.9e-05  0.102384  0.113431  -5e-05  1.023325  0.0
H  H54  1  0.39513949  0.97595291  0.43101523  1  0.051165  3.3e-05  0.102521  0.113664  4.9e-05  1.023416  0.0
H  H55  1  0.89502201  0.52388925  0.06893223  1  0.050012  3.3e-05  0.102264  0.113325  5e-05  1.023757  0.0
H  H56  1  0.65733498  0.13253516  0.52372559  1  0.061427  5.1e-05  0.100325  0.112272  5.8e-05  1.037394  0.0
H  H57  1  0.15736318  0.36754201  0.97631311  1  0.061096  -5.3e-05  0.100307  0.112315  -5.9e-05  1.037442  0.0
H  H58  1  0.34274710  0.86724250  0.47617434  1  0.062671  4.7e-05  0.100395  0.112395  5.4e-05  1.037371  0.0
H  H59  1  0.84264754  0.63255754  0.02375271  1  0.062155  4.6e-05  0.100303  0.112343  5.3e-05  1.037722  0.0
H  H60  1  0.94936647  0.02933516  0.59438911  1  0.055476  -0.000238  0.106854  0.113214  -0.000162  1.005298  0.0
H  H61  1  0.44933414  0.47075353  0.90562833  1  0.056158  0.000237  0.106866  0.113343  0.000162  1.005581  0.0
H  H62  1  0.05057948  0.97052220  0.40553410  1  0.055423  -0.00013  0.106949  0.113328  -7.1e-05  1.005435  0.0
H  H63  1  0.55059397  0.52936569  0.09443288  1  0.054542  -0.000129  0.10685  0.1132  -7e-05  1.005431  0.0
H  H64  1  0.87121133  0.03163054  0.52714294  1  0.065793  -5.1e-05  0.103662  0.118046  -2.6e-05  0.992355  0.0
H  H65  1  0.37114825  0.46843460  0.97287232  1  0.065699  4e-05  0.103486  0.117937  1.5e-05  0.992301  0.0
H  H66  1  0.12868392  0.96826644  0.47280935  1  0.067624  -4.7e-05  0.103609  0.117847  -2.5e-05  0.992174  0.0
H  H67  1  0.62870287  0.53165943  0.02717943  1  0.066966  -4e-05  0.103587  0.117974  -2.2e-05  0.992166  0.0
H  H68  1  0.82191976  0.93702984  0.58087054  1  0.093341  -3.9e-05  0.106108  0.128031  -2.4e-05  1.004202  0.0
H  H69  1  0.32185435  0.56302707  0.91914811  1  0.093147  3.9e-05  0.1062  0.127993  2.4e-05  1.004374  0.0
H  H70  1  0.17795296  0.06293726  0.41908968  1  0.093396  -4e-05  0.106023  0.128103  -2.4e-05  1.004313  0.0
H  H71  1  0.67798175  0.43702228  0.08088731  1  0.093077  -4e-05  0.106116  0.128106  -2.4e-05  1.004237  0.0
H  H72  1  0.94908409  0.23936395  0.82081237  1  0.099356  0.00198  0.131326  0.063644  0.001185  0.985807  0.001
H  H73  1  0.44916120  0.26070202  0.67919435  1  0.098905  -0.001986  0.131267  0.063557  -0.001182  0.985983  -0.001
H  H74  1  0.05098954  0.76055610  0.17918341  1  0.098777  0.001911  0.131362  0.063556  0.001088  0.98611  0.001
H  H75  1  0.55095655  0.73936574  0.32080965  1  0.100279  0.00192  0.131273  0.063565  0.001094  0.985886  0.001
H  H76  1  0.72154315  0.02178764  0.80741539  1  0.110483  0.0002  0.114452  0.141687  0.000192  0.992395  0.0
H  H77  1  0.22151634  0.47828751  0.69255556  1  0.110465  -0.0002  0.114497  0.141769  -0.00019  0.992415  0.0
H  H78  1  0.27837087  0.97808984  0.19264619  1  0.113871  0.00035  0.114603  0.142101  0.000315  0.992727  0.0
H  H79  1  0.77846435  0.52180726  0.30738514  1  0.109853  0.000353  0.114688  0.142128  0.000316  0.992408  0.0
H  H80  1  0.71613964  0.01342441  0.88344213  1  0.086588  -7.1e-05  0.104007  0.121241  -7.2e-05  1.001255  0.0
H  H81  1  0.21619945  0.48658611  0.61652532  1  0.085835  7.1e-05  0.104141  0.121249  7.2e-05  1.001342  0.0
H  H82  1  0.28387296  0.98653795  0.11662317  1  0.085231  -4e-06  0.104062  0.121428  -9e-06  1.000945  0.0
H  H83  1  0.78386949  0.51342638  0.38340145  1  0.086299  -4e-06  0.104062  0.121356  -9e-06  1.001274  0.0
H  H84  1  0.82491266  0.93059747  0.84478128  1  0.094054  -6.4e-05  0.109877  0.130248  -5.4e-05  0.981371  0.0
H  H85  1  0.32494220  0.56944394  0.65518403  1  0.092995  6.5e-05  0.109803  0.130123  5.4e-05  0.981532  0.0
H  H86  1  0.17509243  0.06938772  0.15528709  1  0.094344  2.3e-05  0.109823  0.130101  -1.4e-05  0.981467  0.0
H  H87  1  0.67511265  0.43059866  0.34475008  1  0.093736  2.4e-05  0.109735  0.130073  -1.4e-05  0.981426  0.0
H  H88  1  0.03338111  0.15400566  0.89042461  1  0.079009  0.000157  0.109504  0.126113  0.000137  1.016806  0.0
H  H89  1  0.53335360  0.34604108  0.60953827  1  0.078704  -0.000159  0.10931  0.125975  -0.000138  1.017169  0.0
H  H90  1  0.96654230  0.84602270  0.10959329  1  0.078316  2.6e-05  0.10937  0.126053  -2.5e-05  1.016821  0.0
H  H91  1  0.46661582  0.65398005  0.39041236  1  0.079318  2.8e-05  0.109389  0.12607  -2.2e-05  1.016853  0.0
H  H92  1  0.00488551  0.01111119  0.89729954  1  0.078963  2.6e-05  0.103451  0.119613  2e-05  1.028476  0.0
H  H93  1  0.50485428  0.48891081  0.60267723  1  0.079655  -2.6e-05  0.103538  0.119549  -2e-05  1.028502  0.0
H  H94  1  0.99508485  0.98890824  0.10271407  1  0.079207  2.3e-05  0.103469  0.119512  7e-06  1.028618  0.0
H  H95  1  0.49513861  0.51109616  0.39729292  1  0.07879  2.2e-05  0.103484  0.119546  6e-06  1.028655  0.0
H  H96  1  0.91087298  0.10615200  0.93665026  1  0.060669  3.8e-05  0.098584  0.110547  2.3e-05  1.023004  0.0
H  H97  1  0.41082923  0.39388916  0.56335445  1  0.059338  -3.9e-05  0.098621  0.11057  -2.3e-05  1.022988  0.0
H  H98  1  0.08905888  0.89384046  0.06336495  1  0.060795  4.1e-05  0.098574  0.110402  2.3e-05  1.023023  0.0
H  H99  1  0.58912235  0.60616658  0.43663290  1  0.059122  4.2e-05  0.098531  0.110426  2.3e-05  1.023074  0.0
H  H100  1  0.67516752  0.55481654  0.68205676  1  0.654712  0.000113  0.30602  0.358634  0.00016  0.965841  0.0
H  H101  1  0.17507932  0.94518194  0.81796958  1  0.653255  -0.000114  0.30612  0.358526  -0.00016  0.966052  0.0
H  H102  1  0.32489578  0.44514026  0.31793916  1  0.655098  0.000115  0.306111  0.35857  0.000164  0.966085  0.0
H  H103  1  0.82497459  0.05492234  0.18205030  1  0.652766  0.000116  0.305809  0.358026  0.000165  0.966347  0.0
H  H104  1  0.62413679  0.95126930  0.68975531  1  0.639595  1e-05  0.301394  0.348218  4e-06  0.982984  0.0
H  H105  1  0.12412022  0.54872731  0.81023712  1  0.639417  -1e-05  0.301469  0.348235  -4e-06  0.982679  0.0
H  H106  1  0.37577536  0.04875956  0.31022642  1  0.639857  -9e-06  0.301408  0.348247  3e-06  0.982671  0.0
H  H107  1  0.87583699  0.45124697  0.18979376  1  0.639448  -9e-06  0.301547  0.348327  3e-06  0.982629  0.0
H  H108  1  0.98460762  0.35522042  0.66787244  1  0.642437  6.4e-05  0.288004  0.372186  0.000345  0.979738  0.0
H  H109  1  0.48475903  0.14477694  0.83215261  1  0.641959  -6.5e-05  0.288142  0.372351  -0.00034  0.979482  0.0
H  H110  1  0.01567818  0.64478879  0.33211347  1  0.641902  6.4e-05  0.287886  0.371745  0.000352  0.980439  0.0
H  H111  1  0.51554460  0.85526194  0.16787212  1  0.641627  6.5e-05  0.288113  0.372279  0.000349  0.979618  0.0
H  H112  1  0.02313558  0.36938541  0.73368917  1  0.633168  -0.000236  0.291151  0.37889  -5.2e-05  0.967535  0.0
H  H113  1  0.52331214  0.13065353  0.76634248  1  0.632534  0.000235  0.291286  0.379314  5.6e-05  0.966946  0.0
H  H114  1  0.97714272  0.63063954  0.26628062  1  0.634308  -0.000231  0.291066  0.378946  -4e-05  0.967493  0.0
H  H115  1  0.47694925  0.86938285  0.23368608  1  0.633485  -0.00023  0.291236  0.379171  -4e-05  0.967239  0.0
H  H116  1  0.64320091  0.41133816  0.78897311  1  0.596736  0.000154  0.302606  0.381974  0.000402  0.934824  0.0
H  H117  1  0.14332509  0.08866774  0.71105125  1  0.594217  -0.000154  0.302404  0.381841  -0.000397  0.935133  0.0
H  H118  1  0.35664645  0.58854406  0.21109998  1  0.605781  0.000119  0.30268  0.381923  0.000374  0.935022  0.0
H  H119  1  0.85658706  0.91138539  0.28894759  1  0.602683  0.000122  0.30253  0.381866  0.000375  0.935194  0.0
H  H120  1  0.56770609  0.30178624  0.77663739  1  0.654242  -0.000136  0.286298  0.387846  5.6e-05  0.954283  0.0
H  H121  1  0.06769591  0.19816277  0.72338034  1  0.651055  0.000141  0.286224  0.387653  -5e-05  0.954443  0.0
H  H122  1  0.43221169  0.69814294  0.22334822  1  0.651135  0.000124  0.28635  0.387776  0.000294  0.954171  0.0
H  H123  1  0.93224722  0.80185865  0.27666688  1  0.654231  0.000128  0.286285  0.387732  0.000296  0.954249  0.0
C  C124  1  0.84534114  0.48611577  0.63383144  1  1.542055  0.001425  0.215573  0.589871  0.001952  4.163219  0.001
C  C125  1  0.34533818  0.01387102  0.86618340  1  1.541623  -0.001418  0.215763  0.589975  -0.001932  4.162307  -0.001
C  C126  1  0.15467897  0.51381518  0.36614396  1  1.540603  0.001432  0.215778  0.590323  0.00195  4.163767  0.001
C  C127  1  0.65471854  0.98621584  0.13385599  1  1.539632  0.001424  0.215918  0.589834  0.001947  4.164488  0.001
C  C128  1  0.79791702  0.57894422  0.59884530  1  -0.023757  0.003194  -0.035241  -0.176214  0.002812  4.016435  0.002
C  C129  1  0.29787580  0.92104250  0.90117630  1  -0.02245  -0.003189  -0.035195  -0.175764  -0.002789  4.01577  -0.002
C  C130  1  0.20208338  0.42102486  0.40114769  1  -0.022811  0.003172  -0.035325  -0.176383  0.002788  4.016508  0.002
C  C131  1  0.70211427  0.07901603  0.09884511  1  -0.021395  0.003193  -0.035422  -0.175765  0.002806  4.016671  0.002
C  C132  1  0.85503134  0.60159520  0.54727013  1  -0.005311  0.000562  -0.07931  -0.120845  0.000484  3.992095  0.0
C  C133  1  0.35499448  0.89836962  0.95274683  1  -0.004873  -0.000556  -0.079542  -0.12183  -0.000479  3.992435  0.0
C  C134  1  0.14497000  0.39839997  0.45272721  1  -0.005203  0.000381  -0.079179  -0.120743  0.000335  3.991751  0.0
C  C135  1  0.64501343  0.10164812  0.04727060  1  -0.005181  0.000409  -0.079438  -0.121708  0.000363  3.992351  0.0
C  C136  1  0.80975045  0.68374059  0.51054607  1  -0.07595  0.000326  -0.021086  0.04694  0.000263  4.043738  0.0
C  C137  1  0.30969222  0.81622692  0.98947301  1  -0.077672  -0.000309  -0.020923  0.047538  -0.000257  4.043397  0.0
C  C138  1  0.19023024  0.31623584  0.48944738  1  -0.076333  0.000303  -0.021128  0.046855  0.000243  4.043429  0.0
C  C139  1  0.69026687  0.18380076  0.01053509  1  -0.076038  0.000315  -0.020945  0.047365  0.000262  4.043047  0.0
C  C140  1  0.86447746  0.70304645  0.45634265  1  -0.052471  9.1e-05  -0.093618  -0.133718  8.6e-05  3.978239  0.0
C  C141  1  0.36445691  0.79691237  0.04366439  1  -0.052168  -3e-05  -0.093718  -0.133599  -2e-05  3.977935  0.0
C  C142  1  0.13552200  0.29694294  0.54365808  1  -0.052662  4.5e-05  -0.09371  -0.133705  5.6e-05  3.977697  0.0
C  C143  1  0.63553504  0.20310887  0.95633645  1  -0.052049  4.2e-05  -0.093664  -0.133402  2.4e-05  3.977294  0.0
C  C144  1  0.81715825  0.78254676  0.42077509  1  -0.025924  0.000228  -0.108245  -0.10194  0.000198  4.039966  0.0
C  C145  1  0.31716355  0.71741297  0.07924050  1  -0.028004  0.000198  -0.10787  -0.101692  0.000173  4.03995  0.0
C  C146  1  0.18286092  0.21745001  0.57922396  1  -0.026814  0.000183  -0.108067  -0.101792  0.000171  4.039541  0.0
C  C147  1  0.68286501  0.28261384  0.92077100  1  -0.028123  -0.000132  -0.107933  -0.101806  -0.000128  4.039418  0.0
C  C148  1  0.71318478  0.84626654  0.43825993  1  -0.086912  -4.5e-05  -0.100623  -0.084359  -4e-05  4.031134  0.0
C  C149  1  0.21317394  0.65369717  0.06177389  1  -0.086604  4e-06  -0.10055  -0.084024  0.0  4.030436  0.0
C  C150  1  0.28681561  0.15370175  0.56173178  1  -0.087202  -2e-05  -0.100472  -0.08416  -2e-05  4.030997  0.0
C  C151  1  0.78681989  0.34635878  0.93825602  1  -0.086672  -6.9e-05  -0.100762  -0.084494  -5.3e-05  4.030992  0.0
C  C152  1  0.65724593  0.82860367  0.49037164  1  -0.026429  2.6e-05  -0.100785  -0.148377  2.8e-05  4.002536  0.0
C  C153  1  0.15721464  0.67134768  0.00966666  1  -0.017378  5e-06  -0.100714  -0.148035  9e-06  4.002066  0.0
C  C154  1  0.34271222  0.17133861  0.50961103  1  -0.027491  5.8e-05  -0.100854  -0.148494  5.3e-05  4.003098  0.0
C  C155  1  0.84274539  0.32869686  0.99036193  1  -0.0201  -1.7e-05  -0.100528  -0.147761  -1.6e-05  4.002152  0.0
C  C156  1  0.70246574  0.74658928  0.52806386  1  -0.025389  -1.9e-05  -0.006867  0.039619  -2.2e-05  4.006616  0.0
C  C157  1  0.20239704  0.75337318  0.97196967  1  -0.033414  1.2e-05  -0.007038  0.038833  1.2e-05  4.006965  0.0
C  C158  1  0.29749898  0.25336103  0.47192906  1  -0.02494  -9.8e-05  -0.006971  0.039443  -8.5e-05  4.006632  0.0
C  C159  1  0.79753576  0.24667230  0.02805042  1  -0.032492  -9.1e-05  -0.007374  0.038758  -7.6e-05  4.007186  0.0
C  C160  1  0.64325118  0.72353534  0.58088692  1  0.024988  0.000219  -0.026755  -0.087738  0.000177  3.98915  0.0
C  C161  1  0.14320272  0.77642378  0.91914101  1  0.024216  -0.000213  -0.026392  -0.08709  -0.000173  3.988886  0.0
C  C162  1  0.35674452  0.27643689  0.41911502  1  0.024726  -6.5e-05  -0.026573  -0.087543  -5.3e-05  3.989387  0.0
C  C163  1  0.85674886  0.22362599  0.08086462  1  0.024107  -8.7e-05  -0.02641  -0.087406  -7.1e-05  3.990292  0.0
C  C164  1  0.69005213  0.64115345  0.61601262  1  0.518557  -2.6e-05  0.090461  0.25759  -1.8e-05  4.054418  0.0
C  C165  1  0.19000793  0.85881692  0.88401234  1  0.518692  2.7e-05  0.090173  0.257084  1.9e-05  4.055057  0.0
C  C166  1  0.30997643  0.35883258  0.38399532  1  0.517979  -0.000167  0.090396  0.25759  -0.000129  4.054448  0.0
C  C167  1  0.80999998  0.14120931  0.11598299  1  0.517108  -0.00015  0.090258  0.257327  -0.000115  4.055473  0.0
C  C168  1  0.52686264  0.78123986  0.59804046  1  0.087992  0.00014  -0.024893  -0.084119  0.000145  3.987925  0.0
C  C169  1  0.02683015  0.71871009  0.90198428  1  0.087825  -0.000143  -0.02531  -0.0845  -0.000147  3.988843  0.0
C  C170  1  0.47311335  0.21876433  0.40195351  1  0.087383  -9.9e-05  -0.024817  -0.083862  -0.000108  3.9885  0.0
C  C171  1  0.97311110  0.28129796  0.09802545  1  0.088649  -8.8e-05  -0.024817  -0.084048  -9.9e-05  3.988715  0.0
C  C172  1  0.40990153  0.75112376  0.57354796  1  -0.083034  0.000316  -0.004776  0.041629  0.000244  3.997997  0.0
C  C173  1  0.90987723  0.74882552  0.92647167  1  -0.09106  -0.000309  -0.004349  0.041909  -0.000235  3.998632  0.0
C  C174  1  0.59005005  0.24890011  0.42644056  1  -0.083842  -0.00032  -0.004767  0.041781  -0.000245  3.998209  0.0
C  C175  1  0.09005182  0.25113351  0.07353958  1  -0.083223  -0.000333  -0.004702  0.041855  -0.000259  3.997982  0.0
C  C176  1  0.40062519  0.66659804  0.53226970  1  -0.011169  -0.000129  -0.097823  -0.148957  -9.6e-05  4.006059  0.0
C  C177  1  0.90058461  0.83334360  0.96775101  1  -0.010789  0.000133  -0.097642  -0.14866  0.000111  4.00639  0.0
C  C178  1  0.59935549  0.33341277  0.46771834  1  -0.011105  0.000126  -0.097484  -0.148472  9.9e-05  4.005744  0.0
C  C179  1  0.09936509  0.16660885  0.03226447  1  -0.011319  0.000155  -0.097758  -0.148856  0.000118  4.006205  0.0
C  C180  1  0.28721199  0.64054342  0.50765236  1  -0.053387  0.000359  -0.092722  -0.066457  0.000288  4.002048  0.0
C  C181  1  0.78716537  0.85941053  0.99235367  1  -0.053057  -0.000388  -0.092937  -0.066863  -0.00031  4.003001  0.0
C  C182  1  0.71278654  0.35943479  0.49233088  1  -0.052723  -0.000413  -0.092955  -0.066874  -0.000334  4.002726  0.0
C  C183  1  0.21280123  0.14058525  0.00765771  1  -0.053338  -0.000385  -0.092841  -0.066537  -0.000311  4.002938  0.0
C  C184  1  0.17645738  0.69679789  0.52338550  1  -0.047808  -0.000122  -0.102194  -0.100525  -9.7e-05  4.03216  0.0
C  C185  1  0.67639750  0.80316414  0.97662279  1  -0.04727  0.000113  -0.102107  -0.100637  9.1e-05  4.03203  0.0
C  C186  1  0.82352988  0.30316888  0.47659812  1  -0.046975  0.000117  -0.102223  -0.100356  9.2e-05  4.032264  0.0
C  C187  1  0.32355971  0.19684808  0.02338142  1  -0.047635  0.000128  -0.102258  -0.100769  9.5e-05  4.032461  0.0
C  C188  1  0.18116067  0.77741355  0.56423768  1  -0.073454  0.0003  -0.089993  -0.125699  0.000232  3.990855  0.0
C  C189  1  0.68112749  0.72255363  0.93576284  1  -0.073702  -0.000301  -0.090107  -0.125902  -0.000227  3.99084  0.0
C  C190  1  0.81879467  0.22256230  0.43573959  1  -0.074498  -0.000322  -0.089935  -0.125785  -0.000245  3.991052  0.0
C  C191  1  0.31882315  0.27743396  0.06425065  1  -0.073378  -0.000325  -0.089914  -0.125692  -0.000255  3.990977  0.0
C  C192  1  0.29688148  0.80696667  0.59020895  1  -0.027227  -0.000102  -0.018426  0.045017  -0.000107  4.050375  0.0
C  C193  1  0.79685344  0.69301533  0.90979778  1  -0.019879  0.0001  -0.01868  0.044825  0.000108  4.050509  0.0
C  C194  1  0.70307480  0.19306304  0.40977065  1  -0.026399  0.000107  -0.018635  0.044611  0.000113  4.050496  0.0
C  C195  1  0.20309156  0.30691165  0.09022782  1  -0.027397  0.000114  -0.018445  0.044929  0.000116  4.050541  0.0
C  C196  1  0.30578888  0.89101565  0.63100585  1  -0.085799  0.000914  -0.080339  -0.114067  0.000773  3.98371  0.0
C  C197  1  0.80577238  0.60899214  0.86898668  1  -0.081902  -0.000917  -0.080243  -0.113902  -0.000771  3.983652  0.0
C  C198  1  0.69414580  0.10900092  0.36897923  1  -0.081066  -0.000954  -0.080421  -0.114244  -0.000801  3.984838  0.0
C  C199  1  0.19419328  0.39094640  0.13103003  1  -0.08248  -0.000978  -0.080161  -0.114116  -0.000821  3.984317  0.0
C  C200  1  0.41965380  0.92114733  0.65484866  1  -0.014853  0.005474  -0.036001  -0.177325  0.004841  4.01315  0.004
C  C201  1  0.91963461  0.57885306  0.84515812  1  -0.015298  -0.005483  -0.03584  -0.176846  -0.004818  4.013607  -0.004
C  C202  1  0.58030247  0.07887732  0.34514241  1  -0.013823  -0.005471  -0.036008  -0.17708  -0.004809  4.014524  -0.004
C  C203  1  0.08034043  0.42110348  0.15485652  1  -0.015261  -0.005462  -0.036144  -0.177058  -0.004799  4.014442  -0.004
C  C204  1  0.42694643  0.01420801  0.69550198  1  1.528871  0.002297  0.214388  0.590197  0.003306  4.166062  0.001
C  C205  1  0.92690761  0.48581231  0.80450901  1  1.528937  -0.002302  0.214316  0.589406  -0.003281  4.167029  -0.001
C  C206  1  0.57304458  0.98580559  0.30452053  1  1.529237  -0.002326  0.214692  0.5902  -0.003309  4.166788  -0.001
C  C207  1  0.07310124  0.51420209  0.19545564  1  1.528892  -0.002328  0.214397  0.589849  -0.00331  4.166963  -0.001
C  C208  1  0.53197907  0.86407060  0.63864094  1  0.539517  0.001395  0.0898  0.258096  0.001105  4.058479  0.001
C  C209  1  0.03196002  0.63590338  0.86136971  1  0.539208  -0.001392  0.089814  0.258154  -0.001095  4.058466  -0.001
C  C210  1  0.46798096  0.13594763  0.36134202  1  0.53943  -0.001384  0.089555  0.257606  -0.001084  4.058787  -0.001
C  C211  1  0.96801409  0.36407427  0.13865310  1  0.5379  -0.001391  0.089721  0.258109  -0.001088  4.058883  -0.001
C  C212  1  0.80138073  0.16602544  0.63810070  1  1.407038  0.000269  0.18271  0.308202  -0.001224  4.054836  0.001
C  C213  1  0.30140048  0.33404083  0.86191736  1  1.407117  -0.000268  0.183096  0.308698  0.001253  4.054679  -0.001
C  C214  1  0.19868444  0.83392116  0.36186497  1  1.404796  0.000405  0.18244  0.307743  -0.001143  4.05603  0.001
C  C215  1  0.69862808  0.66605011  0.13812247  1  1.408123  0.000405  0.182569  0.307494  -0.001137  4.054882  0.001
C  C216  1  0.64786062  0.10538909  0.56806453  1  0.293531  -0.000697  -0.134693  -0.269927  -0.000697  3.875537  0.0
C  C217  1  0.14784424  0.39467151  0.93197097  1  0.295403  0.00069  -0.134566  -0.269847  0.000695  3.875529  0.0
C  C218  1  0.35216701  0.89447976  0.43185532  1  0.290368  -0.000684  -0.134976  -0.270223  -0.000683  3.876368  0.0
C  C219  1  0.85209888  0.60538492  0.06808362  1  0.292526  -0.000678  -0.134501  -0.269864  -0.000678  3.876824  0.0
C  C220  1  0.85837148  0.01969020  0.57316527  1  0.258208  -0.00112  -0.127642  -0.273423  -0.000998  3.906526  -0.001
C  C221  1  0.35833762  0.48037623  0.92684737  1  0.257292  0.001115  -0.127614  -0.273458  0.000997  3.906858  0.001
C  C222  1  0.14154630  0.98026719  0.42678852  1  0.255994  -0.001093  -0.127474  -0.273115  -0.000965  3.906025  -0.001
C  C223  1  0.64158204  0.51969181  0.07319450  1  0.257808  -0.001087  -0.127545  -0.273464  -0.000958  3.906743  -0.001
C  C224  1  0.87357868  0.17983018  0.81319338  1  1.375968  3.5e-05  0.18066  0.310691  0.001051  4.060907  -0.001
C  C225  1  0.37363085  0.32020972  0.68682172  1  1.375978  -3.3e-05  0.180937  0.311225  -0.001035  4.060627  0.001
C  C226  1  0.12645457  0.82012844  0.18678893  1  1.377044  8.7e-05  0.18072  0.310821  0.00114  4.060418  -0.001
C  C227  1  0.62645310  0.67983026  0.31318302  1  1.37648  8.7e-05  0.180759  0.310902  0.001146  4.061072  -0.001
C  C228  1  0.77771848  0.01032278  0.84591130  1  0.224851  0.000319  -0.127586  -0.263659  0.000299  3.847617  0.0
C  C229  1  0.27772641  0.48971716  0.65407030  1  0.226752  -0.000316  -0.127575  -0.263504  -0.000295  3.847385  0.0
C  C230  1  0.22226220  0.98965859  0.15413790  1  0.221915  0.000508  -0.127698  -0.264076  0.000514  3.847623  0.0
C  C231  1  0.72229089  0.51033176  0.34587874  1  0.226205  0.000507  -0.127882  -0.264188  0.000515  3.848098  0.0
C  C232  1  0.96043675  0.09186735  0.89626834  1  0.251555  0.000789  -0.132461  -0.282492  0.000711  3.895636  0.001
C  C233  1  0.46040879  0.40816154  0.60372729  1  0.252548  -0.000791  -0.132454  -0.282425  -0.000709  3.896151  -0.001
C  C234  1  0.03950356  0.90814800  0.10374482  1  0.251735  0.000637  -0.13231  -0.282093  0.000574  3.895583  0.0
C  C235  1  0.53956720  0.59185666  0.39625780  1  0.253389  0.000639  -0.132471  -0.282316  0.000577  3.895674  0.0
N  N236  1  0.77063874  0.10057040  0.59495247  1  -1.217438  -0.002887  -0.275794  0.040646  -0.002158  3.719578  -0.002
N  N237  1  0.27061586  0.39947614  0.90506765  1  -1.21795  0.002888  -0.275999  0.040394  0.002177  3.719928  0.002
N  N238  1  0.22934851  0.89940322  0.40500904  1  -1.218071  -0.002871  -0.27576  0.040393  -0.002161  3.720493  -0.002
N  N239  1  0.72933103  0.60055595  0.09497579  1  -1.218263  -0.002869  -0.27588  0.040941  -0.00216  3.720298  -0.002
N  N240  1  0.87182932  0.09635358  0.84928503  1  -1.220897  0.002048  -0.273462  0.047117  0.001547  3.71527  0.002
N  N241  1  0.37182583  0.40367337  0.65071774  1  -1.219912  -0.002055  -0.273709  0.046882  -0.00154  3.714182  -0.002
N  N242  1  0.12812789  0.90364314  0.15071743  1  -1.219798  0.002214  -0.27373  0.046892  0.001667  3.715041  0.002
N  N243  1  0.62818020  0.59635043  0.34927588  1  -1.221927  0.002222  -0.273278  0.04726  0.001672  3.715105  0.002
O  O244  1  0.78140295  0.46492474  0.67963983  1  -1.128414  0.040993  -0.307381  -0.540412  0.033624  2.407091  0.036
O  O245  1  0.28136663  0.03512277  0.82039191  1  -1.127524  -0.041111  -0.30746  -0.540509  -0.033504  2.406573  -0.036
O  O246  1  0.21856366  0.53491686  0.32030119  1  -1.128128  0.040747  -0.307298  -0.540333  0.033432  2.406452  0.035
O  O247  1  0.71864034  0.96503166  0.17966263  1  -1.127585  0.040886  -0.307049  -0.539834  0.03354  2.406784  0.036
O  O248  1  0.94050199  0.43297180  0.61798039  1  -1.184107  0.000291  -0.306675  -0.529992  -2.7e-05  2.208566  0.0
O  O249  1  0.44055534  0.06695683  0.88201755  1  -1.184593  -0.000291  -0.306757  -0.530029  3.3e-05  2.208307  0.0
O  O250  1  0.05960543  0.56706783  0.38199074  1  -1.183482  0.000302  -0.306716  -0.530143  -2.9e-05  2.209234  0.0
O  O251  1  0.55954363  0.93305567  0.11802454  1  -1.1837  0.000305  -0.307309  -0.53053  -2.7e-05  2.209275  0.0
O  O252  1  0.62922308  0.61941854  0.66503340  1  -1.168488  0.001546  -0.349579  -0.435646  0.001215  2.292374  0.001
O  O253  1  0.12917602  0.88057027  0.83500268  1  -1.167023  -0.001549  -0.34961  -0.435437  -0.00121  2.293607  -0.001
O  O254  1  0.37085242  0.38058277  0.33499205  1  -1.169305  0.001455  -0.349847  -0.435835  0.001143  2.293088  0.001
O  O255  1  0.87087038  0.11950491  0.16499581  1  -1.166666  0.001471  -0.349345  -0.435128  0.001155  2.293678  0.001
O  O256  1  0.64404992  0.89128890  0.66121967  1  -1.158742  0.000152  -0.350096  -0.4415  8.8e-05  2.309232  0.0
O  O257  1  0.14403377  0.60867939  0.83879635  1  -1.158  -0.000151  -0.350057  -0.441565  -8.6e-05  2.308867  0.0
O  O258  1  0.35590635  0.10872584  0.33877945  1  -1.159115  -0.000155  -0.349708  -0.440979  -7.3e-05  2.309579  0.0
O  O259  1  0.85594972  0.39131621  0.16122780  1  -1.158161  -0.00016  -0.350025  -0.441498  -7.7e-05  2.309321  0.0
O  O260  1  0.53285932  0.03410588  0.71939934  1  -1.159512  0.002314  -0.301902  -0.527786  0.001633  2.196749  0.002
O  O261  1  0.03279012  0.46593487  0.78058183  1  -1.159449  -0.002317  -0.301996  -0.52743  -0.001622  2.197378  -0.002
O  O262  1  0.46716925  0.96592548  0.28057856  1  -1.159559  -0.002353  -0.302059  -0.527893  -0.001658  2.196934  -0.002
O  O263  1  0.96726191  0.53409596  0.21943437  1  -1.158867  -0.002362  -0.301925  -0.527585  -0.001665  2.196646  -0.002
O  O264  1  0.32840644  0.07177581  0.70347560  1  -1.159532  0.069766  -0.311616  -0.56938  0.057299  2.383621  0.061
O  O265  1  0.82835232  0.42823128  0.79656915  1  -1.159981  -0.069865  -0.311596  -0.568928  -0.057014  2.383238  -0.061
O  O266  1  0.67156203  0.92818462  0.29661055  1  -1.161004  -0.069902  -0.311739  -0.569284  -0.057044  2.383123  -0.061
O  O267  1  0.17164058  0.57183348  0.20329867  1  -1.160463  -0.069978  -0.311692  -0.569444  -0.057104  2.382705  -0.061
O  O268  1  0.73074013  0.23879344  0.65828536  1  -1.125217  -0.06537  -0.289368  -0.440936  -0.052891  2.389343  -0.056
O  O269  1  0.23082823  0.26124559  0.84171882  1  -1.124898  0.065267  -0.289744  -0.441245  0.053131  2.389642  0.056
O  O270  1  0.26937668  0.76114862  0.34171391  1  -1.123587  -0.065619  -0.289322  -0.440596  -0.053129  2.389569  -0.057
O  O271  1  0.76930736  0.73881825  0.15827325  1  -1.124938  -0.065428  -0.289193  -0.440474  -0.052974  2.389377  -0.056
O  O272  1  0.79579462  0.19191429  0.77308350  1  -1.12007  0.043598  -0.300426  -0.460062  0.035376  2.441015  0.037
O  O273  1  0.29587752  0.30810031  0.72693878  1  -1.120944  -0.043655  -0.300448  -0.460345  -0.035194  2.44137  -0.037
O  O274  1  0.20433440  0.80805557  0.22685503  1  -1.120827  0.044138  -0.300437  -0.460082  0.0359  2.440648  0.038
O  O275  1  0.70426370  0.69192055  0.27309015  1  -1.121085  0.044277  -0.300464  -0.460224  0.036008  2.441249  0.038
O  O276  1  0.99307432  0.31306870  0.70517448  1  -1.247327  0.03393  -0.561638  -0.776774  0.027931  2.211416  0.029
O  O277  1  0.49320427  0.18694356  0.79485507  1  -1.246435  -0.033698  -0.56183  -0.777454  -0.027569  2.211569  -0.029
O  O278  1  0.00716736  0.68697325  0.29480644  1  -1.248082  0.03479  -0.561558  -0.776497  0.028521  2.211789  0.029
O  O279  1  0.50700361  0.81305695  0.20516952  1  -1.246719  0.034475  -0.56182  -0.777119  0.028262  2.211159  0.029
O  O280  1  0.60359886  0.36906805  0.75857059  1  -1.212363  0.025282  -0.574222  -0.736905  0.020714  2.053004  0.021
O  O281  1  0.10362393  0.13089999  0.74144791  1  -1.20686  -0.025127  -0.573996  -0.736708  -0.020444  2.052758  -0.02
O  O282  1  0.39634239  0.63089490  0.24145259  1  -1.217774  0.026972  -0.573986  -0.736327  0.022025  2.054133  0.022
O  O283  1  0.89629009  0.86907924  0.25857958  1  -1.217835  0.02672  -0.573901  -0.73631  0.021816  2.05423  0.022
