# generated using pymatgen
data_CdH26C22(NO)4
_symmetry_space_group_name_H-M   'P 1'
_cell_length_a   7.60612590
_cell_length_b   9.99875961
_cell_length_c   15.01284906
_cell_angle_alpha   89.99991914
_cell_angle_beta   90.00032769
_cell_angle_gamma   102.96868493
_symmetry_Int_Tables_number   1
_chemical_formula_structural   CdH26C22(NO)4
_chemical_formula_sum   'Cd2 H52 C44 N8 O8'
_cell_volume   1112.63167438
_cell_formula_units_Z   2
loop_
 _symmetry_equiv_pos_site_id
 _symmetry_equiv_pos_as_xyz
  1  'x, y, z'
loop_
 _atom_site_type_symbol
 _atom_site_label
 _atom_site_symmetry_multiplicity
 _atom_site_fract_x
 _atom_site_fract_y
 _atom_site_fract_z
 _atom_site_occupancy
 _atom_site_hle17_bader_spin_density
 _atom_site_hle17_ddec_charge
 _atom_site_hle17_ddec_spin_density
 _atom_site_hle17_ddec_sum_bond_order
 _atom_site_hle17_magmom
 _atom_site_hse06_10hf_bader_spin_density
 _atom_site_hse06_10hf_ddec_charge
 _atom_site_hse06_10hf_ddec_spin_density
 _atom_site_hse06_10hf_ddec_sum_bond_order
 _atom_site_hse06_10hf_magmom
 _atom_site_hse06_bader_spin_density
 _atom_site_hse06_ddec_charge
 _atom_site_hse06_ddec_spin_density
 _atom_site_hse06_ddec_sum_bond_order
 _atom_site_hse06_magmom
 _atom_site_pbe_bader_spin_density
 _atom_site_pbe_cm5_charge
 _atom_site_pbe_ddec_charge
 _atom_site_pbe_ddec_spin_density
 _atom_site_pbe_ddec_sum_bond_order
 _atom_site_pbe_magmom
Cd  Cd0  1  0.25984534  0.85892979  0.55560605  1  0  1.098496  0  1.660262  0  0  0.906359  0  2.096388  0  0  0.964889  0  2.045885  0  0  0.770803  0.861095  0  2.133848  0
Cd  Cd1  1  0.74015539  0.14107212  0.05560537  1  0  1.098457  0  1.66029  0  0  0.906312  0  2.096409  0  0  0.964846  0  2.045906  0  0  0.770768  0.861044  0  2.133867  0
H  H2  1  0.24856849  0.66479053  0.38264361  1  0  0.100639  0  0.9857  0  0  0.108436  0  1.051655  0  0  0.110639  0  1.050757  0  0  0.114781  0.106794  0  1.052381  0
H  H3  1  0.75142621  0.33520515  0.88263952  1  0  0.100587  0  0.98576  0  0  0.108367  0  1.05174  0  0  0.110562  0  1.050864  0  0  0.114744  0.106727  0  1.052458  0
H  H4  1  0.00837218  0.63590348  0.24036182  1  0  0.118677  0  0.946922  0  0  0.130849  0  1.004463  0  0  0.133176  0  1.004025  0  0  0.12596  0.128904  0  1.005389  0
H  H5  1  0.99161789  0.36409532  0.74035840  1  0  0.118632  0  0.94701  0  0  0.130836  0  1.004517  0  0  0.133147  0  1.004102  0  0  0.125968  0.128892  0  1.005445  0
H  H6  1  0.75137073  0.91143707  0.46928467  1  0  0.157839  0  0.952988  0  0  0.175573  0  1.013877  0  0  0.178988  0  1.01151  0  0  0.103683  0.173059  0  1.015629  0
H  H7  1  0.24863264  0.08856680  0.96928203  1  0  0.157833  0  0.95303  0  0  0.175559  0  1.013922  0  0  0.178973  0  1.011557  0  0  0.103667  0.173047  0  1.015669  0
H  H8  1  0.83119645  0.02549180  0.38011691  1  0  0.124511  0  0.952827  0  0  0.141429  0  1.017496  0  0  0.143631  0  1.016998  0  0  0.096305  0.139788  0  1.017997  0
H  H9  1  0.16880723  0.97451208  0.88011455  1  0  0.1245  0  0.952841  0  0  0.141414  0  1.01752  0  0  0.143616  0  1.017021  0  0  0.096288  0.139777  0  1.018019  0
H  H10  1  0.96698935  0.02815597  0.47670437  1  0  0.143058  0  0.959249  0  0  0.163687  0  1.017681  0  0  0.165926  0  1.01657  0  0  0.102237  0.162064  0  1.018383  0
H  H11  1  0.03301542  0.97184790  0.97670295  1  0  0.143106  0  0.959231  0  0  0.163731  0  1.017655  0  0  0.165969  0  1.016543  0  0  0.102275  0.162108  0  1.018356  0
H  H12  1  0.73838584  0.90464210  0.26179706  1  0  0.076763  0  0.92178  0  0  0.09477  0  0.97895  0  0  0.095182  0  0.979323  0  0  0.112405  0.094384  0  0.978848  0
H  H13  1  0.26160841  0.09535669  0.76179711  1  0  0.076763  0  0.921714  0  0  0.094781  0  0.978905  0  0  0.095192  0  0.979277  0  0  0.112407  0.094397  0  0.978804  0
H  H14  1  0.78641284  0.77631295  0.19142214  1  0  0.079771  0  0.940308  0  0  0.095431  0  1.003214  0  0  0.096139  0  1.003107  0  0  0.110866  0.094838  0  1.003312  0
H  H15  1  0.21358455  0.22368585  0.69141993  1  0  0.079731  0  0.940319  0  0  0.095442  0  1.003192  0  0  0.096147  0  1.003084  0  0  0.110842  0.094848  0  1.003291  0
H  H16  1  0.47235338  0.71448683  0.24995824  1  0  0.07151  0  0.942932  0  0  0.090487  0  1.002894  0  0  0.090211  0  1.00527  0  0  0.091314  0.09057  0  1.00133  0
H  H17  1  0.52764548  0.28550580  0.74995755  1  0  0.071475  0  0.942951  0  0  0.090467  0  1.00291  0  0  0.090194  0  1.005288  0  0  0.091302  0.09055  0  1.001349  0
H  H18  1  0.55352083  0.72749774  0.36092063  1  0  0.076038  0  0.950562  0  0  0.093826  0  1.011639  0  0  0.094581  0  1.012282  0  0  0.090872  0.093184  0  1.01126  0
H  H19  1  0.44647879  0.27250205  0.86091972  1  0  0.075986  0  0.950568  0  0  0.093782  0  1.011662  0  0  0.094534  0  1.012312  0  0  0.090839  0.093139  0  1.011282  0
H  H20  1  0.64167461  0.52525437  0.22282381  1  0  0.060014  0  0.956089  0  0  0.078395  0  1.021075  0  0  0.078514  0  1.022332  0  0  0.08505  0.078187  0  1.020289  0
H  H21  1  0.35833861  0.47474338  0.72281846  1  0  0.060001  0  0.956091  0  0  0.078339  0  1.021148  0  0  0.078451  0  1.022403  0  0  0.085034  0.078133  0  1.020364  0
H  H22  1  0.70052883  0.53228488  0.33701275  1  0  0.056756  0  0.948034  0  0  0.076148  0  1.008963  0  0  0.076239  0  1.010895  0  0  0.084651  0.076093  0  1.007609  0
H  H23  1  0.29947608  0.46771594  0.83700590  1  0  0.056804  0  0.948108  0  0  0.07616  0  1.009059  0  0  0.076247  0  1.010992  0  0  0.084651  0.076105  0  1.007702  0
H  H24  1  0.37362921  0.47249561  0.37850676  1  0  0.053911  0  0.955294  0  0  0.074115  0  1.017825  0  0  0.073783  0  1.019506  0  0  0.084078  0.074277  0  1.016696  0
H  H25  1  0.62637263  0.52750212  0.87850546  1  0  0.053898  0  0.955336  0  0  0.074088  0  1.017858  0  0  0.073755  0  1.019536  0  0  0.084084  0.074248  0  1.016725  0
H  H26  1  0.31432495  0.46518017  0.26441241  1  0  0.059154  0  0.944964  0  0  0.07856  0  1.005103  0  0  0.078572  0  1.007196  0  0  0.08547  0.078526  0  1.003685  0
H  H27  1  0.68568540  0.53481963  0.76441261  1  0  0.059146  0  0.944957  0  0  0.078571  0  1.005059  0  0  0.078584  0  1.007146  0  0  0.085447  0.078535  0  1.003643  0
H  H28  1  0.54602286  0.28532756  0.35137633  1  0  0.071457  0  0.936884  0  0  0.092158  0  0.994959  0  0  0.091916  0  0.997222  0  0  0.093289  0.092237  0  0.993437  0
H  H29  1  0.45398332  0.71466812  0.85137637  1  0  0.071399  0  0.936914  0  0  0.092116  0  0.994936  0  0  0.091874  0  0.997198  0  0  0.093249  0.092196  0  0.993412  0
H  H30  1  0.46351377  0.27086127  0.24086488  1  0  0.069191  0  0.933608  0  0  0.090885  0  0.989548  0  0  0.090882  0  0.990824  0  0  0.092487  0.09072  0  0.988907  0
H  H31  1  0.53648813  0.72913751  0.74086581  1  0  0.069239  0  0.933644  0  0  0.090915  0  0.989577  0  0  0.090912  0  0.990854  0  0  0.0925  0.090751  0  0.988937  0
H  H32  1  0.28139847  0.09213717  0.33798218  1  0  0.076971  0  0.919581  0  0  0.095214  0  0.975131  0  0  0.095741  0  0.975408  0  0  0.112325  0.094746  0  0.975096  0
H  H33  1  0.71860685  0.90786057  0.83798480  1  0  0.076957  0  0.919427  0  0  0.09516  0  0.975054  0  0  0.095689  0  0.975328  0  0  0.112315  0.094693  0  0.975019  0
H  H34  1  0.23680165  0.21646097  0.41232105  1  0  0.086775  0  0.94868  0  0  0.100364  0  1.013086  0  0  0.101564  0  1.012685  0  0  0.110033  0.09932  0  1.013533  0
H  H35  1  0.76320723  0.78353264  0.91232058  1  0  0.086749  0  0.948708  0  0  0.100343  0  1.013128  0  0  0.101549  0  1.01273  0  0  0.110049  0.099298  0  1.013573  0
H  H36  1  0.01260447  0.36032175  0.36888253  1  0  0.115896  0  0.949822  0  0  0.128194  0  1.007445  0  0  0.130473  0  1.007038  0  0  0.125105  0.126392  0  1.008201  0
H  H37  1  0.98740444  0.63967803  0.86887818  1  0  0.115968  0  0.949862  0  0  0.128257  0  1.007493  0  0  0.130539  0  1.007078  0  0  0.125108  0.126456  0  1.008247  0
H  H38  1  0.77004212  0.33983230  0.22796368  1  0  0.100078  0  0.994159  0  0  0.107318  0  1.061348  0  0  0.109796  0  1.059986  0  0  0.113335  0.105525  0  1.062336  0
H  H39  1  0.22995569  0.66016650  0.72795712  1  0  0.100005  0  0.994202  0  0  0.107231  0  1.061408  0  0  0.109708  0  1.060048  0  0  0.113291  0.105433  0  1.062414  0
H  H40  1  0.03822050  0.97404877  0.12613556  1  0  0.137728  0  0.96051  0  0  0.158055  0  1.021356  0  0  0.160141  0  1.020404  0  0  0.101733  0.156573  0  1.021869  0
H  H41  1  0.96176696  0.02595006  0.62613436  1  0  0.137742  0  0.9605  0  0  0.158051  0  1.021364  0  0  0.160138  0  1.020415  0  0  0.101738  0.156565  0  1.021885  0
H  H42  1  0.18590358  0.97655271  0.21830482  1  0  0.127148  0  0.949298  0  0  0.144172  0  1.013753  0  0  0.146667  0  1.012631  0  0  0.097747  0.142345  0  1.01463  0
H  H43  1  0.81408532  0.02344302  0.71830319  1  0  0.127105  0  0.949424  0  0  0.144112  0  1.013885  0  0  0.146607  0  1.012761  0  0  0.097732  0.142287  0  1.014761  0
H  H44  1  0.25325419  0.09040486  0.12832840  1  0  0.152711  0  0.944413  0  0  0.169987  0  1.006975  0  0  0.172793  0  1.005553  0  0  0.103171  0.167885  0  1.008169  0
H  H45  1  0.74673734  0.90958986  0.62832710  1  0  0.152771  0  0.944521  0  0  0.170017  0  1.007098  0  0  0.172824  0  1.005676  0  0  0.103189  0.167918  0  1.008286  0
H  H46  1  0.79832448  0.66118061  0.54171082  1  0  0.097836  0  0.95056  0  0  0.107092  0  1.014709  0  0  0.10973  0  1.013535  0  0  0.102663  0.105236  0  1.015469  0
H  H47  1  0.20168043  0.33881822  0.04171107  1  0  0.097801  0  0.950602  0  0  0.107059  0  1.014755  0  0  0.109705  0  1.013573  0  0  0.102652  0.105203  0  1.015513  0
H  H48  1  0.96275079  0.47307227  0.55193305  1  0  0.107248  0  0.965405  0  0  0.115958  0  1.026885  0  0  0.120029  0  1.024267  0  0  0.098981  0.112978  0  1.028822  0
H  H49  1  0.03724938  0.52692349  0.05192933  1  0  0.107329  0  0.965315  0  0  0.116019  0  1.026819  0  0  0.120098  0  1.024196  0  0  0.098991  0.113037  0  1.028757  0
H  H50  1  0.78667046  0.22773794  0.56306204  1  0  0.101419  0  0.945579  0  0  0.114664  0  1.001268  0  0  0.117983  0  0.998934  0  0  0.105043  0.112325  0  1.002802  0
H  H51  1  0.21332124  0.77225988  0.06305993  1  0  0.101455  0  0.945564  0  0  0.114668  0  1.001289  0  0  0.117987  0  0.998955  0  0  0.10502  0.112328  0  1.002825  0
H  H52  1  0.29215701  0.36679159  0.55527860  1  0  0.101097  0  0.95508  0  0  0.107494  0  1.023629  0  0  0.112438  0  1.018389  0  0  0.103091  0.103972  0  1.027357  0
H  H53  1  0.70784159  0.63321649  0.05527804  1  0  0.101045  0  0.955099  0  0  0.107489  0  1.023604  0  0  0.112434  0  1.018365  0  0  0.103068  0.103966  0  1.027331  0
C  C54  1  0.14102919  0.71654875  0.36911369  1  0  -0.004316  0  3.809779  0  0  -0.042825  0  4.084653  0  0  -0.039556  0  4.104633  0  0  -0.013153  -0.044866  0  4.071165  0
C  C55  1  0.85896294  0.28345207  0.86911595  1  0  -0.004221  0  3.809614  0  0  -0.042718  0  4.084498  0  0  -0.039447  0  4.104462  0  0  -0.013112  -0.044758  0  4.071012  0
C  C56  1  0.02335365  0.70084099  0.29892698  1  0  -0.073415  0  3.716971  0  0  -0.115505  0  3.979794  0  0  -0.114181  0  3.998683  0  0  -0.003744  -0.116639  0  3.967998  0
C  C57  1  0.97664122  0.29916293  0.79892557  1  0  -0.073411  0  3.716937  0  0  -0.115532  0  3.979773  0  0  -0.114194  0  3.998666  0  0  -0.003755  -0.116668  0  3.967981  0
C  C58  1  0.96311237  0.85828284  0.39234757  1  0  0.383661  0  3.675946  0  0  0.357055  0  3.948063  0  0  0.374051  0  3.962513  0  0  0.220175  0.345642  0  3.938039  0
C  C59  1  0.03688851  0.14172002  0.89234560  1  0  0.383601  0  3.676122  0  0  0.357093  0  3.948116  0  0  0.374094  0  3.962556  0  0  0.220177  0.34568  0  3.938092  0
C  C60  1  0.87287226  0.96129133  0.43179627  1  0  -0.4114  0  3.684238  0  0  -0.49214  0  3.923419  0  0  -0.496982  0  3.928046  0  0  -0.237652  -0.488459  0  3.92017  0
C  C61  1  0.12713240  0.03870947  0.93179599  1  0  -0.411397  0  3.684337  0  0  -0.492155  0  3.923491  0  0  -0.496995  0  3.928113  0  0  -0.237644  -0.488477  0  3.92024  0
C  C62  1  0.75488260  0.79834934  0.26044496  1  0  0.007266  0  3.622096  0  0  -0.054692  0  3.879278  0  0  -0.050394  0  3.890668  0  0  -0.053794  -0.057504  0  3.871537  0
C  C63  1  0.24512074  0.20165355  0.76044153  1  0  0.007414  0  3.62183  0  0  -0.054646  0  3.879135  0  0  -0.050336  0  3.890515  0  0  -0.053756  -0.057457  0  3.871395  0
C  C64  1  0.58380390  0.69910481  0.29267714  1  0  -0.135376  0  3.679643  0  0  -0.175018  0  3.937542  0  0  -0.176816  0  3.951893  0  0  -0.166569  -0.173511  0  3.927555  0
C  C65  1  0.41619727  0.30089397  0.79267545  1  0  -0.135314  0  3.679605  0  0  -0.174964  0  3.937558  0  0  -0.176774  0  3.951907  0  0  -0.166498  -0.173456  0  3.92757  0
C  C66  1  0.59669687  0.54881801  0.28969246  1  0  -0.108614  0  3.692729  0  0  -0.147711  0  3.952705  0  0  -0.14882  0  3.967851  0  0  -0.171757  -0.146797  0  3.942225  0
C  C67  1  0.40331114  0.45118179  0.78968859  1  0  -0.108569  0  3.692855  0  0  -0.147641  0  3.952814  0  0  -0.148733  0  3.967934  0  0  -0.17174  -0.14673  0  3.942327  0
C  C68  1  0.41859288  0.44918146  0.31161347  1  0  -0.105001  0  3.693961  0  0  -0.144264  0  3.955036  0  0  -0.145109  0  3.970203  0  0  -0.170183  -0.143561  0  3.944537  0
C  C69  1  0.58141345  0.55081629  0.81161269  1  0  -0.104993  0  3.694193  0  0  -0.144207  0  3.955133  0  0  -0.145039  0  3.970273  0  0  -0.17014  -0.143493  0  3.94462  0
C  C70  1  0.43301471  0.29913329  0.30916166  1  0  -0.126952  0  3.681029  0  0  -0.16858  0  3.940979  0  0  -0.169925  0  3.955417  0  0  -0.163046  -0.167433  0  3.930953  0
C  C71  1  0.56698776  0.70086035  0.80916136  1  0  -0.127052  0  3.681296  0  0  -0.16865  0  3.941193  0  0  -0.17  0  3.955631  0  0  -0.163068  -0.167506  0  3.931163  0
C  C72  1  0.26423951  0.19809902  0.34215520  1  0  0.001026  0  3.625466  0  0  -0.058985  0  3.882512  0  0  -0.055117  0  3.894014  0  0  -0.054455  -0.061438  0  3.874652  0
C  C73  1  0.73576363  0.80189564  0.84215530  1  0  0.001153  0  3.625493  0  0  -0.058917  0  3.882494  0  0  -0.055061  0  3.894007  0  0  -0.054438  -0.061364  0  3.874625  0
C  C74  1  0.99478922  0.29730950  0.30943557  1  0  -0.076076  0  3.718969  0  0  -0.118229  0  3.983216  0  0  -0.117069  0  4.002146  0  0  -0.005475  -0.119384  0  3.971387  0
C  C75  1  0.00521224  0.70268517  0.80943166  1  0  -0.076238  0  3.719114  0  0  -0.118444  0  3.983327  0  0  -0.117283  0  4.002253  0  0  -0.005509  -0.119596  0  3.971492  0
C  C76  1  0.87450918  0.28480955  0.24050511  1  0  -0.001341  0  3.80823  0  0  -0.0405  0  4.082345  0  0  -0.037032  0  4.101804  0  0  -0.013231  -0.042716  0  4.069344  0
C  C77  1  0.12548523  0.71518617  0.74049887  1  0  -0.001195  0  3.808252  0  0  -0.04034  0  4.082384  0  0  -0.036874  0  4.101847  0  0  -0.013181  -0.042561  0  4.069388  0
C  C78  1  0.04942760  0.14257657  0.21245202  1  0  0.377064  0  3.685592  0  0  0.350955  0  3.957004  0  0  0.367636  0  3.971967  0  0  0.2174  0.3398  0  3.946609  0
C  C79  1  0.95056741  0.85742223  0.71244869  1  0  0.377084  0  3.685554  0  0  0.350857  0  3.957019  0  0  0.367539  0  3.971979  0  0  0.217434  0.339701  0  3.946626  0
C  C80  1  0.13668512  0.04087705  0.16924121  1  0  -0.404707  0  3.695502  0  0  -0.48797  0  3.941094  0  0  -0.492403  0  3.945924  0  0  -0.236103  -0.484589  0  3.937615  0
C  C81  1  0.86330515  0.95912074  0.66923886  1  0  -0.404724  0  3.69564  0  0  -0.4879  0  3.941229  0  0  -0.492335  0  3.946059  0  0  -0.236116  -0.484518  0  3.937749  0
C  C82  1  0.43027962  0.63633107  0.54765987  1  0  0.605671  0  3.979915  0  0  0.557822  0  4.271923  0  0  0.591787  0  4.266559  0  0  0.184066  0.534888  0  4.274472  0
C  C83  1  0.56973072  0.36367700  0.04765716  1  0  0.605876  0  3.979603  0  0  0.557978  0  4.271659  0  0  0.59194  0  4.266286  0  0  0.18409  0.535044  0  4.27421  0
C  C84  1  0.53470160  0.52564716  0.54907685  1  0  -0.068295  0  3.764106  0  0  -0.041011  0  3.994985  0  0  -0.050289  0  4.017877  0  0  -0.020837  -0.035194  0  3.979919  0
C  C85  1  0.46530026  0.47435886  0.04907575  1  0  -0.068406  0  3.764048  0  0  -0.041072  0  3.994921  0  0  -0.050345  0  4.017811  0  0  -0.020834  -0.035255  0  3.979853  0
C  C86  1  0.72373304  0.55489761  0.54683104  1  0  -0.040843  0  3.687215  0  0  -0.067819  0  3.934526  0  0  -0.064423  0  3.952895  0  0  -0.076745  -0.069682  0  3.921883  0
C  C87  1  0.27626798  0.44510123  0.04683208  1  0  -0.040691  0  3.687164  0  0  -0.067696  0  3.934475  0  0  -0.064307  0  3.952849  0  0  -0.076695  -0.069561  0  3.921831  0
C  C88  1  0.81537531  0.44843000  0.55211269  1  0  -0.096621  0  3.76659  0  0  -0.105998  0  4.019896  0  0  -0.110942  0  4.040211  0  0  -0.095862  -0.1026  0  4.00577  0
C  C89  1  0.18462223  0.55156576  0.05211137  1  0  -0.096712  0  3.766565  0  0  -0.106057  0  4.019846  0  0  -0.111007  0  4.040164  0  0  -0.095862  -0.102659  0  4.005724  0
C  C90  1  0.71821434  0.31239550  0.55834261  1  0  -0.067966  0  3.727858  0  0  -0.094798  0  3.975539  0  0  -0.092294  0  3.993857  0  0  -0.082216  -0.095981  0  3.962773  0
C  C91  1  0.28177862  0.68760232  0.05834145  1  0  -0.068126  0  3.727953  0  0  -0.094925  0  3.975628  0  0  -0.092421  0  3.993947  0  0  -0.082275  -0.09611  0  3.962863  0
C  C92  1  0.52861130  0.28198967  0.55840030  1  0  -0.06767  0  3.76953  0  0  -0.041053  0  4.000235  0  0  -0.050077  0  4.023424  0  0  -0.020334  -0.035453  0  3.985051  0
C  C93  1  0.47138025  0.71801225  0.05840032  1  0  -0.067633  0  3.769445  0  0  -0.04103  0  4.000207  0  0  -0.050053  0  4.023396  0  0  -0.020351  -0.035429  0  3.985023  0
C  C94  1  0.43893887  0.38918515  0.55420172  1  0  -0.07763  0  3.720767  0  0  -0.111299  0  3.967306  0  0  -0.108531  0  3.985133  0  0  -0.079545  -0.112727  0  3.955958  0
C  C95  1  0.56106043  0.61082087  0.05420276  1  0  -0.077562  0  3.72064  0  0  -0.111281  0  3.967171  0  0  -0.108518  0  3.985  0  0  -0.079511  -0.11271  0  3.95582  0
C  C96  1  0.41999166  0.13714847  0.56307821  1  0  0.614132  0  3.964054  0  0  0.569041  0  4.248783  0  0  0.603012  0  4.244001  0  0  0.186767  0.546144  0  4.250868  0
C  C97  1  0.57999469  0.86285346  0.06308040  1  0  0.614207  0  3.963928  0  0  0.569079  0  4.248684  0  0  0.60305  0  4.243901  0  0  0.186825  0.546183  0  4.250771  0
N  N98  1  0.10370508  0.81473856  0.42648578  1  0  -0.464061  0  3.22696  0  0  -0.387914  0  3.510254  0  0  -0.411892  0  3.525725  0  0  -0.366673  -0.371036  0  3.499011  0
N  N99  1  0.89629527  0.18526121  0.92648424  1  0  -0.464061  0  3.227054  0  0  -0.387945  0  3.510317  0  0  -0.411924  0  3.525785  0  0  -0.366681  -0.371065  0  3.499068  0
N  N100  1  0.91196160  0.79042227  0.31442828  1  0  -0.116782  0  3.530762  0  0  -0.023426  0  3.743962  0  0  -0.039264  0  3.769694  0  0  -0.244341  -0.013044  0  3.726786  0
N  N101  1  0.08803840  0.20958061  0.81442772  1  0  -0.116843  0  3.530775  0  0  -0.023488  0  3.744  0  0  -0.03933  0  3.769725  0  0  -0.244367  -0.013105  0  3.726825  0
N  N102  1  0.10447138  0.20753083  0.29088954  1  0  -0.115625  0  3.531818  0  0  -0.023408  0  3.745627  0  0  -0.039147  0  3.771533  0  0  -0.245666  -0.013078  0  3.728301  0
N  N103  1  0.89553108  0.79246795  0.79088812  1  0  -0.115628  0  3.531861  0  0  -0.023211  0  3.745493  0  0  -0.038949  0  3.7714  0  0  -0.245653  -0.012884  0  3.728169  0
N  N104  1  0.90825496  0.18805663  0.18102216  1  0  -0.461552  0  3.228446  0  0  -0.384994  0  3.510137  0  0  -0.408906  0  3.525704  0  0  -0.366389  -0.368211  0  3.498848  0
N  N105  1  0.09173807  0.81194116  0.68101906  1  0  -0.461587  0  3.22842  0  0  -0.385029  0  3.510187  0  0  -0.408943  0  3.525755  0  0  -0.36642  -0.368246  0  3.498896  0
O  O106  1  0.26334633  0.60451977  0.56722022  1  0  -0.646255  0  1.945448  0  0  -0.589339  0  2.182989  0  0  -0.61651  0  2.17398  0  0  -0.334661  -0.569497  0  2.18798  0
O  O107  1  0.73666484  0.39549034  0.06721997  1  0  -0.646268  0  1.945165  0  0  -0.589356  0  2.182739  0  0  -0.616539  0  2.173755  0  0  -0.334684  -0.569518  0  2.187733  0
O  O108  1  0.51256619  0.75895085  0.52761510  1  0  -0.645944  0  1.979603  0  0  -0.582433  0  2.220982  0  0  -0.610597  0  2.210897  0  0  -0.331746  -0.561649  0  2.228326  0
O  O109  1  0.48744757  0.24105619  0.02761027  1  0  -0.646093  0  1.979625  0  0  -0.582544  0  2.221014  0  0  -0.610707  0  2.210929  0  0  -0.331761  -0.561763  0  2.228361  0
O  O110  1  0.50231540  0.04212197  0.58090110  1  0  -0.628489  0  1.960915  0  0  -0.561962  0  2.192078  0  0  -0.590901  0  2.182716  0  0  -0.333741  -0.540736  0  2.198815  0
O  O111  1  0.49767378  0.95787995  0.08090364  1  0  -0.628513  0  1.960871  0  0  -0.561972  0  2.19204  0  0  -0.590908  0  2.182678  0  0  -0.333753  -0.540745  0  2.198778  0
O  O112  1  0.25062617  0.11374772  0.54842186  1  0  -0.666587  0  1.96836  0  0  -0.61261  0  2.208126  0  0  -0.639913  0  2.199175  0  0  -0.337947  -0.592695  0  2.212975  0
O  O113  1  0.74935952  0.88626139  0.04841853  1  0  -0.66658  0  1.968266  0  0  -0.612581  0  2.208058  0  0  -0.639895  0  2.199133  0  0  -0.337962  -0.592669  0  2.212914  0
