# generated using pymatgen
data_Al3H43C51O14
_symmetry_space_group_name_H-M   'P 1'
_cell_length_a   13.60109370
_cell_length_b   13.66650481
_cell_length_c   27.48772772
_cell_angle_alpha   90.50981698
_cell_angle_beta   90.07766870
_cell_angle_gamma   60.22526252
_symmetry_Int_Tables_number   1
_chemical_formula_structural   Al3H43C51O14
_chemical_formula_sum   'Al6 H86 C102 O28'
_cell_volume   4434.67910961
_cell_formula_units_Z   2
loop_
 _symmetry_equiv_pos_site_id
 _symmetry_equiv_pos_as_xyz
  1  'x, y, z'
loop_
 _atom_site_type_symbol
 _atom_site_label
 _atom_site_symmetry_multiplicity
 _atom_site_fract_x
 _atom_site_fract_y
 _atom_site_fract_z
 _atom_site_occupancy
 _atom_site_pbe_bader_charge
 _atom_site_pbe_bader_spin_density
 _atom_site_pbe_cm5_charge
 _atom_site_pbe_ddec_charge
 _atom_site_pbe_ddec_spin_density
 _atom_site_pbe_ddec_sum_bond_order
 _atom_site_pbe_magmom
Al  Al0  1  0.58396640  0.83053222  0.49158392  1  2.49364  0  0.398139  1.683466  0  2.550712  0
Al  Al1  1  0.56872516  0.07273499  0.49837745  1  2.482084  0  0.50377  1.660463  0  2.506518  0
Al  Al2  1  0.35249782  0.06597470  0.49296002  1  2.483166  0  0.501309  1.658835  0  2.521087  0
Al  Al3  1  0.07665291  0.82553857  0.97720775  1  2.494437  0  0.397253  1.685912  0  2.550554  0
Al  Al4  1  0.30968159  0.59127308  0.97801365  1  2.483236  0  0.503865  1.655807  0  2.517752  0
Al  Al5  1  0.09338597  0.58421738  0.98223201  1  2.480368  0  0.501281  1.657735  0  2.521033  0
H  H6  1  0.86120169  0.98155409  0.28113578  1  0.089739  0  0.11104  0.117134  0  0.982225  0
H  H7  1  0.98089499  0.55158467  0.16608285  1  0.02704  0  0.086672  0.113944  0  1.019337  0
H  H8  1  0.74113541  0.64545332  0.20884583  1  0.018918  0  0.096688  0.094639  0  0.990788  0
H  H9  1  0.77593133  0.68630588  0.15376513  1  0.041883  0  0.097579  0.09756  0  0.979065  0
H  H10  1  0.90373404  0.94116325  0.19211957  1  0.099948  0  0.113204  0.121031  0  0.976968  0
H  H11  1  0.40429689  0.36939768  0.60740952  1  0.106328  0  0.111998  0.11457  0  0.980387  0
H  H12  1  0.97982405  0.50901320  0.80175856  1  0.059798  0  0.08779  0.118366  0  1.024897  0
H  H13  1  0.94264235  0.41708413  0.77117201  1  0.009636  0  0.087801  0.114371  0  1.014337  0
H  H14  1  0.01452395  0.37693380  0.82735543  1  0.028368  0  0.08943  0.115646  0  1.008581  0
H  H15  1  0.11057807  0.40902974  0.73066216  1  0.0302  0  0.094663  0.093978  0  0.971099  0
H  H16  1  0.14105052  0.27912652  0.75440080  1  0.037039  0  0.092679  0.085875  0  1.013587  0
H  H17  1  0.12671616  0.42380547  0.86001324  1  0.103123  0  0.109338  0.118334  0  1.023002  0
H  H18  1  0.37075514  0.42710083  0.69435638  1  0.059989  0  0.0998  0.093427  0  1.062285  0
H  H19  1  0.61360164  0.11162738  0.78941522  1  0.031142  0  0.087688  0.1187  0  0.993595  0
H  H20  1  0.55382902  0.14546513  0.73016296  1  0.006544  0  0.081646  0.107512  0  1.050165  0
H  H21  1  0.68094932  0.14639677  0.74268727  1  0.021897  0  0.087681  0.118206  0  1.010949  0
H  H22  1  0.51876171  0.34230205  0.74021626  1  0.029425  0  0.091878  0.087351  0  0.99944  0
H  H23  1  0.57800948  0.31121438  0.79869013  1  0.022874  0  0.093881  0.08925  0  0.986926  0
H  H24  1  0.46961116  0.35429627  0.86454169  1  0.095628  0  0.109645  0.11396  0  1.005603  0
H  H25  1  0.30757922  0.15451117  0.72443369  1  0.062332  0  0.103618  0.101498  0  1.024405  0
H  H26  1  0.51189236  0.24872851  0.18589376  1  0.09545  0  0.116397  0.121722  0  0.975124  0
H  H27  1  0.32083556  0.10995047  0.63649048  1  0.084276  0  0.104268  0.103369  0  1.034777  0
H  H28  1  0.16281653  0.93516379  0.69604542  1  0.056466  0  0.098306  0.096644  0  1.06595  0
H  H29  1  0.20962031  0.79668871  0.56767054  1  0.033414  0  0.088709  0.117814  0  0.996136  0
H  H30  1  0.12904751  0.82016455  0.62171237  1  0.004078  0  0.080901  0.102141  0  1.026346  0
H  H31  1  0.05999077  0.88586607  0.56659737  1  0.028218  0  0.089952  0.118391  0  0.996591  0
H  H32  1  0.07568609  0.02496453  0.62143084  1  0.0065  0  0.092578  0.087879  0  0.973491  0
H  H33  1  0.15492902  0.00299492  0.56742445  1  0.076742  0  0.098494  0.108228  0  1.002871  0
H  H34  1  0.31120443  0.59421490  0.73044929  1  0.017349  0  0.084554  0.110904  0  1.010611  0
H  H35  1  0.28936981  0.70496071  0.69097022  1  0.05436  0  0.085053  0.114514  0  1.036168  0
H  H36  1  0.39665947  0.56548380  0.67695625  1  0.029611  0  0.087331  0.116359  0  0.999537  0
H  H37  1  0.48444205  0.67179938  0.71113056  1  0.036274  0  0.090551  0.088993  0  1.027992  0
H  H38  1  0.50525622  0.56470817  0.75129029  1  0.013715  0  0.090672  0.083753  0  1.018858  0
H  H39  1  0.51385103  0.82767094  0.71923940  1  0.068399  0  0.098802  0.099115  0  1.047409  0
H  H40  1  0.60456370  0.54187074  0.81942167  1  0.007475  0  0.081209  0.104122  0  1.027514  0
H  H41  1  0.56100251  0.57556080  0.88111740  1  0.038283  0  0.089332  0.121853  0  1.011154  0
H  H42  1  0.60083553  0.43932782  0.85753152  1  0.03618  0  0.08335  0.106728  0  1.012941  0
H  H43  1  0.39166179  0.55418644  0.86416700  1  0.078821  0  0.095204  0.095599  0  1.052122  0
H  H44  1  0.43048140  0.52380680  0.80284807  1  0.002472  0  0.087041  0.078215  0  1.034059  0
H  H45  1  0.02618453  0.08104990  0.79822871  1  0.010353  0  0.085019  0.114288  0  1.024495  0
H  H46  1  0.07418022  0.12380568  0.84977308  1  -0.00416  0  0.092162  0.122836  0  0.998863  0
H  H47  1  0.03271412  0.20751695  0.79687384  1  0.040296  0  0.084304  0.112778  0  1.035119  0
H  H48  1  0.24704351  0.09145768  0.80479851  1  0.012274  0  0.093051  0.09013  0  0.968686  0
H  H49  1  0.19545341  0.06695038  0.75005872  1  0.005229  0  0.08525  0.073823  0  1.028978  0
H  H50  1  0.56866198  0.01623531  0.64502577  1  0.071943  0  0.101371  0.09744  0  1.028278  0
H  H51  1  0.18827200  0.95245214  0.87275194  1  0.110963  0  0.110698  0.120735  0  1.00371  0
H  H52  1  0.53740175  0.83937992  0.63053936  1  0.083334  0  0.106248  0.109075  0  1.024214  0
H  H53  1  0.15105703  0.46020185  0.20539992  1  0.107913  0  0.110909  0.111605  0  1.017517  0
H  H54  1  0.08466632  0.85890991  0.77573298  1  0.042477  0  0.087349  0.119544  0  1.018082  0
H  H55  1  0.04624946  0.82707268  0.71827230  1  0.030574  0  0.082572  0.106456  0  1.024258  0
H  H56  1  0.03510183  0.96071513  0.72886061  1  0.007322  0  0.084206  0.109519  0  1.031283  0
H  H57  1  0.84477359  0.97821543  0.73171695  1  0.016834  0  0.089968  0.082786  0  1.015091  0
H  H58  1  0.88160562  0.01567600  0.78760792  1  0.010521  0  0.092834  0.086477  0  0.978125  0
H  H59  1  0.96335864  0.87220258  0.85450685  1  0.10554  0  0.111739  0.122698  0  1.002245  0
H  H60  1  0.61560146  0.96457709  0.73169399  1  0.086033  0  0.104273  0.103112  0  1.014241  0
H  H61  1  0.90096463  0.75146249  0.60285227  1  0.074437  0  0.110633  0.113078  0  0.983157  0
H  H62  1  0.74004815  0.68148220  0.69796385  1  0.034772  0  0.082593  0.113792  0  1.040141  0
H  H63  1  0.83188093  0.56421114  0.73352298  1  0.022339  0  0.083075  0.112244  0  1.0362  0
H  H64  1  0.68897300  0.59839178  0.72523922  1  0.006691  0  0.08385  0.111763  0  1.017021  0
H  H65  1  0.68875289  0.66512451  0.80519246  1  0.029323  0  0.092207  0.084236  0  1.032796  0
H  H66  1  0.62828630  0.78592213  0.76998141  1  0.017075  0  0.088486  0.07739  0  1.013078  0
H  H67  1  0.68846907  0.78053033  0.92650445  1  0.024085  0  0.087833  0.117403  0  0.996853  0
H  H68  1  0.61556603  0.76208704  0.87687430  1  0.02132  0  0.084454  0.110431  0  1.01437  0
H  H69  1  0.66345955  0.66468658  0.92563250  1  0.030748  0  0.08877  0.116878  0  1.001599  0
H  H70  1  0.79515385  0.57979530  0.85432179  1  0.013518  0  0.090551  0.085074  0  1.002393  0
H  H71  1  0.86482068  0.59966467  0.90388000  1  0.076736  0  0.09669  0.10535  0  1.016911  0
H  H72  1  0.53230768  0.20323428  0.27413464  1  0.088905  0  0.115912  0.121256  0  0.978783  0
H  H73  1  0.95276895  0.71157163  0.69034780  1  0.069827  0  0.104093  0.103087  0  0.992756  0
H  H74  1  0.17127410  0.41465964  0.29352228  1  0.082066  0  0.116054  0.120113  0  0.975545  0
H  H75  1  0.28174513  0.02653683  0.26520117  1  0.077014  0  0.108429  0.116589  0  1.007458  0
H  H76  1  0.16038902  0.17212987  0.21297152  1  0.022552  0  0.085833  0.110471  0  1.004111  0
H  H77  1  0.30399852  0.13764739  0.20608284  1  0.015795  0  0.081768  0.106092  0  1.022568  0
H  H78  1  0.20639545  0.20477112  0.15825922  1  0.041113  0  0.090658  0.12227  0  0.996204  0
H  H79  1  0.32686627  0.00264465  0.13713628  1  0.043346  0  0.101133  0.101518  0  0.958656  0
H  H80  1  0.18647818  0.03540611  0.14408987  1  0.068816  0  0.104921  0.108567  0  0.952843  0
H  H81  1  0.38394102  0.64815304  0.19883157  1  0.105581  0  0.110862  0.115418  0  0.982519  0
H  H82  1  0.39740600  0.67462554  0.28829129  1  0.085378  0  0.113619  0.119531  0  0.97862  0
H  H83  1  0.95151325  0.51038824  0.22326831  1  -0.015731  0  0.083078  0.105243  0  1.018077  0
H  H84  1  0.59561874  0.84143723  0.31567255  1  0.049263  0  0.085452  0.115873  0  1.008393  0
H  H85  1  0.59568675  0.76250888  0.26390291  1  0.013707  0  0.0789  0.100527  0  1.030131  0
H  H86  1  0.60698959  0.70789550  0.32362394  1  0.050903  0  0.093515  0.1301  0  0.986431  0
H  H87  1  0.79777645  0.61376132  0.28296854  1  0.01859  0  0.094106  0.090128  0  0.990797  0
H  H88  1  0.79496032  0.69189428  0.33487925  1  0.077736  0  0.101216  0.108082  0  0.97404  0
H  H89  1  0.90250488  0.47977999  0.16826741  1  0.039519  0  0.092705  0.124894  0  0.988553  0
H  H90  1  0.70511025  0.64488932  0.51651671  1  0.573133  0  0.290688  0.38189  0  0.924806  0
H  H91  1  0.93636706  0.00656811  0.95449731  1  0.580487  0  0.288075  0.377242  0  0.932663  0
C  C92  1  0.70425534  0.91493432  0.42868553  1  1.645787  0  0.275998  0.708737  0  4.159743  0
C  C93  1  0.30328254  0.94453123  0.24985286  1  -0.024776  0  -0.079539  -0.180343  0  3.906812  0
C  C94  1  0.23113325  0.14144536  0.18693788  1  -0.055567  0  -0.244328  -0.351405  0  3.984854  0
C  C95  1  0.76224694  0.69977334  0.29769038  1  -0.011487  0  -0.160625  -0.1511  0  3.980496  0
C  C96  1  0.63256583  0.75603738  0.30016002  1  -0.077022  0  -0.242112  -0.347685  0  3.945508  0
C  C97  1  0.29637153  0.93157140  0.19992537  1  0.052469  0  0.007552  0.094262  0  3.905902  0
C  C98  1  0.40045453  0.20442614  0.43010933  1  1.625652  0  0.284459  0.721027  0  4.147145  0
C  C99  1  0.36189564  0.73065708  0.21386386  1  -0.070464  0  -0.077293  -0.112073  0  3.982235  0
C  C100  1  0.36885296  0.74517878  0.26342925  1  -0.004998  0  -0.079239  -0.129883  0  3.979682  0
C  C101  1  0.33903648  0.85290260  0.28188824  1  0.123447  0  0.004796  0.129237  0  4.131042  0
C  C102  1  0.32559002  0.82247087  0.18192942  1  0.082579  0  0.002043  0.060777  0  4.08589  0
C  C103  1  0.31576703  0.80467496  0.13188552  1  -0.600948  0  -0.011189  -0.011562  0  4.100096  0
C  C104  1  0.34852542  0.86938610  0.33208085  1  -0.437368  0  -0.008631  -0.010997  0  4.072623  0
C  C105  1  0.30472344  0.78760346  0.08915352  1  0.315028  0  -0.033103  -0.195777  0  3.937637  0
C  C106  1  0.23414960  0.40414628  0.22067471  1  -0.001499  0  -0.070348  -0.108084  0  3.934141  0
C  C107  1  0.75907551  0.89775845  0.38231209  1  0.125273  0  -0.039682  -0.207769  0  3.93822  0
C  C108  1  0.80147764  0.76552748  0.26741859  1  -0.007604  0  0.009589  0.042773  0  3.856136  0
C  C109  1  0.82191769  0.74551497  0.21720578  1  0.015989  0  0.00517  0.033683  0  3.863565  0
C  C110  1  0.38605735  0.90930287  0.42244534  1  1.665141  0  0.280627  0.707543  0  4.166365  0
C  C111  1  0.87422317  0.89417811  0.21366241  1  0.01493  0  -0.081498  -0.123001  0  3.996668  0
C  C112  1  0.85133518  0.91598479  0.26275302  1  -0.008977  0  -0.083792  -0.12638  0  4.010998  0
C  C113  1  0.81482617  0.85261201  0.28982122  1  0.046147  0  0.000965  0.066219  0  4.094102  0
C  C114  1  0.85965371  0.80944676  0.19067737  1  0.038143  0  0.002511  0.070563  0  4.095344  0
C  C115  1  0.88646654  0.78832396  0.14060608  1  -0.148885  0  -0.014389  -0.01383  0  4.100786  0
C  C116  1  0.78761904  0.87792381  0.33967196  1  -0.39066  0  -0.012434  -0.009489  0  4.094689  0
C  C117  1  0.24539295  0.37880234  0.26979681  1  -0.046917  0  -0.069814  -0.11085  0  3.938302  0
C  C118  1  0.91428060  0.77192285  0.09785276  1  -0.159192  0  -0.03643  -0.198602  0  3.9412  0
C  C119  1  0.36353796  0.23673288  0.61623817  1  -0.006235  0  -0.013302  -0.047047  0  3.984604  0
C  C120  1  0.38010941  0.32447837  0.63302129  1  -0.05423  0  -0.078602  -0.083809  0  3.972074  0
C  C121  1  0.36346639  0.35512651  0.68207082  1  -0.00988  0  -0.08711  -0.134878  0  3.975685  0
C  C122  1  0.69372135  0.91222623  0.56683122  1  1.565305  0  0.273217  0.650578  0  4.085953  0
C  C123  1  0.33781454  0.29479098  0.71609997  1  0.009497  0  0.002771  0.090599  0  3.980574  0
C  C124  1  0.32451616  0.20490254  0.69886198  1  -0.041502  0  -0.084877  -0.132422  0  3.968814  0
C  C125  1  0.33350616  0.17845146  0.64946114  1  -0.073748  0  -0.080039  -0.085434  0  3.965094  0
C  C126  1  0.22020820  0.35897020  0.79264286  1  -0.065905  0  -0.004723  0.075741  0  3.920988  0
C  C127  1  0.20772844  0.39194268  0.84150835  1  -0.006423  0  -0.083838  -0.144276  0  3.94034  0
C  C128  1  0.35309875  0.30612585  0.28971390  1  0.120122  0  0.007773  0.121611  0  4.104079  0
C  C129  1  0.40069945  0.35456199  0.84417504  1  -0.025167  0  -0.081045  -0.148371  0  3.97698  0
C  C130  1  0.41601413  0.32361665  0.79504551  1  -0.019964  0  -0.00573  0.073784  0  3.933443  0
C  C131  1  0.32513115  0.32542358  0.76887643  1  -0.0067  0  0.001234  -0.03376  0  3.881177  0
C  C132  1  0.29682686  0.39104880  0.86738682  1  -0.024423  0  -0.021034  -0.050766  0  4.041017  0
C  C133  1  0.36281939  0.89791801  0.61334483  1  -0.024514  0  -0.016534  -0.111072  0  3.938627  0
C  C134  1  0.38456606  0.19699934  0.56476710  1  1.546094  0  0.278108  0.648962  0  4.077651  0
C  C135  1  0.25421183  0.92931679  0.63180724  1  0.021808  0  0.004615  0.124067  0  3.915378  0
C  C136  1  0.24470762  0.91761586  0.68190882  1  -0.071605  0  -0.092992  -0.20512  0  3.952917  0
C  C137  1  0.33611367  0.87869311  0.71405951  1  -0.050385  0  0.000938  0.100834  0  4.004157  0
C  C138  1  0.44128262  0.85573621  0.69516351  1  -0.042211  0  -0.095015  -0.146653  0  4.000182  0
C  C139  1  0.33009523  0.35744777  0.18980186  1  0.149502  0  0.008691  0.123295  0  4.103868  0
C  C140  1  0.45458858  0.86244822  0.64555204  1  -0.016997  0  -0.08376  -0.086681  0  3.998961  0
C  C141  1  0.38117045  0.73176870  0.77622450  1  -0.006574  0  -0.007997  0.024835  0  3.872834  0
C  C142  1  0.37129132  0.69579340  0.82308749  1  -0.012687  0  -0.000731  0.061202  0  3.89056  0
C  C143  1  0.24428449  0.89252723  0.84537512  1  -0.007175  0  -0.086543  -0.151627  0  3.978811  0
C  C144  1  0.25733312  0.92987661  0.80009037  1  -0.066889  0  -0.010953  0.065715  0  3.961619  0
C  C145  1  0.32546903  0.84806451  0.76496772  1  -0.05395  0  -0.005741  -0.039053  0  3.925701  0
C  C146  1  0.39027034  0.90504215  0.56151068  1  1.538204  0  0.270844  0.642798  0  4.085693  0
C  C147  1  0.29989418  0.77802378  0.85734643  1  -0.076952  0  -0.01896  -0.099893  0  3.979749  0
C  C148  1  0.73183233  0.88690215  0.61845551  1  -0.05903  0  -0.011631  -0.035806  0  3.981123  0
C  C149  1  0.65231453  0.94793070  0.65491592  1  -0.039751  0  -0.083181  -0.093838  0  3.983473  0
C  C150  1  0.31638047  0.38452122  0.13973919  1  -0.46264  0  -0.007822  -0.013164  0  4.057501  0
C  C151  1  0.67894940  0.91949587  0.70356920  1  -0.074938  0  -0.086156  -0.13472  0  3.98126  0
C  C152  1  0.78748164  0.83537418  0.71700991  1  0.02302  0  0.000359  0.089564  0  3.99224  0
C  C153  1  0.86782676  0.77707141  0.68022634  1  -0.077777  0  -0.084373  -0.127259  0  3.975197  0
C  C154  1  0.83951619  0.79992982  0.63125588  1  -0.001977  0  -0.082471  -0.101158  0  3.993408  0
C  C155  1  0.87921940  0.86152260  0.78993340  1  0.002442  0  -0.013335  0.067954  0  3.982334  0
C  C156  1  0.91629349  0.83544615  0.83769207  1  -0.053149  0  -0.08695  -0.151212  0  3.986034  0
C  C157  1  0.83157441  0.71507896  0.84566464  1  -0.015198  0  -0.000491  0.056784  0  3.885382  0
C  C158  1  0.37560311  0.25413797  0.38272027  1  -0.090809  0  -0.032354  -0.192522  0  3.927876  0
C  C159  1  0.79059310  0.74362490  0.79745931  1  -0.009513  0  -0.008059  0.013032  0  3.880847  0
C  C160  1  0.81978481  0.81166293  0.76923276  1  -0.051887  0  -0.004628  -0.03175  0  3.934151  0
C  C161  1  0.36477696  0.27909806  0.33977734  1  -0.135502  0  -0.005126  -0.006095  0  4.050403  0
C  C162  1  0.89684543  0.76089733  0.86507863  1  -0.014187  0  -0.020767  -0.106746  0  3.978559  0
C  C163  1  0.27873025  0.75933347  0.04225460  1  1.653381  0  0.280218  0.706062  0  4.168466  0
C  C164  1  0.27004598  0.46059157  0.04956443  1  1.678215  0  0.282096  0.717274  0  4.15458  0
C  C165  1  0.96501263  0.75038365  0.05039519  1  1.671441  0  0.272928  0.705357  0  4.170357  0
C  C166  1  0.26870846  0.75006317  0.90534129  1  1.560868  0  0.2702  0.645941  0  4.061379  0
C  C167  1  0.27449673  0.44468964  0.91621390  1  1.507574  0  0.278073  0.650302  0  4.060265  0
C  C168  1  0.95328383  0.73510944  0.91367152  1  1.533791  0  0.274362  0.653347  0  4.056341  0
C  C169  1  0.44918336  0.25959999  0.25886547  1  -0.032016  0  -0.07108  -0.112961  0  3.941628  0
C  C170  1  0.43783498  0.28485799  0.20966257  1  -0.068352  0  -0.071562  -0.116527  0  3.948154  0
C  C171  1  0.80667579  0.65666827  0.19073439  1  0.023006  0  -0.159239  -0.145051  0  3.979445  0
C  C172  1  0.30026150  0.41097019  0.09698309  1  0.167057  0  -0.032358  -0.190383  0  3.927529  0
C  C173  1  0.91695203  0.54284877  0.18702314  1  -0.034962  0  -0.239671  -0.351305  0  3.954746  0
C  C174  1  0.12053609  0.36491529  0.76526135  1  -0.007857  0  -0.160462  -0.144599  0  3.988181  0
C  C175  1  0.00858916  0.42021074  0.79306703  1  -0.077621  0  -0.246792  -0.361995  0  3.977576  0
C  C176  1  0.52977831  0.29068014  0.77240914  1  -0.001618  0  -0.161747  -0.143043  0  3.987197  0
C  C177  1  0.59847865  0.16633622  0.75794374  1  -0.038592  0  -0.245839  -0.353248  0  3.961419  0
C  C178  1  0.15054380  0.96263894  0.60091907  1  -0.002247  0  -0.16244  -0.155602  0  3.968517  0
C  C179  1  0.13645503  0.86038191  0.58849145  1  -0.042573  0  -0.239223  -0.343171  0  3.957463  0
C  C180  1  0.44013929  0.64482850  0.73614013  1  0.008926  0  -0.16739  -0.153582  0  3.981586  0
C  C181  1  0.35459018  0.62581785  0.70697828  1  -0.103946  0  -0.242716  -0.347918  0  3.936093  0
C  C182  1  0.43357216  0.57172669  0.83446401  1  0.01702  0  -0.173578  -0.16779  0  3.993974  0
C  C183  1  0.36003250  0.88432963  0.37497385  1  0.148916  0  -0.033764  -0.196494  0  3.944386  0
C  C184  1  0.55716219  0.52964561  0.84887308  1  -0.070237  0  -0.241223  -0.342929  0  3.948154  0
C  C185  1  0.19694444  0.05500316  0.78957965  1  0.064237  0  -0.161908  -0.141067  0  3.981481  0
C  C186  1  0.07596389  0.12034481  0.80985201  1  -0.045936  0  -0.242924  -0.353056  0  3.949494  0
C  C187  1  0.90188689  0.94396810  0.76297025  1  0.042995  0  -0.162566  -0.145955  0  4.00182  0
C  C188  1  0.02425740  0.89406893  0.74557341  1  -0.085658  0  -0.244528  -0.352141  0  3.957159  0
C  C189  1  0.70902355  0.70824623  0.77692390  1  -0.006484  0  -0.16309  -0.141903  0  3.977067  0
C  C190  1  0.74475527  0.63434194  0.73071883  1  -0.052364  0  -0.249963  -0.358188  0  3.951191  0
C  C191  1  0.79888070  0.64478047  0.87680935  1  -0.010248  0  -0.168973  -0.162543  0  3.989045  0
C  C192  1  0.68494959  0.71710096  0.90285302  1  -0.061308  0  -0.241231  -0.346763  0  3.957448  0
C  C193  1  0.25958907  0.02764482  0.16474299  1  -0.026832  0  -0.155072  -0.145138  0  3.981069  0
O  O194  1  0.47618660  0.83663562  0.44254519  1  -1.222855  0  -0.198749  -0.531143  0  2.270508  0
O  O195  1  0.17174009  0.48460989  0.03405782  1  -1.241126  0  -0.228938  -0.587707  0  2.244042  0
O  O196  1  0.97850670  0.66119741  0.02758327  1  -1.261219  0  -0.249231  -0.616781  0  2.232231  0
O  O197  1  0.67068822  0.84603521  0.43855956  1  -1.212045  0  -0.204041  -0.543828  0  2.286273  0
O  O198  1  0.96885557  0.81023020  0.93356493  1  -1.250807  0  -0.224474  -0.59262  0  2.356476  0
O  O199  1  0.16784719  0.81355080  0.91955234  1  -1.248547  0  -0.218658  -0.572808  0  2.356096  0
O  O200  1  0.34361657  0.66390752  0.92925809  1  -1.278603  0  -0.245497  -0.60876  0  2.296096  0
O  O201  1  0.34413422  0.47563816  0.93202610  1  -1.26848  0  -0.234927  -0.597808  0  2.29589  0
O  O202  1  0.18396374  0.46450244  0.93857539  1  -1.267421  0  -0.23359  -0.597057  0  2.309191  0
O  O203  1  0.99013237  0.63558564  0.93155486  1  -1.274154  0  -0.243415  -0.605737  0  2.307451  0
O  O204  1  0.16104101  0.66508635  0.97948922  1  -1.611998  0  -0.391544  -1.269166  0  2.30698  0
O  O205  1  0.47036707  0.19055824  0.54267381  1  -1.259693  0  -0.234933  -0.594892  0  2.273473  0
O  O206  1  0.69035373  0.99906517  0.45560529  1  -1.263312  0  -0.248668  -0.616572  0  2.226234  0
O  O207  1  0.49851906  0.17646447  0.44725167  1  -1.242148  0  -0.226226  -0.584827  0  2.243002  0
O  O208  1  0.32638553  0.18679276  0.45060932  1  -1.238727  0  -0.226811  -0.588037  0  2.2423  0
O  O209  1  0.31508772  0.00818786  0.43961774  1  -1.260281  0  -0.244087  -0.609946  0  2.239521  0
O  O210  1  0.48997510  0.83755885  0.54733877  1  -1.248888  0  -0.217073  -0.569869  0  2.362961  0
O  O211  1  0.69041361  0.83615776  0.54179143  1  -1.239311  0  -0.220378  -0.575432  0  2.304688  0
O  O212  1  0.66013660  0.01385494  0.55268493  1  -1.271507  0  -0.247571  -0.611698  0  2.266132  0
O  O213  1  0.31827065  0.16499614  0.54657931  1  -1.267705  0  -0.234054  -0.596744  0  2.295571  0
O  O214  1  0.31413589  0.98383516  0.53474225  1  -1.27724  0  -0.248395  -0.617002  0  2.299655  0
O  O215  1  0.50136685  0.99154125  0.49451147  1  -1.612152  0  -0.392143  -1.269872  0  2.305139  0
O  O216  1  0.99540836  0.81848556  0.03550229  1  -1.215484  0  -0.206834  -0.549091  0  2.288562  0
O  O217  1  0.18703926  0.82936316  0.02239065  1  -1.212707  0  -0.198936  -0.525414  0  2.265772  0
O  O218  1  0.35125101  0.66065277  0.02544229  1  -1.257883  0  -0.244016  -0.60788  0  2.238279  0
O  O219  1  0.34030789  0.48137255  0.02768747  1  -1.245153  0  -0.225789  -0.581936  0  2.250261  0
O  O220  1  0.65841668  0.68292387  0.48873878  1  -1.359553  0  -0.57691  -0.994152  0  1.790135  0
O  O221  1  0.00154238  0.97360458  0.97569036  1  -1.372674  0  -0.578748  -0.99411  0  1.793999  0
