# generated using pymatgen
data_Ag2P2H12C16N4O9
_symmetry_space_group_name_H-M   'P 1'
_cell_length_a   7.73409560
_cell_length_b   10.12036638
_cell_length_c   13.90459695
_cell_angle_alpha   107.13719073
_cell_angle_beta   97.98149023
_cell_angle_gamma   106.32944016
_symmetry_Int_Tables_number   1
_chemical_formula_structural   Ag2P2H12C16N4O9
_chemical_formula_sum   'Ag4 P4 H24 C32 N8 O18'
_cell_volume   968.46082816
_cell_formula_units_Z   2
loop_
 _symmetry_equiv_pos_site_id
 _symmetry_equiv_pos_as_xyz
  1  'x, y, z'
loop_
 _atom_site_type_symbol
 _atom_site_label
 _atom_site_symmetry_multiplicity
 _atom_site_fract_x
 _atom_site_fract_y
 _atom_site_fract_z
 _atom_site_occupancy
 _atom_site_hle17_bader_spin_density
 _atom_site_hle17_ddec_charge
 _atom_site_hle17_ddec_spin_density
 _atom_site_hle17_ddec_sum_bond_order
 _atom_site_hle17_magmom
 _atom_site_hse06_10hf_bader_spin_density
 _atom_site_hse06_10hf_ddec_charge
 _atom_site_hse06_10hf_ddec_spin_density
 _atom_site_hse06_10hf_ddec_sum_bond_order
 _atom_site_hse06_10hf_magmom
 _atom_site_hse06_bader_spin_density
 _atom_site_hse06_ddec_charge
 _atom_site_hse06_ddec_spin_density
 _atom_site_hse06_ddec_sum_bond_order
 _atom_site_hse06_magmom
 _atom_site_pbe_bader_spin_density
 _atom_site_pbe_cm5_charge
 _atom_site_pbe_ddec_charge
 _atom_site_pbe_ddec_spin_density
 _atom_site_pbe_ddec_sum_bond_order
 _atom_site_pbe_magmom
Ag  Ag0  1  0.82798205  0.57919827  0.54948650  1  0  0.750512  0  1.322562  0  0  0.649271  0  1.756952  0  0  0.668134  0  1.710055  0  0  0.529958  0.63721  0  1.789274  0
Ag  Ag1  1  0.17202481  0.42080177  0.45050906  1  0  0.750532  0  1.322477  0  0  0.649289  0  1.756857  0  0  0.66815  0  1.709961  0  0  0.529939  0.637219  0  1.7892  0
Ag  Ag2  1  0.45497371  0.07917139  0.09806772  1  0  0.582593  0  1.515028  0  0  0.451155  0  1.981885  0  0  0.47913  0  1.928423  0  0  0.498975  0.431666  0  2.018893  0
Ag  Ag3  1  0.54502912  0.92083433  0.90193589  1  0  0.582591  0  1.515039  0  0  0.451152  0  1.9819  0  0  0.479127  0  1.928435  0  0  0.498968  0.431646  0  2.018935  0
P  P4  1  0.08327477  0.21422593  0.11572358  1  0  1.735677  0  4.849301  0  0  1.558015  0  5.367696  0  0  1.615362  0  5.314311  0  0  0.408874  1.517927  0  5.404012  0
P  P5  1  0.91672609  0.78577212  0.88427904  1  0  1.735706  0  4.849322  0  0  1.558058  0  5.367693  0  0  1.615403  0  5.31431  0  0  0.408863  1.517968  0  5.40401  0
P  P6  1  0.69718978  0.23762877  0.34741538  1  0  1.729551  0  4.856213  0  0  1.548985  0  5.37484  0  0  1.606486  0  5.322313  0  0  0.411073  1.508875  0  5.410406  0
P  P7  1  0.30280625  0.76236709  0.65258715  1  0  1.729488  0  4.856161  0  0  1.548927  0  5.374793  0  0  1.606431  0  5.322265  0  0  0.411051  1.508815  0  5.410364  0
H  H8  1  0.29681217  0.00639743  0.23675525  1  0  0.105449  0  0.991565  0  0  0.111437  0  1.063033  0  0  0.115761  0  1.058526  0  0  0.10473  0.108162  0  1.066573  0
H  H9  1  0.70318967  0.99360286  0.76324934  1  0  0.105511  0  0.991482  0  0  0.111442  0  1.063014  0  0  0.115767  0  1.058506  0  0  0.104722  0.108169  0  1.066547  0
H  H10  1  0.09811308  0.53736640  0.17907806  1  0  0.141451  0  0.973159  0  0  0.145421  0  1.037079  0  0  0.150054  0  1.033348  0  0  0.112455  0.142039  0  1.039875  0
H  H11  1  0.90188602  0.46263373  0.82092054  1  0  0.141459  0  0.973164  0  0  0.145437  0  1.03708  0  0  0.150069  0  1.033351  0  0  0.112441  0.142054  0  1.039874  0
H  H12  1  0.98437275  0.58481258  0.33975281  1  0  0.113945  0  0.955867  0  0  0.12015  0  1.022085  0  0  0.124282  0  1.019457  0  0  0.104745  0.117124  0  1.024216  0
H  H13  1  0.01561829  0.41518092  0.66024311  1  0  0.113994  0  0.955861  0  0  0.120218  0  1.022049  0  0  0.124351  0  1.019418  0  0  0.104759  0.117193  0  1.024183  0
H  H14  1  0.02313749  0.84003988  0.44831982  1  0  0.101765  0  0.976617  0  0  0.109835  0  1.04169  0  0  0.112661  0  1.03988  0  0  0.105903  0.107864  0  1.042792  0
H  H15  1  0.97684967  0.15995366  0.55167726  1  0  0.101762  0  0.976602  0  0  0.109894  0  1.041603  0  0  0.112719  0  1.039794  0  0  0.105927  0.107923  0  1.042708  0
H  H16  1  0.46939680  0.61437577  0.79714378  1  0  0.124159  0  0.996155  0  0  0.12887  0  1.062876  0  0  0.132969  0  1.059358  0  0  0.113109  0.125845  0  1.065568  0
H  H17  1  0.53060947  0.38563202  0.20285547  1  0  0.124233  0  0.996123  0  0  0.12889  0  1.062875  0  0  0.132979  0  1.059381  0  0  0.113153  0.125865  0  1.065563  0
H  H18  1  0.36793783  0.14611775  0.68257525  1  0  0.118364  0  0.92847  0  0  0.130925  0  0.982487  0  0  0.133782  0  0.981288  0  0  0.114282  0.128856  0  0.983283  0
H  H19  1  0.63206969  0.85388997  0.31742120  1  0  0.118325  0  0.928544  0  0  0.130919  0  0.982518  0  0  0.133775  0  0.98132  0  0  0.114288  0.12885  0  0.983315  0
H  H20  1  0.22264755  0.12226828  0.82703118  1  0  0.113731  0  0.959052  0  0  0.124757  0  1.017176  0  0  0.1271  0  1.017026  0  0  0.110182  0.123024  0  1.017478  0
H  H21  1  0.77735156  0.87773503  0.17296375  1  0  0.113723  0  0.95914  0  0  0.12475  0  1.017252  0  0  0.127094  0  1.017106  0  0  0.11016  0.123018  0  1.017558  0
H  H22  1  0.20601300  0.34040667  0.95973610  1  0  0.127727  0  0.950219  0  0  0.130359  0  1.021376  0  0  0.134631  0  1.017579  0  0  0.113952  0.12726  0  1.023986  0
H  H23  1  0.79398702  0.65959880  0.04025790  1  0  0.127652  0  0.95018  0  0  0.130344  0  1.021294  0  0  0.134616  0  1.017498  0  0  0.113964  0.127245  0  1.023903  0
H  H24  1  0.87276246  0.99084462  0.05626063  1  0  0.446328  0  0.858365  0  0  0.408564  0  0.933306  0  0  0.420601  0  0.915783  0  0  0.300622  0.400169  0  0.94548  0
H  H25  1  0.12723844  0.00915347  0.94374344  1  0  0.446322  0  0.858375  0  0  0.408555  0  0.933319  0  0  0.420593  0  0.915796  0  0  0.300614  0.400161  0  0.94549  0
H  H26  1  0.31250974  0.25444893  0.25142714  1  0  0.443144  0  0.854814  0  0  0.411235  0  0.920382  0  0  0.421812  0  0.905004  0  0  0.307306  0.403841  0  0.931124  0
H  H27  1  0.68748947  0.74555133  0.74857653  1  0  0.443106  0  0.854871  0  0  0.411198  0  0.920434  0  0  0.421772  0  0.905059  0  0  0.307275  0.403804  0  0.931175  0
H  H28  1  0.82294070  0.11816726  0.22747630  1  0  0.441049  0  0.85473  0  0  0.407913  0  0.922303  0  0  0.419184  0  0.905428  0  0  0.312442  0.399943  0  0.934223  0
H  H29  1  0.17706027  0.88183408  0.77252700  1  0  0.441033  0  0.854758  0  0  0.407898  0  0.922326  0  0  0.419167  0  0.905457  0  0  0.312418  0.39993  0  0.934243  0
H  H30  1  0.62030073  0.24893653  0.49188045  1  0  0.409487  0  0.883558  0  0  0.381702  0  0.953878  0  0  0.390692  0  0.940983  0  0  0.312942  0.37548  0  0.962803  0
H  H31  1  0.37969829  0.75105716  0.50812258  1  0  0.409513  0  0.883578  0  0  0.381701  0  0.953842  0  0  0.390712  0  0.940936  0  0  0.313001  0.375472  0  0.962757  0
C  C32  1  0.17704614  0.08469751  0.40437979  1  0  0.351423  0  3.667703  0  0  0.335785  0  3.921504  0  0  0.350082  0  3.937937  0  0  0.22684  0.325868  0  3.910713  0
C  C33  1  0.82294942  0.91529725  0.59562248  1  0  0.351373  0  3.66778  0  0  0.335724  0  3.921597  0  0  0.350022  0  3.938031  0  0  0.226828  0.325804  0  3.910806  0
C  C34  1  0.16002456  0.93796536  0.34752867  1  0  0.012839  0  3.863301  0  0  0.03763  0  4.091311  0  0  0.03232  0  4.112873  0  0  0.004992  0.041044  0  4.076761  0
C  C35  1  0.83997536  0.06203047  0.65247271  1  0  0.012906  0  3.863488  0  0  0.037687  0  4.091499  0  0  0.032378  0  4.113065  0  0  0.004999  0.041101  0  4.076948  0
C  C36  1  0.22688368  0.91331923  0.25773913  1  0  -0.063936  0  3.634175  0  0  -0.096951  0  3.873629  0  0  -0.095303  0  3.891886  0  0  -0.0588  -0.097843  0  3.86149  0
C  C37  1  0.77311274  0.08667763  0.74226004  1  0  -0.06396  0  3.634091  0  0  -0.096929  0  3.873541  0  0  -0.095282  0  3.891798  0  0  -0.058797  -0.097821  0  3.861395  0
C  C38  1  0.20519302  0.76939528  0.19760200  1  0  -0.034246  0  3.81735  0  0  -0.01449  0  4.057327  0  0  -0.022139  0  4.081532  0  0  -0.006063  -0.00999  0  4.041624  0
C  C39  1  0.79480338  0.23060157  0.80239645  1  0  -0.034283  0  3.817298  0  0  -0.014493  0  4.05726  0  0  -0.022145  0  4.081474  0  0  -0.006042  -0.009986  0  4.041553  0
C  C40  1  0.11751806  0.65055048  0.22706899  1  0  -0.052888  0  3.627393  0  0  -0.081486  0  3.877145  0  0  -0.078675  0  3.89481  0  0  -0.068115  -0.082691  0  3.865086  0
C  C41  1  0.88247835  0.34944638  0.77293018  1  0  -0.052863  0  3.6275  0  0  -0.081478  0  3.877246  0  0  -0.07867  0  3.894912  0  0  -0.068083  -0.082685  0  3.86519  0
C  C42  1  0.05335968  0.67730014  0.31741743  1  0  -0.067878  0  3.727779  0  0  -0.078717  0  3.983857  0  0  -0.084975  0  4.006267  0  0  -0.081559  -0.074864  0  3.968937  0
C  C43  1  0.94663006  0.32269335  0.68257839  1  0  -0.068094  0  3.727954  0  0  -0.078907  0  3.983963  0  0  -0.085173  0  4.006391  0  0  -0.081666  -0.075055  0  3.969046  0
C  C44  1  0.07355879  0.81991170  0.37807205  1  0  -0.051252  0  3.687246  0  0  -0.077898  0  3.931725  0  0  -0.075412  0  3.950065  0  0  -0.064417  -0.079059  0  3.918853  0
C  C45  1  0.92643134  0.18007964  0.62192481  1  0  -0.051154  0  3.687337  0  0  -0.077847  0  3.931774  0  0  -0.075363  0  3.950116  0  0  -0.064365  -0.07901  0  3.918905  0
C  C46  1  0.27403535  0.74453027  0.10461759  1  0  0.400001  0  3.681654  0  0  0.356791  0  3.96042  0  0  0.377521  0  3.968748  0  0  0.24298  0.342633  0  3.954744  0
C  C47  1  0.72596690  0.25547103  0.89538435  1  0  0.399921  0  3.681546  0  0  0.356687  0  3.960368  0  0  0.377399  0  3.968699  0  0  0.24291  0.342523  0  3.954707  0
C  C48  1  0.33288078  0.62162088  0.96529661  1  0  0.402926  0  3.653673  0  0  0.362516  0  3.928821  0  0  0.382305  0  3.937252  0  0  0.246478  0.349381  0  3.92277  0
C  C49  1  0.66712139  0.37838033  0.03470171  1  0  0.402876  0  3.653868  0  0  0.362629  0  3.928863  0  0  0.3824  0  3.937295  0  0  0.246486  0.349506  0  3.922808  0
C  C50  1  0.34007738  0.49245335  0.88791604  1  0  -0.025864  0  3.796749  0  0  -0.006914  0  4.036863  0  0  -0.013539  0  4.059164  0  0  -0.001904  -0.002696  0  4.021637  0
C  C51  1  0.65992934  0.50755234  0.11208642  1  0  -0.025864  0  3.796822  0  0  -0.007003  0  4.036934  0  0  -0.013628  0  4.059241  0  0  -0.001919  -0.002783  0  4.021702  0
C  C52  1  0.42020043  0.50802517  0.80602177  1  0  -0.052939  0  3.602758  0  0  -0.086762  0  3.840402  0  0  -0.084557  0  3.857713  0  0  -0.053785  -0.088363  0  3.829262  0
C  C53  1  0.57980861  0.49198598  0.19398053  1  0  -0.053054  0  3.602969  0  0  -0.086744  0  3.840532  0  0  -0.084543  0  3.857842  0  0  -0.053786  -0.088345  0  3.829389  0
C  C54  1  0.43205084  0.38362438  0.73283608  1  0  0.001041  0  3.861012  0  0  0.027151  0  4.094167  0  0  0.021341  0  4.115983  0  0  0.005565  0.030789  0  4.079727  0
C  C55  1  0.56795546  0.61638342  0.26716390  1  0  0.001143  0  3.861043  0  0  0.027191  0  4.094261  0  0  0.021383  0  4.116071  0  0  0.005569  0.030829  0  4.079821  0
C  C56  1  0.36017350  0.24325184  0.73975398  1  0  -0.06684  0  3.683317  0  0  -0.096105  0  3.934896  0  0  -0.094681  0  3.954532  0  0  -0.065212  -0.096564  0  3.921216  0
C  C57  1  0.63983325  0.75675705  0.26024553  1  0  -0.066821  0  3.683241  0  0  -0.096124  0  3.934842  0  0  -0.094696  0  3.95449  0  0  -0.065233  -0.096584  0  3.921167  0
C  C58  1  0.27932712  0.23010921  0.82148588  1  0  -0.054317  0  3.719222  0  0  -0.068916  0  3.978964  0  0  -0.074546  0  4.002662  0  0  -0.08208  -0.065457  0  3.963008  0
C  C59  1  0.72067732  0.76989740  0.17851012  1  0  -0.054385  0  3.71923  0  0  -0.068961  0  3.978953  0  0  -0.074592  0  4.002645  0  0  -0.082072  -0.065503  0  3.963002  0
C  C60  1  0.26937259  0.35293689  0.89601007  1  0  -0.048051  0  3.638167  0  0  -0.080216  0  3.897646  0  0  -0.077021  0  3.914673  0  0  -0.065822  -0.081809  0  3.885628  0
C  C61  1  0.73062524  0.64706645  0.10398621  1  0  -0.047964  0  3.638165  0  0  -0.08017  0  3.897638  0  0  -0.076976  0  3.91467  0  0  -0.065831  -0.081764  0  3.885622  0
C  C62  1  0.52184553  0.40192663  0.65281283  1  0  0.36837  0  3.673045  0  0  0.343641  0  3.936492  0  0  0.359043  0  3.951764  0  0  0.234484  0.33294  0  3.927031  0
C  C63  1  0.47815881  0.59807668  0.34718249  1  0  0.368408  0  3.672902  0  0  0.343681  0  3.936385  0  0  0.359085  0  3.951654  0  0  0.234477  0.332979  0  3.926925  0
N  N64  1  0.36146502  0.83982690  0.06542986  1  0  -0.290437  0  3.199619  0  0  -0.235593  0  3.508524  0  0  -0.252602  0  3.521008  0  0  -0.251199  -0.224225  0  3.500074  0
N  N65  1  0.63853905  0.16017556  0.93457462  1  0  -0.290441  0  3.199602  0  0  -0.235581  0  3.508535  0  0  -0.252591  0  3.521023  0  0  -0.251201  -0.224206  0  3.500082  0
N  N66  1  0.39794126  0.76093358  0.97562542  1  0  -0.25699  0  3.120231  0  0  -0.208715  0  3.418383  0  0  -0.22393  0  3.431115  0  0  -0.236916  -0.198451  0  3.409631  0
N  N67  1  0.60206330  0.23907319  0.02437637  1  0  -0.256938  0  3.120486  0  0  -0.208731  0  3.418626  0  0  -0.223946  0  3.431364  0  0  -0.236916  -0.198466  0  3.409863  0
N  N68  1  0.59961488  0.41705147  0.58835838  1  0  -0.486365  0  2.904915  0  0  -0.438192  0  3.202257  0  0  -0.452911  0  3.203268  0  0  -0.332942  -0.429055  0  3.202623  0
N  N69  1  0.40038555  0.58295185  0.41163737  1  0  -0.486382  0  2.904747  0  0  -0.438204  0  3.202072  0  0  -0.452926  0  3.203096  0  0  -0.332909  -0.429071  0  3.202427  0
N  N70  1  0.18952917  0.20619301  0.44738189  1  0  -0.453174  0  2.910571  0  0  -0.408551  0  3.214516  0  0  -0.423582  0  3.217727  0  0  -0.337981  -0.398845  0  3.212696  0
N  N71  1  0.81046285  0.79379956  0.55262039  1  0  -0.453149  0  2.910609  0  0  -0.408504  0  3.214528  0  0  -0.423534  0  3.217739  0  0  -0.33799  -0.398799  0  3.212704  0
O  O72  1  0.25448602  0.60552177  0.04501267  1  0  -0.229335  0  2.327287  0  0  -0.149221  0  2.541602  0  0  -0.16925  0  2.545421  0  0  -0.069356  -0.135923  0  2.538912  0
O  O73  1  0.74551791  0.39448052  0.95498529  1  0  -0.22925  0  2.327178  0  0  -0.149242  0  2.541565  0  0  -0.169215  0  2.54534  0  0  -0.069344  -0.135973  0  2.538899  0
O  O74  1  0.18941852  0.14095274  0.04438021  1  0  -0.913039  0  2.031945  0  0  -0.81701  0  2.303527  0  0  -0.845921  0  2.279326  0  0  -0.392102  -0.796197  0  2.319532  0
O  O75  1  0.81058189  0.85904422  0.95562288  1  0  -0.91308  0  2.03196  0  0  -0.817037  0  2.303533  0  0  -0.845948  0  2.279332  0  0  -0.392138  -0.796221  0  2.319539  0
O  O76  1  0.91116354  0.08368790  0.12217786  1  0  -0.827511  0  2.02654  0  0  -0.749414  0  2.263655  0  0  -0.771051  0  2.23268  0  0  -0.397524  -0.734067  0  2.284868  0
O  O77  1  0.08884214  0.91630912  0.87782706  1  0  -0.827482  0  2.026518  0  0  -0.749382  0  2.263646  0  0  -0.771002  0  2.232636  0  0  -0.39749  -0.734038  0  2.284863  0
O  O78  1  0.01931300  0.32779174  0.08899751  1  0  -0.866928  0  1.86246  0  0  -0.804556  0  2.110186  0  0  -0.829635  0  2.091596  0  0  -0.390318  -0.786717  0  2.122609  0
O  O79  1  0.98068335  0.67220186  0.91100243  1  0  -0.866939  0  1.862482  0  0  -0.804594  0  2.110215  0  0  -0.829672  0  2.091621  0  0  -0.390314  -0.786756  0  2.122645  0
O  O80  1  0.20406798  0.28518494  0.23369951  1  0  -0.806298  0  2.022472  0  0  -0.73607  0  2.261289  0  0  -0.75783  0  2.234368  0  0  -0.403583  -0.720651  0  2.279613  0
O  O81  1  0.79593250  0.71481529  0.76630280  1  0  -0.806276  0  2.022495  0  0  -0.736065  0  2.261345  0  0  -0.75783  0  2.234429  0  0  -0.403554  -0.720649  0  2.279666  0
O  O82  1  0.52290832  0.23276377  0.27776196  1  0  -0.915995  0  2.023054  0  0  -0.81701  0  2.281406  0  0  -0.846805  0  2.258485  0  0  -0.384935  -0.795793  0  2.296607  0
O  O83  1  0.47708998  0.76723433  0.72224264  1  0  -0.915981  0  2.023109  0  0  -0.817028  0  2.281484  0  0  -0.846827  0  2.258565  0  0  -0.384948  -0.795799  0  2.296657  0
O  O84  1  0.77423650  0.11368104  0.29011639  1  0  -0.779363  0  2.016695  0  0  -0.71049  0  2.249797  0  0  -0.731957  0  2.222924  0  0  -0.390628  -0.695386  0  2.268245  0
O  O85  1  0.22576090  0.88631808  0.70988547  1  0  -0.779359  0  2.016725  0  0  -0.710491  0  2.249839  0  0  -0.73196  0  2.222962  0  0  -0.39061  -0.695388  0  2.268287  0
O  O86  1  0.64066974  0.17313476  0.43570634  1  0  -0.750492  0  1.97113  0  0  -0.68487  0  2.188545  0  0  -0.7059  0  2.16562  0  0  -0.397384  -0.669988  0  2.20405  0
O  O87  1  0.35933151  0.82686111  0.56429658  1  0  -0.750517  0  1.971125  0  0  -0.684815  0  2.188648  0  0  -0.70588  0  2.165647  0  0  -0.397454  -0.669928  0  2.204225  0
O  O88  1  0.84805808  0.38894675  0.39528426  1  0  -0.927394  0  2.015073  0  0  -0.833968  0  2.315051  0  0  -0.863032  0  2.287389  0  0  -0.390219  -0.81329  0  2.333496  0
O  O89  1  0.15194053  0.61104908  0.60471701  1  0  -0.927338  0  2.015038  0  0  -0.833934  0  2.31506  0  0  -0.862996  0  2.287393  0  0  -0.390192  -0.813256  0  2.333507  0
