# generated using pymatgen
data_CdNiH14(C5N4)2
_symmetry_space_group_name_H-M   'P 1'
_cell_length_a   8.55246000
_cell_length_b   8.59186827
_cell_length_c   11.36288249
_cell_angle_alpha   75.06976913
_cell_angle_beta   75.04801230
_cell_angle_gamma   70.36014161
_symmetry_Int_Tables_number   1
_chemical_formula_structural   CdNiH14(C5N4)2
_chemical_formula_sum   'Cd2 Ni2 H28 C20 N16'
_cell_volume   746.23845763
_cell_formula_units_Z   2
loop_
 _symmetry_equiv_pos_site_id
 _symmetry_equiv_pos_as_xyz
  1  'x, y, z'
loop_
 _atom_site_type_symbol
 _atom_site_label
 _atom_site_symmetry_multiplicity
 _atom_site_fract_x
 _atom_site_fract_y
 _atom_site_fract_z
 _atom_site_occupancy
 _atom_site_hle17_bader_spin_density
 _atom_site_hle17_ddec_charge
 _atom_site_hle17_ddec_spin_density
 _atom_site_hle17_ddec_sum_bond_order
 _atom_site_hle17_magmom
 _atom_site_hse06_10hf_bader_spin_density
 _atom_site_hse06_10hf_ddec_charge
 _atom_site_hse06_10hf_ddec_spin_density
 _atom_site_hse06_10hf_ddec_sum_bond_order
 _atom_site_hse06_10hf_magmom
 _atom_site_hse06_bader_spin_density
 _atom_site_hse06_ddec_charge
 _atom_site_hse06_ddec_spin_density
 _atom_site_hse06_ddec_sum_bond_order
 _atom_site_hse06_magmom
 _atom_site_pbe_bader_spin_density
 _atom_site_pbe_cm5_charge
 _atom_site_pbe_ddec_charge
 _atom_site_pbe_ddec_spin_density
 _atom_site_pbe_ddec_sum_bond_order
 _atom_site_pbe_magmom
Cd  Cd0  1  0.16682526  0.34540732  0.72796010  1  0  1.059385  0  1.812165  0  0  0.875103  0  2.264609  0  0  0.91967  0  2.225502  0  0  0.774651  0.843827  0  2.291191  0
Cd  Cd1  1  0.83317542  0.65459321  0.27203858  1  0  1.059384  0  1.8122  0  0  0.875102  0  2.264639  0  0  0.91967  0  2.225531  0  0  0.774647  0.843827  0  2.29122  0
Ni  Ni2  1  0.99999573  0.00000128  0.50000124  1  0  0.123521  0  3.39194  0  0  0.142441  0  3.842732  0  0  0.149237  0  3.801855  0  0  0.393346  0.146294  0  3.865642  0
Ni  Ni3  1  0.50000264  0.49999783  0.99999915  1  0  0.127979  0  3.393838  0  0  0.142079  0  3.855821  0  0  0.151301  0  3.809188  0  0  0.394164  0.144582  0  3.882004  0
H  H4  1  0.21263061  0.51034534  0.47662748  1  0  0.328949  0  0.923475  0  0  0.3152  0  0.986249  0  0  0.320142  0  0.983979  0  0  0.281081  0.311658  0  0.987935  0
H  H5  1  0.78736969  0.48965644  0.52337103  1  0  0.328948  0  0.923481  0  0  0.315196  0  0.986261  0  0  0.320139  0  0.98399  0  0  0.281082  0.311654  0  0.987948  0
H  H6  1  0.40109109  0.37588148  0.49811267  1  0  0.334361  0  0.925916  0  0  0.318234  0  0.991748  0  0  0.325012  0  0.986279  0  0  0.277792  0.313396  0  0.995659  0
H  H7  1  0.59890959  0.62411906  0.50188512  1  0  0.334361  0  0.925932  0  0  0.318231  0  0.991769  0  0  0.325009  0  0.986299  0  0  0.277802  0.313393  0  0.995682  0
H  H8  1  0.33338190  0.56245966  0.54198854  1  0  0.330295  0  0.926626  0  0  0.317843  0  0.985342  0  0  0.323207  0  0.982662  0  0  0.280451  0.314032  0  0.987268  0
H  H9  1  0.66661998  0.43754089  0.45800990  1  0  0.330252  0  0.926604  0  0  0.317797  0  0.985338  0  0  0.323161  0  0.98266  0  0  0.280436  0.313988  0  0.987262  0
H  H10  1  0.32709967  0.98763755  0.76181164  1  0  0.286912  0  0.907195  0  0  0.280555  0  0.958794  0  0  0.285012  0  0.957045  0  0  0.292722  0.277444  0  0.959964  0
H  H11  1  0.67289942  0.01236423  0.23818710  1  0  0.287056  0  0.907076  0  0  0.280651  0  0.958731  0  0  0.285108  0  0.956982  0  0  0.292762  0.277541  0  0.959899  0
H  H12  1  0.42512132  0.06543288  0.62557729  1  0  0.291947  0  0.90632  0  0  0.281877  0  0.96516  0  0  0.286851  0  0.962619  0  0  0.28988  0.278369  0  0.966979  0
H  H13  1  0.57487897  0.93456891  0.37442210  1  0  0.291942  0  0.906384  0  0  0.281916  0  0.965163  0  0  0.28689  0  0.962622  0  0  0.289887  0.278408  0  0.966984  0
H  H14  1  0.94152497  0.20655900  0.93988085  1  0  0.329677  0  0.93677  0  0  0.317009  0  0.9969  0  0  0.322275  0  0.994356  0  0  0.276775  0.313284  0  0.998682  0
H  H15  1  0.05847532  0.79344278  0.06011854  1  0  0.329701  0  0.936712  0  0  0.317027  0  0.996852  0  0  0.322295  0  0.994303  0  0  0.276784  0.313302  0  0.998636  0
H  H16  1  0.05471195  0.29341378  0.98540064  1  0  0.321155  0  0.909464  0  0  0.31373  0  0.961736  0  0  0.318148  0  0.960193  0  0  0.284465  0.310549  0  0.962901  0
H  H17  1  0.94528871  0.70658673  0.01460068  1  0  0.321159  0  0.909478  0  0  0.313731  0  0.96176  0  0  0.318148  0  0.960216  0  0  0.284473  0.310549  0  0.962925  0
H  H18  1  0.13915334  0.10157892  0.95430453  1  0  0.333957  0  0.942289  0  0  0.314975  0  1.013453  0  0  0.322216  0  1.007435  0  0  0.273922  0.309845  0  1.017664  0
H  H19  1  0.86084771  0.89842035  0.04569519  1  0  0.333944  0  0.942304  0  0  0.314962  0  1.013467  0  0  0.322202  0  1.00745  0  0  0.27393  0.309832  0  1.017677  0
H  H20  1  0.85319900  0.99011152  0.80167862  1  0  0.113863  0  0.948854  0  0  0.124601  0  1.007474  0  0  0.127573  0  1.006926  0  0  0.108433  0.122468  0  1.008141  0
H  H21  1  0.14679963  0.00988771  0.19832333  1  0  0.113768  0  0.948808  0  0  0.124517  0  1.00744  0  0  0.127486  0  1.00689  0  0  0.108405  0.122383  0  1.008105  0
H  H22  1  0.48270927  0.06853818  0.86996032  1  0  0.084429  0  0.913647  0  0  0.102415  0  0.972874  0  0  0.102509  0  0.974004  0  0  0.112821  0.102323  0  0.972159  0
H  H23  1  0.51728944  0.93146485  0.13003913  1  0  0.084452  0  0.913649  0  0  0.102441  0  0.972862  0  0  0.102539  0  0.973995  0  0  0.112845  0.102352  0  0.972145  0
H  H24  1  0.58164716  0.16464996  0.72779225  1  0  0.077714  0  0.916047  0  0  0.096635  0  0.973445  0  0  0.096502  0  0.974721  0  0  0.110763  0.096754  0  0.972551  0
H  H25  1  0.41835351  0.83535056  0.27220731  1  0  0.07774  0  0.916038  0  0  0.096647  0  0.973451  0  0  0.096518  0  0.97473  0  0  0.110762  0.096767  0  0.972557  0
H  H26  1  0.52760721  0.75563539  0.72137471  1  0  0.108092  0  0.970597  0  0  0.113565  0  1.039287  0  0  0.117255  0  1.037751  0  0  0.105335  0.110948  0  1.040573  0
H  H27  1  0.47239067  0.24436636  0.27862514  1  0  0.108114  0  0.970624  0  0  0.113599  0  1.039306  0  0  0.117288  0  1.037771  0  0  0.105356  0.110982  0  1.040591  0
H  H28  1  0.08546270  0.72060474  0.78556880  1  0  0.077591  0  0.955002  0  0  0.084912  0  1.02003  0  0  0.0871  0  1.018737  0  0  0.112487  0.08338  0  1.02098  0
H  H29  1  0.91453592  0.27939449  0.21443403  1  0  0.077577  0  0.955022  0  0  0.084888  0  1.020061  0  0  0.087075  0  1.01877  0  0  0.112479  0.083358  0  1.021009  0
H  H30  1  0.76751111  0.49377264  0.72067388  1  0  0.069936  0  0.958312  0  0  0.077448  0  1.026234  0  0  0.08056  0  1.022641  0  0  0.112177  0.075132  0  1.029036  0
H  H31  1  0.23248715  0.50622786  0.27932702  1  0  0.069942  0  0.958308  0  0  0.07745  0  1.026228  0  0  0.080563  0  1.022633  0  0  0.11218  0.075135  0  1.029027  0
C  C32  1  0.21968459  0.88865332  0.52326815  1  0  0.045415  0  3.515076  0  0  0.022207  0  3.850432  0  0  0.027508  0  3.855931  0  0  0.006717  0.015896  0  3.847071  0
C  C33  1  0.78031714  0.11133963  0.47673353  1  0  0.045514  0  3.515136  0  0  0.022326  0  3.850468  0  0  0.027636  0  3.855963  0  0  0.006816  0.016008  0  3.84711  0
C  C34  1  0.38437056  0.46953252  0.89639530  1  0  0.08248  0  3.509251  0  0  0.0513  0  3.839986  0  0  0.060154  0  3.844108  0  0  0.013946  0.042988  0  3.836731  0
C  C35  1  0.61563533  0.53046682  0.10360084  1  0  0.082428  0  3.509223  0  0  0.051237  0  3.839971  0  0  0.060091  0  3.844093  0  0  0.013935  0.042926  0  3.836715  0
C  C36  1  0.00115198  0.16836445  0.57107712  1  0  0.093282  0  3.501499  0  0  0.060182  0  3.831278  0  0  0.070459  0  3.835718  0  0  0.017416  0.050937  0  3.827964  0
C  C37  1  0.99884741  0.83163228  0.42892341  1  0  0.093284  0  3.501501  0  0  0.060185  0  3.83128  0  0  0.07046  0  3.835722  0  0  0.017405  0.050943  0  3.827962  0
C  C38  1  0.82942305  0.88324594  0.78214559  1  0  -0.169776  0  3.721285  0  0  -0.190715  0  3.978498  0  0  -0.197539  0  3.995759  0  0  -0.083106  -0.186685  0  3.967567  0
C  C39  1  0.17057761  0.11675457  0.21785661  1  0  -0.169683  0  3.721278  0  0  -0.19061  0  3.978532  0  0  -0.197428  0  3.995786  0  0  -0.083065  -0.186577  0  3.967597  0
C  C40  1  0.52921291  0.05853356  0.77159448  1  0  0.027826  0  3.698602  0  0  -0.03474  0  3.96097  0  0  -0.0317  0  3.973544  0  0  -0.066627  -0.036784  0  3.952166  0
C  C41  1  0.47078617  0.94146821  0.22840514  1  0  0.027806  0  3.698597  0  0  -0.034722  0  3.960974  0  0  -0.031702  0  3.973576  0  0  -0.066631  -0.036768  0  3.95217  0
C  C42  1  0.64727607  0.75427126  0.73931336  1  0  -0.16925  0  3.715393  0  0  -0.188624  0  3.968207  0  0  -0.196627  0  3.988453  0  0  -0.086178  -0.183636  0  3.955055  0
C  C43  1  0.35272264  0.24573176  0.26068697  1  0  -0.169295  0  3.71542  0  0  -0.188658  0  3.968247  0  0  -0.196663  0  3.988495  0  0  -0.086217  -0.183674  0  3.955109  0
C  C44  1  0.95842307  0.73347795  0.77456002  1  0  0.11163  0  3.758962  0  0  0.08111  0  4.019545  0  0  0.088726  0  4.035118  0  0  0.038629  0.076038  0  4.009407  0
C  C45  1  0.04157556  0.26652128  0.22544193  1  0  0.111634  0  3.758999  0  0  0.081115  0  4.019592  0  0  0.088733  0  4.035161  0  0  0.038655  0.076044  0  4.009447  0
C  C46  1  0.66929448  0.89619690  0.76372025  1  0  0.128723  0  3.699117  0  0  0.14452  0  3.937307  0  0  0.149459  0  3.959542  0  0  0.013827  0.141383  0  3.922261  0
C  C47  1  0.33070619  0.10380362  0.23628019  1  0  0.128759  0  3.699105  0  0  0.144481  0  3.937405  0  0  0.149426  0  3.959645  0  0  0.013826  0.141342  0  3.92236  0
C  C48  1  0.78191108  0.60778610  0.73650561  1  0  0.127497  0  3.737163  0  0  0.095742  0  3.99773  0  0  0.103203  0  4.014161  0  0  0.042304  0.090651  0  3.987034  0
C  C49  1  0.21808717  0.39221439  0.26349529  1  0  0.12743  0  3.737241  0  0  0.095694  0  3.997795  0  0  0.103154  0  4.014229  0  0  0.042275  0.090601  0  3.987098  0
C  C50  1  0.36955209  0.72061388  0.99379409  1  0  0.046917  0  3.526691  0  0  0.02277  0  3.861734  0  0  0.028469  0  3.865413  0  0  0.008782  0.016143  0  3.859478  0
C  C51  1  0.63045213  0.27938290  0.00620462  1  0  0.046824  0  3.526871  0  0  0.022658  0  3.861945  0  0  0.028372  0  3.865599  0  0  0.008743  0.016031  0  3.859688  0
N  N52  1  0.29713118  0.46330266  0.53541020  1  0  -0.889996  0  2.888256  0  0  -0.842179  0  3.094485  0  0  -0.863677  0  3.083707  0  0  -0.782486  -0.826929  0  3.101805  0
N  N53  1  0.70286949  0.53669786  0.46458935  1  0  -0.889952  0  2.88824  0  0  -0.842123  0  3.094454  0  0  -0.863622  0  3.083679  0  0  -0.782472  -0.826874  0  3.101773  0
N  N54  1  0.38463099  0.07908824  0.71635003  1  0  -0.634532  0  3.101476  0  0  -0.585258  0  3.346071  0  0  -0.603395  0  3.346957  0  0  -0.62599  -0.572358  0  3.345034  0
N  N55  1  0.61536772  0.92091478  0.28364942  1  0  -0.634716  0  3.101514  0  0  -0.585446  0  3.346137  0  0  -0.603578  0  3.347027  0  0  -0.626047  -0.572544  0  3.3451  0
N  N56  1  0.00100233  0.27364405  0.61980532  1  0  -0.475904  0  2.924495  0  0  -0.40485  0  3.201867  0  0  -0.424157  0  3.212157  0  0  -0.37646  -0.391116  0  3.195066  0
N  N57  1  0.99899788  0.72635394  0.38019568  1  0  -0.475895  0  2.924559  0  0  -0.404841  0  3.201933  0  0  -0.424149  0  3.212225  0  0  -0.376435  -0.391109  0  3.195128  0
N  N58  1  0.06028511  0.21904517  0.92651852  1  0  -0.892692  0  2.895762  0  0  -0.847922  0  3.104487  0  0  -0.869286  0  3.093534  0  0  -0.786065  -0.832582  0  3.111816  0
N  N59  1  0.93971639  0.78095663  0.07348063  1  0  -0.892719  0  2.895752  0  0  -0.847953  0  3.104467  0  0  -0.869316  0  3.093512  0  0  -0.786095  -0.832612  0  3.111799  0
N  N60  1  0.31265857  0.44907924  0.82909841  1  0  -0.459321  0  2.945596  0  0  -0.38889  0  3.226165  0  0  -0.407978  0  3.238055  0  0  -0.372566  -0.375212  0  3.218214  0
N  N61  1  0.68734648  0.55091881  0.17089990  1  0  -0.459256  0  2.945605  0  0  -0.38881  0  3.226161  0  0  -0.407899  0  3.238052  0  0  -0.372552  -0.375134  0  3.218208  0
N  N62  1  0.35956264  0.81697248  0.53692316  1  0  -0.452919  0  2.781384  0  0  -0.403482  0  3.028777  0  0  -0.417511  0  3.04185  0  0  -0.360486  -0.393244  0  3.020344  0
N  N63  1  0.64043156  0.18302547  0.46307548  1  0  -0.453033  0  2.781358  0  0  -0.403608  0  3.028748  0  0  -0.41764  0  3.041819  0  0  -0.360599  -0.393369  0  3.020315  0
N  N64  1  0.28613115  0.86153346  0.98916453  1  0  -0.449202  0  2.817909  0  0  -0.396354  0  3.061419  0  0  -0.410721  0  3.075194  0  0  -0.355056  -0.385781  0  3.052323  0
N  N65  1  0.71387028  0.13846456  0.01083360  1  0  -0.449107  0  2.818014  0  0  -0.396251  0  3.061512  0  0  -0.410622  0  3.075289  0  0  -0.355023  -0.385678  0  3.052415  0
N  N66  1  0.93570123  0.59673277  0.75255350  1  0  -0.344186  0  3.252299  0  0  -0.27117  0  3.519001  0  0  -0.289684  0  3.537605  0  0  -0.334117  -0.258543  0  3.506233  0
N  N67  1  0.06429740  0.40326646  0.24744845  1  0  -0.344118  0  3.252352  0  0  -0.271101  0  3.519029  0  0  -0.289615  0  3.537633  0  0  -0.334103  -0.258475  0  3.506262  0
