# generated using pymatgen
data_SnH8C12(NCl)2
_symmetry_space_group_name_H-M   'P 1'
_cell_length_a   8.17737436
_cell_length_b   9.25294666
_cell_length_c   9.25311909
_cell_angle_alpha   65.50382056
_cell_angle_beta   77.75363466
_cell_angle_gamma   77.75505834
_symmetry_Int_Tables_number   1
_chemical_formula_structural   SnH8C12(NCl)2
_chemical_formula_sum   'Sn2 H16 C24 N4 Cl4'
_cell_volume   616.52124559
_cell_formula_units_Z   2
loop_
 _symmetry_equiv_pos_site_id
 _symmetry_equiv_pos_as_xyz
  1  'x, y, z'
loop_
 _atom_site_type_symbol
 _atom_site_label
 _atom_site_symmetry_multiplicity
 _atom_site_fract_x
 _atom_site_fract_y
 _atom_site_fract_z
 _atom_site_occupancy
 _atom_site_pbe_bader_spin_density
 _atom_site_pbe_cm5_charge
 _atom_site_pbe_ddec_charge
 _atom_site_pbe_ddec_spin_density
 _atom_site_pbe_ddec_sum_bond_order
 _atom_site_pbe_magmom
Sn  Sn0  1  0.75001570  0.04944869  0.95054941  1  0  0.412419  0.698385  0  2.323974  0
Sn  Sn1  1  0.25005552  0.95057701  0.04945649  1  0  0.412438  0.698422  0  2.323816  0
H  H2  1  0.07408629  0.98432968  0.68892355  1  0  0.105207  0.083834  0  1.042641  0
H  H3  1  0.42589356  0.31108398  0.01566684  1  0  0.105213  0.083771  0  1.042527  0
H  H4  1  0.92590766  0.01566490  0.31107404  1  0  0.10519  0.083782  0  1.042612  0
H  H5  1  0.57410133  0.68891912  0.98433021  1  0  0.105198  0.083762  0  1.042596  0
H  H6  1  0.20218089  0.11588932  0.40020883  1  0  0.093619  0.116469  0  1.048691  0
H  H7  1  0.29781294  0.59979578  0.88409815  1  0  0.093612  0.116523  0  1.04868  0
H  H8  1  0.79781158  0.88410640  0.59978750  1  0  0.093625  0.11651  0  1.048642  0
H  H9  1  0.70218007  0.40020356  0.11589438  1  0  0.093634  0.116521  0  1.048654  0
H  H10  1  0.07537697  0.39377675  0.23630476  1  0  0.110808  0.119345  0  0.978725  0
H  H11  1  0.42462599  0.76369830  0.60621320  1  0  0.110773  0.119332  0  0.978728  0
H  H12  1  0.92461533  0.60622021  0.76369540  1  0  0.110789  0.119357  0  0.978732  0
H  H13  1  0.57537261  0.23630492  0.39378090  1  0  0.110813  0.11933  0  0.978785  0
H  H14  1  0.86982554  0.63795871  0.22648667  1  0  0.090709  0.107372  0  1.058738  0
H  H15  1  0.63017971  0.77350521  0.36203104  1  0  0.090687  0.107295  0  1.058798  0
H  H16  1  0.13017048  0.36203838  0.77351162  1  0  0.090727  0.107407  0  1.0587  0
H  H17  1  0.36982007  0.22649206  0.63796968  1  0  0.090688  0.1073  0  1.058784  0
C  C18  1  0.02287760  0.10499966  0.61262979  1  0  0.060519  0.103628  0  3.914839  0
C  C19  1  0.47711394  0.38737088  0.89499398  1  0  0.060437  0.10357  0  3.914872  0
C  C20  1  0.97712032  0.89499387  0.38736855  1  0  0.060513  0.103657  0  3.914932  0
C  C21  1  0.52288411  0.61262871  0.10500285  1  0  0.06045  0.10358  0  3.914907  0
C  C22  1  0.09351847  0.17917178  0.45186421  1  0  -0.082251  -0.121073  0  3.967123  0
C  C23  1  0.40647209  0.54814339  0.82081933  1  0  -0.082226  -0.121105  0  3.967046  0
C  C24  1  0.90647052  0.82082260  0.54813445  1  0  -0.082257  -0.121092  0  3.966982  0
C  C25  1  0.59352449  0.45185735  0.17917730  1  0  -0.082185  -0.121033  0  3.966968  0
C  C26  1  0.02434465  0.33255701  0.36168189  1  0  -0.056296  -0.058597  0  3.897312  0
C  C27  1  0.47565533  0.63831795  0.66743523  1  0  -0.056228  -0.058529  0  3.897458  0
C  C28  1  0.97565159  0.66743889  0.63831687  1  0  -0.05629  -0.058673  0  3.897328  0
C  C29  1  0.52433818  0.36167903  0.33256252  1  0  -0.05632  -0.058604  0  3.897424  0
C  C30  1  0.88709063  0.41302395  0.43355927  1  0  0.000435  0.043826  0  4.005579  0
C  C31  1  0.61290751  0.56644553  0.58696967  1  0  0.000478  0.043831  0  4.005732  0
C  C32  1  0.11290463  0.58697073  0.56644343  1  0  0.000462  0.043908  0  4.005486  0
C  C33  1  0.38709239  0.43355779  0.41302953  1  0  0.000454  0.043836  0  4.005685  0
C  C34  1  0.82116241  0.32798074  0.59571836  1  0  0.12158  0.117899  0  3.961554  0
C  C35  1  0.67883524  0.40427867  0.67201849  1  0  0.121517  0.117764  0  3.961544  0
C  C36  1  0.17883862  0.67201658  0.40428209  1  0  0.121567  0.117835  0  3.961522  0
C  C37  1  0.32116558  0.59571986  0.32798364  1  0  0.121518  0.117791  0  3.961567  0
C  C38  1  0.81519103  0.57504379  0.35030293  1  0  -0.087095  -0.119512  0  3.977375  0
C  C39  1  0.68480985  0.64968796  0.42495235  1  0  -0.087039  -0.119394  0  3.977545  0
C  C40  1  0.18480793  0.42495101  0.64969683  1  0  -0.087134  -0.119607  0  3.977508  0
C  C41  1  0.31518768  0.35030802  0.57504936  1  0  -0.087035  -0.119344  0  3.977465  0
N  N42  1  0.88958625  0.17614421  0.68160280  1  0  -0.28567  -0.224348  0  3.49436  0
N  N43  1  0.61040420  0.31840117  0.82385067  1  0  -0.285633  -0.224265  0  3.494344  0
N  N44  1  0.11041457  0.82385433  0.31839933  1  0  -0.285646  -0.224332  0  3.49437  0
N  N45  1  0.38960072  0.68160238  0.17615069  1  0  -0.285646  -0.224299  0  3.494235  0
Cl  Cl46  1  0.43931680  0.02615077  0.22101059  1  0  -0.277713  -0.517928  0  1.119661  0
Cl  Cl47  1  0.06069441  0.77902941  0.97385272  1  0  -0.277853  -0.51809  0  1.119351  0
Cl  Cl48  1  0.56068521  0.97384915  0.77900477  1  0  -0.277801  -0.518028  0  1.119486  0
Cl  Cl49  1  0.93930476  0.22098479  0.02614742  1  0  -0.27776  -0.517988  0  1.119618  0
