# generated using pymatgen
data_FeH14C16(ClO2)4
_symmetry_space_group_name_H-M   'P 1'
_cell_length_a   7.42451787
_cell_length_b   7.37670785
_cell_length_c   17.43641600
_cell_angle_alpha   88.47848537
_cell_angle_beta   89.99978584
_cell_angle_gamma   89.99328302
_symmetry_Int_Tables_number   1
_chemical_formula_structural   FeH14C16(ClO2)4
_chemical_formula_sum   'Fe2 H28 C32 Cl8 O16'
_cell_volume   954.62963342
_cell_formula_units_Z   2
loop_
 _symmetry_equiv_pos_site_id
 _symmetry_equiv_pos_as_xyz
  1  'x, y, z'
loop_
 _atom_site_type_symbol
 _atom_site_label
 _atom_site_symmetry_multiplicity
 _atom_site_fract_x
 _atom_site_fract_y
 _atom_site_fract_z
 _atom_site_occupancy
 _atom_site_pbe_cm5_charge
 _atom_site_pbe_ddec_charge
 _atom_site_pbe_ddec_spin_density
 _atom_site_pbe_ddec_sum_bond_order
 _atom_site_pbe_magmom
Fe  Fe0  1  0.49999556  0.49999409  0.00000314  1  0.560708  0.7668  0.041367  2.997384  0.025
Fe  Fe1  1  0.99999625  0.99999858  0.00000070  1  0.560727  0.766666  -0.041407  2.997772  -0.025
H  H2  1  0.07141433  0.27870326  0.35513508  1  0.092994  0.106684  -3e-06  1.037765  0.0
H  H3  1  0.57142098  0.22134742  0.64486856  1  0.092999  0.106701  3e-06  1.037758  0.0
H  H4  1  0.92859649  0.72130442  0.64486268  1  0.092994  0.106684  -3e-06  1.037793  0.0
H  H5  1  0.42857502  0.77864793  0.35513023  1  0.093031  0.106748  3e-06  1.037787  0.0
H  H6  1  0.14591269  0.14282755  0.23141820  1  0.101032  0.120217  2.2e-05  1.019493  0.0
H  H7  1  0.64589795  0.35716445  0.76859807  1  0.101024  0.120303  -2.2e-05  1.019212  0.0
H  H8  1  0.85409004  0.85715391  0.76858332  1  0.101024  0.120228  2.2e-05  1.019456  0.0
H  H9  1  0.35410075  0.64282378  0.23140351  1  0.101034  0.120286  -2.2e-05  1.019232  0.0
H  H10  1  0.63542722  0.31863192  0.40940936  1  0.092811  0.122083  -0.0  1.043577  0.0
H  H11  1  0.13545142  0.18139441  0.59058084  1  0.092891  0.122139  0.0  1.043372  0.0
H  H12  1  0.36458764  0.68141919  0.59057679  1  0.092921  0.122163  -0.0  1.043372  0.0
H  H13  1  0.86454727  0.81860445  0.40942258  1  0.092886  0.122064  0.0  1.043397  0.0
H  H14  1  0.23118654  0.97723009  0.15302113  1  0.112841  0.103531  1e-05  1.025942  0.0
H  H15  1  0.73114721  0.52279734  0.84697824  1  0.112837  0.103534  -1e-05  1.025996  0.0
H  H16  1  0.76881350  0.02275252  0.84698212  1  0.112863  0.103582  1e-05  1.025979  0.0
H  H17  1  0.26884880  0.47720057  0.15302172  1  0.112819  0.103508  -1e-05  1.025975  0.0
H  H18  1  0.41739175  0.89166176  0.10236371  1  0.120547  0.126184  5.6e-05  0.985582  0.0
H  H19  1  0.91734329  0.60829124  0.89765849  1  0.120608  0.126197  -5.6e-05  0.985516  0.0
H  H20  1  0.58260695  0.10832525  0.89763672  1  0.120599  0.126254  5.6e-05  0.985676  0.0
H  H21  1  0.08265002  0.39169692  0.10234367  1  0.120589  0.126174  -5.6e-05  0.985454  0.0
H  H22  1  0.69147263  0.56018249  0.12323603  1  0.321257  0.402246  0.000505  0.878943  0.001
H  H23  1  0.19142701  0.93981421  0.87676876  1  0.321257  0.40217  -0.000506  0.879003  -0.001
H  H24  1  0.30852876  0.43980817  0.87676788  1  0.321254  0.40222  0.000505  0.878971  0.001
H  H25  1  0.80856900  0.06018188  0.12323520  1  0.321239  0.402148  -0.000506  0.879096  -0.001
H  H26  1  0.70590865  0.71586625  0.05818514  1  0.302566  0.384092  0.000376  0.955576  0.0
H  H27  1  0.20598681  0.78417048  0.94182064  1  0.302618  0.384183  -0.000376  0.955557  0.0
H  H28  1  0.29408736  0.28412685  0.94182109  1  0.302577  0.384139  0.000376  0.955537  0.0
H  H29  1  0.79400246  0.21582682  0.05818449  1  0.30261  0.384119  -0.000376  0.955646  0.0
C  C30  1  0.43415075  0.14573698  0.25043749  1  0.072959  0.182716  9e-06  4.066134  0.0
C  C31  1  0.93414850  0.35424493  0.74956497  1  0.072878  0.182573  -9e-06  4.066566  0.0
C  C32  1  0.56585872  0.85426392  0.74956021  1  0.072993  0.182853  9e-06  4.065872  0.0
C  C33  1  0.06585154  0.64575549  0.25043674  1  0.072901  0.182677  -9e-06  4.066371  0.0
C  C34  1  0.56956935  0.20109755  0.30116733  1  -0.003123  0.047982  1.4e-05  4.058958  0.0
C  C35  1  0.06956740  0.29890089  0.69883290  1  -0.00319  0.047965  -1.4e-05  4.05935  0.0
C  C36  1  0.43044281  0.79892057  0.69882250  1  -0.003121  0.047994  1.4e-05  4.058702  0.0
C  C37  1  0.93043399  0.70109675  0.30116936  1  -0.003171  0.047931  -1.4e-05  4.059469  0.0
C  C38  1  0.21141652  0.25657345  0.33968106  1  -0.103459  -0.133737  -2e-06  4.019163  0.0
C  C39  1  0.71143562  0.24345198  0.66032466  1  -0.103478  -0.133985  2e-06  4.019154  0.0
C  C40  1  0.78858890  0.74343714  0.66031502  1  -0.103501  -0.133752  -2e-06  4.019312  0.0
C  C41  1  0.28856712  0.75654858  0.33967591  1  -0.103447  -0.133849  2e-06  4.019293  0.0
C  C42  1  0.25463964  0.17973358  0.26980799  1  -0.109708  -0.184675  2e-06  3.995269  0.0
C  C43  1  0.75464640  0.32026786  0.73020382  1  -0.109721  -0.184668  -2e-06  3.995156  0.0
C  C44  1  0.74536714  0.82026448  0.73019083  1  -0.109691  -0.184735  2e-06  3.995277  0.0
C  C45  1  0.24535768  0.67972714  0.26979784  1  -0.10969  -0.184737  -2e-06  3.995175  0.0
C  C46  1  0.34769088  0.30277259  0.39028757  1  0.000671  0.145778  4e-06  4.076062  0.0
C  C47  1  0.84771095  0.19725132  0.60970726  1  0.000732  0.14586  -4e-06  4.075937  0.0
C  C48  1  0.65231994  0.69725737  0.60970526  1  0.000728  0.145757  4e-06  4.076353  0.0
C  C49  1  0.15230121  0.80275052  0.39029390  1  0.000632  0.145632  -4e-06  4.076187  0.0
C  C50  1  0.52816582  0.27911688  0.37080444  1  -0.110389  -0.218997  3e-06  4.026171  0.0
C  C51  1  0.02818306  0.22090340  0.62919429  1  -0.110535  -0.219174  -3e-06  4.026186  0.0
C  C52  1  0.47184634  0.72092054  0.62918273  1  -0.11051  -0.219014  3e-06  4.026332  0.0
C  C53  1  0.97182372  0.77909323  0.37080509  1  -0.11052  -0.219049  -3e-06  4.026045  0.0
C  C54  1  0.34688530  0.16220672  0.06845124  1  0.21671  0.577932  0.001886  4.08259  0.001
C  C55  1  0.84684505  0.33772594  0.93154783  1  0.216766  0.577915  -0.001875  4.083245  -0.001
C  C56  1  0.65310666  0.83778679  0.93155156  1  0.216734  0.577948  0.001886  4.082498  0.001
C  C57  1  0.15314288  0.66227056  0.06845270  1  0.216753  0.577905  -0.001875  4.08332  -0.001
C  C58  1  0.36409410  0.01316172  0.12969176  1  -0.067792  -0.139467  -7.5e-05  3.899273  0.0
C  C59  1  0.86406003  0.48680669  0.87030710  1  -0.067849  -0.139582  7.4e-05  3.899535  0.0
C  C60  1  0.63590325  0.98682800  0.87030869  1  -0.067855  -0.139614  -7.5e-05  3.899513  0.0
C  C61  1  0.13593328  0.51319143  0.12969115  1  -0.067865  -0.139538  7.4e-05  3.899368  0.0
Cl  Cl62  1  0.79189526  0.16939497  0.27618468  1  0.024914  -0.041841  0.000131  1.735469  0.0
Cl  Cl63  1  0.29188182  0.33061196  0.72380882  1  0.024948  -0.041809  -0.000131  1.735583  0.0
Cl  Cl64  1  0.20811017  0.83062145  0.72380801  1  0.024914  -0.041857  0.000131  1.735355  0.0
Cl  Cl65  1  0.70811418  0.66939246  0.27619351  1  0.024936  -0.041816  -0.000131  1.735534  0.0
Cl  Cl66  1  0.29156403  0.38928761  0.47832193  1  0.001522  -0.07622  2e-06  1.655673  0.0
Cl  Cl67  1  0.79158270  0.11076559  0.52168180  1  0.001601  -0.076144  -2e-06  1.656011  0.0
Cl  Cl68  1  0.70845756  0.61074249  0.52166975  1  0.001467  -0.076275  2e-06  1.655714  0.0
Cl  Cl69  1  0.20841330  0.88924906  0.47831432  1  0.001619  -0.076075  -2e-06  1.656201  0.0
O  O70  1  0.49120442  0.05523797  0.18748178  1  -0.18444  -0.190048  -0.000162  2.666456  0.0
O  O71  1  0.99117362  0.44472771  0.81252628  1  -0.184426  -0.18992  0.000162  2.666831  0.0
O  O72  1  0.50879562  0.94474755  0.81251978  1  -0.184458  -0.19009  -0.000162  2.666391  0.0
O  O73  1  0.00881969  0.55526180  0.18747590  1  -0.184436  -0.189956  0.000162  2.666622  0.0
O  O74  1  0.45308179  0.29663581  0.07228778  1  -0.304845  -0.493618  0.001691  2.468506  0.002
O  O75  1  0.95306504  0.20330722  0.92771314  1  -0.304826  -0.493464  -0.001679  2.468987  -0.002
O  O76  1  0.54691825  0.70335763  0.92771559  1  -0.304818  -0.493587  0.00169  2.468472  0.002
O  O77  1  0.04692019  0.79668216  0.07229018  1  -0.30478  -0.493444  -0.001679  2.469035  -0.002
O  O78  1  0.23150117  0.14223997  0.01434058  1  -0.302712  -0.521304  -0.000945  2.451715  -0.002
O  O79  1  0.73145728  0.35769560  0.98564643  1  -0.302806  -0.521283  0.00094  2.452291  0.002
O  O80  1  0.76848540  0.85775456  0.98566510  1  -0.302763  -0.521289  -0.000946  2.451653  -0.002
O  O81  1  0.26853333  0.64229413  0.01435403  1  -0.302832  -0.52135  0.00094  2.452315  0.002
O  O82  1  0.62008649  0.63274989  0.08666021  1  -0.554641  -0.702866  -0.00276  2.246435  -0.004
O  O83  1  0.12010758  0.86725721  0.91335788  1  -0.554752  -0.702915  0.002763  2.246636  0.004
O  O84  1  0.37991221  0.36723915  0.91334598  1  -0.554661  -0.702907  -0.00276  2.246476  -0.004
O  O85  1  0.87988438  0.13274036  0.08664496  1  -0.554728  -0.702815  0.002762  2.2469  0.004
