# generated using pymatgen
data_CdH9C7I2N
_symmetry_space_group_name_H-M   'P 1'
_cell_length_a   7.61190773
_cell_length_b   8.63078840
_cell_length_c   8.63054534
_cell_angle_alpha   71.46430053
_cell_angle_beta   89.96005802
_cell_angle_gamma   89.96150320
_symmetry_Int_Tables_number   1
_chemical_formula_structural   CdH9C7I2N
_chemical_formula_sum   'Cd2 H18 C14 I4 N2'
_cell_volume   537.58608395
_cell_formula_units_Z   2
loop_
 _symmetry_equiv_pos_site_id
 _symmetry_equiv_pos_as_xyz
  1  'x, y, z'
loop_
 _atom_site_type_symbol
 _atom_site_label
 _atom_site_symmetry_multiplicity
 _atom_site_fract_x
 _atom_site_fract_y
 _atom_site_fract_z
 _atom_site_occupancy
 _atom_site_pbe_bader_spin_density
 _atom_site_pbe_cm5_charge
 _atom_site_pbe_ddec_charge
 _atom_site_pbe_ddec_spin_density
 _atom_site_pbe_ddec_sum_bond_order
 _atom_site_pbe_magmom
Cd  Cd0  1  0.25000371  0.57683471  0.42317685  1  0  0.451553  0.54242  0  2.528384  0
Cd  Cd1  1  0.74999771  0.42317030  0.57683025  1  0  0.451552  0.542375  0  2.528483  0
H  H2  1  0.10292435  0.54954332  0.16054074  1  0  0.068174  0.112624  0  1.091783  0
H  H3  1  0.39708138  0.83947172  0.45045610  1  0  0.068189  0.112608  0  1.091804  0
H  H4  1  0.89707451  0.45045190  0.83946950  1  0  0.068161  0.112591  0  1.091861  0
H  H5  1  0.60291332  0.16053815  0.54954026  1  0  0.068147  0.112575  0  1.091806  0
H  H6  1  0.17384769  0.60113175  0.95399107  1  0  0.080807  0.139444  0  1.036597  0
H  H7  1  0.32615336  0.04601314  0.39886103  1  0  0.080831  0.139477  0  1.03653  0
H  H8  1  0.82614981  0.39885736  0.04601301  1  0  0.08077  0.139383  0  1.036723  0
H  H9  1  0.67384262  0.95398697  0.60112914  1  0  0.080824  0.1394  0  1.036299  0
H  H10  1  0.96534878  0.66633592  0.99981258  1  0  0.094114  0.147004  0  1.003363  0
H  H11  1  0.53465777  0.00019890  0.33365379  1  0  0.094075  0.146981  0  1.003391  0
H  H12  1  0.03464741  0.33365807  0.00019344  1  0  0.094065  0.146982  0  1.00347  0
H  H13  1  0.46533309  0.99980483  0.66634919  1  0  0.094088  0.146942  0  1.003263  0
H  H14  1  0.12399076  0.92931304  0.79504539  1  0  0.095628  0.113302  0  1.018613  0
H  H15  1  0.37600585  0.20495185  0.07066488  1  0  0.095638  0.113334  0  1.018722  0
H  H16  1  0.87600008  0.07067848  0.20495219  1  0  0.095643  0.113296  0  1.018722  0
H  H17  1  0.62399799  0.79504586  0.92932250  1  0  0.095616  0.113305  0  1.018615  0
H  H18  1  0.24999597  0.19398942  0.80599000  1  0  0.084489  0.083582  0  1.059014  0
H  H19  1  0.75000137  0.80600458  0.19400210  1  0  0.084477  0.08358  0  1.058985  0
C  C20  1  0.10217384  0.64611509  0.04181403  1  0  -0.251481  -0.453254  0  3.929037  0
C  C21  1  0.39782971  0.95819432  0.35387204  1  0  -0.251506  -0.453274  0  3.929306  0
C  C22  1  0.89782757  0.35389237  0.95819345  1  0  -0.251416  -0.453106  0  3.929027  0
C  C23  1  0.60217430  0.04182048  0.64613541  1  0  -0.25143  -0.453108  0  3.929033  0
C  C24  1  0.18092330  0.80232633  0.04790507  1  0  0.117142  0.322547  0  3.943771  0
C  C25  1  0.31908376  0.95208437  0.19767278  1  0  0.117095  0.322499  0  3.944103  0
C  C26  1  0.81907286  0.19766399  0.95209748  1  0  0.117012  0.322342  0  3.94352  0
C  C27  1  0.68091359  0.04791452  0.80232240  1  0  0.117084  0.322453  0  3.944517  0
C  C28  1  0.18093296  0.93910116  0.90750856  1  0  -0.093615  -0.193287  0  3.936124  0
C  C29  1  0.31906938  0.09249056  0.06088304  1  0  -0.093498  -0.193167  0  3.935719  0
C  C30  1  0.81907246  0.06088555  0.09249852  1  0  -0.09359  -0.193181  0  3.93613  0
C  C31  1  0.68093441  0.90751937  0.93910394  1  0  -0.093495  -0.193244  0  3.935686  0
C  C32  1  0.24999622  0.08578413  0.91419450  1  0  -0.075412  -0.009694  0  4.012007  0
C  C33  1  0.75000509  0.91421355  0.08580218  1  0  -0.075408  -0.009671  0  4.011828  0
I  I34  1  0.06687896  0.27360729  0.46650541  1  0  -0.175874  -0.336344  0  1.517278  0
I  I35  1  0.43313120  0.53350741  0.72640253  1  0  -0.175855  -0.336279  0  1.517225  0
I  I36  1  0.93313041  0.72639166  0.53350586  1  0  -0.175852  -0.33628  0  1.517284  0
I  I37  1  0.56687800  0.46650864  0.27359983  1  0  -0.17586  -0.336287  0  1.517239  0
N  N38  1  0.25000742  0.80992228  0.19008014  1  0  -0.330505  -0.32055  0  3.395605  0
N  N39  1  0.74999122  0.19007295  0.80991155  1  0  -0.330377  -0.32032  0  3.395444  0
