# generated using pymatgen
data_Zn3H20C48(IO3)4
_symmetry_space_group_name_H-M   'P 1'
_cell_length_a   28.92587921
_cell_length_b   31.26463586
_cell_length_c   31.25956017
_cell_angle_alpha   77.60767941
_cell_angle_beta   62.43442618
_cell_angle_gamma   62.37222284
_symmetry_Int_Tables_number   1
_chemical_formula_structural   Zn3H20C48(IO3)4
_chemical_formula_sum   'Zn6 H40 C96 I8 O24'
_cell_volume   22203.22136196
_cell_formula_units_Z   2
loop_
 _symmetry_equiv_pos_site_id
 _symmetry_equiv_pos_as_xyz
  1  'x, y, z'
loop_
 _atom_site_type_symbol
 _atom_site_label
 _atom_site_symmetry_multiplicity
 _atom_site_fract_x
 _atom_site_fract_y
 _atom_site_fract_z
 _atom_site_occupancy
 _atom_site_pbe_bader_charge
 _atom_site_pbe_bader_spin_density
 _atom_site_pbe_cm5_charge
 _atom_site_pbe_ddec_charge
 _atom_site_pbe_ddec_spin_density
 _atom_site_pbe_ddec_sum_bond_order
 _atom_site_pbe_magmom
Zn  Zn0  1  0.46626938  0.53289007  0.53290805  1  1.301259  0  0.739945  0.978955  0  2.069007  0
Zn  Zn1  1  0.45556558  0.00049477  0.00001252  1  1.293306  0  0.731091  0.971988  0  2.083539  0
Zn  Zn2  1  0.54443062  0.99949685  0.99998327  1  1.292844  0  0.731429  0.972219  0  2.083059  0
Zn  Zn3  1  0.00088943  0.46710416  0.53287846  1  1.301304  0  0.739298  0.977259  0  2.068172  0
Zn  Zn4  1  0.53371930  0.46710551  0.46710100  1  1.296898  0  0.739922  0.978928  0  2.068877  0
Zn  Zn5  1  0.99910720  0.53289466  0.46711759  1  1.3054  0  0.739279  0.977285  0  2.068144  0
H  H6  1  0.41720953  0.90128984  0.11753069  1  0.105538  0  0.108041  0.113901  0  0.991033  0
H  H7  1  0.53473002  0.90130852  0.88244336  1  0.104772  0  0.108124  0.11345  0  0.991549  0
H  H8  1  0.41786132  0.11757786  0.90096938  1  0.111552  0  0.107215  0.113559  0  0.991775  0
H  H9  1  0.31879129  0.11782393  0.09894235  1  0.084781  0  0.107725  0.113517  0  0.992366  0
H  H10  1  0.58270772  0.09880929  0.88258686  1  0.105121  0  0.108455  0.114228  0  0.991255  0
H  H11  1  0.68119838  0.88210091  0.90111945  1  0.100828  0  0.107744  0.113633  0  0.992265  0
H  H12  1  0.58220377  0.88233615  0.09894561  1  0.10986  0  0.107138  0.113606  0  0.992033  0
H  H13  1  0.46529665  0.09877401  0.11745918  1  0.107044  0  0.108027  0.113496  0  0.991458  0
H  H14  1  0.41635894  0.83831762  0.18184700  1  0.098423  0  0.104098  0.106108  0  0.995615  0
H  H15  1  0.59812147  0.83837276  0.81810469  1  0.042479  0  0.104438  0.107028  0  0.996259  0
H  H16  1  0.41706399  0.18187770  0.83799948  1  0.075127  0  0.104316  0.106522  0  0.996058  0
H  H17  1  0.25509252  0.18204870  0.16198453  1  0.093856  0  0.103819  0.105647  0  0.996951  0
H  H18  1  0.58356564  0.16177753  0.81827068  1  0.100012  0  0.104062  0.105999  0  0.995505  0
H  H19  1  0.74489679  0.81786964  0.83808242  1  0.093065  0  0.103898  0.10571  0  0.996322  0
H  H20  1  0.58303452  0.81800130  0.16187521  1  0.078155  0  0.104437  0.106856  0  0.996339  0
H  H21  1  0.40190862  0.16171663  0.18179066  1  0.046293  0  0.104451  0.106875  0  0.996401  0
H  H22  1  0.53629885  0.80928756  0.24614111  1  0.074979  0  0.103112  0.115724  0  1.005835  0
H  H23  1  0.65384434  0.75391080  0.80908128  1  0.054931  0  0.103451  0.116345  0  1.005262  0
H  H24  1  0.46389113  0.19061364  0.75374865  1  0.080128  0  0.103001  0.115773  0  1.005671  0
H  H25  1  0.34608118  0.24618777  0.19083762  1  0.09521  0  0.103454  0.116403  0  1.005135  0
H  H26  1  0.53674814  0.24622314  0.80930140  1  0.06799  0  0.102704  0.114271  0  1.006903  0
H  H27  1  0.78249514  0.80921422  0.75388307  1  0.066294  0  0.102429  0.113923  0  1.006186  0
H  H28  1  0.46305921  0.75387365  0.19082391  1  0.068949  0  0.102728  0.114307  0  1.006726  0
H  H29  1  0.21758497  0.19070397  0.24617301  1  0.065702  0  0.102502  0.113791  0  1.006001  0
H  H30  1  0.57201758  0.61830070  0.27558792  1  0.085193  0  0.103783  0.111236  0  0.985172  0
H  H31  1  0.80949101  0.72455871  0.61814839  1  0.081657  0  0.104222  0.111698  0  0.984814  0
H  H32  1  0.42790112  0.38165426  0.72440358  1  0.085689  0  0.103749  0.111196  0  0.985065  0
H  H33  1  0.19058999  0.27544900  0.38183871  1  0.080525  0  0.104285  0.111742  0  0.984723  0
H  H34  1  0.57257680  0.27549438  0.61816208  1  0.07827  0  0.103733  0.111799  0  0.984423  0
H  H35  1  0.84767535  0.61826519  0.72436481  1  0.038426  0  0.10384  0.11126  0  0.985227  0
H  H36  1  0.42756543  0.72452725  0.38186294  1  0.086168  0  0.103972  0.111824  0  0.985592  0
H  H37  1  0.15225563  0.38171462  0.27564723  1  0.07653  0  0.103871  0.111226  0  0.985455  0
H  H38  1  0.57154843  0.55453911  0.33932242  1  0.106469  0  0.10967  0.116661  0  0.986786  0
H  H39  1  0.87379128  0.66076342  0.55444568  1  0.089546  0  0.109578  0.116408  0  0.986853  0
H  H40  1  0.42834637  0.44542887  0.66067780  1  0.104654  0  0.109797  0.116586  0  0.986736  0
H  H41  1  0.12627522  0.33924719  0.44554388  1  0.089169  0  0.109417  0.11633  0  0.98661  0
H  H42  1  0.57183023  0.33931250  0.55447928  1  0.104825  0  0.109581  0.116391  0  0.987084  0
H  H43  1  0.91080628  0.55449324  0.66063839  1  0.091584  0  0.109261  0.115836  0  0.986764  0
H  H44  1  0.42826597  0.66071606  0.44554879  1  0.103256  0  0.109691  0.116488  0  0.986377  0
H  H45  1  0.08912934  0.44548764  0.33937083  1  0.092906  0  0.109315  0.115735  0  0.986813  0
C  C46  1  0.49994989  0.56584893  0.43416922  1  1.512825  0  0.224969  0.604202  0  4.14607  0
C  C47  1  0.69564592  0.75263786  0.78293438  1  0.083543  0  -0.099688  -0.174784  0  3.97656  0
C  C48  1  0.17550864  0.32458962  0.32471031  1  -0.032195  0  -0.016624  0.077714  0  4.039545  0
C  C49  1  0.49978144  0.67544598  0.32470147  1  0.006898  0  -0.016712  0.076645  0  4.040496  0
C  C50  1  0.82447728  0.67540922  0.67529054  1  -0.031216  0  -0.016668  0.077728  0  4.039234  0
C  C51  1  0.50023971  0.32454486  0.67530798  1  -0.077538  0  -0.016959  0.076625  0  4.040613  0
C  C52  1  0.56640355  0.93355015  0.93361193  1  1.508059  0  0.22181  0.601442  0  4.155371  0
C  C53  1  0.49999998  0.06638925  0.93361776  1  1.528799  0  0.22161  0.603573  0  4.15352  0
C  C54  1  0.43361153  0.06644649  0.06637931  1  1.507463  0  0.221414  0.600959  0  4.15609  0
C  C55  1  0.49999477  0.93361498  0.06639301  1  1.529701  0  0.221429  0.603259  0  4.1539  0
C  C56  1  0.47939931  0.21682934  0.75253360  1  0.018613  0  -0.099747  -0.1747  0  3.977205  0
C  C57  1  0.59025737  0.49995695  0.49991170  1  1.639095  0  0.223823  0.656007  0  4.259559  0
C  C58  1  0.09034510  0.49991038  0.49995109  1  1.658522  0  0.222654  0.65283  0  4.261443  0
C  C59  1  0.40973700  0.50004729  0.50008468  1  1.639689  0  0.223943  0.655809  0  4.260118  0
C  C60  1  0.90964608  0.50009639  0.50004720  1  1.657879  0  0.222343  0.652221  0  4.261886  0
C  C61  1  0.30431703  0.24740650  0.21702513  1  -0.083743  0  -0.099587  -0.174932  0  3.975902  0
C  C62  1  0.63940129  0.50052362  0.50038728  1  0.182444  0  -0.003885  -0.119602  0  3.834275  0
C  C63  1  0.14013389  0.50040339  0.49922502  1  0.183048  0  -0.003718  -0.120659  0  3.831089  0
C  C64  1  0.36059496  0.49948062  0.49960490  1  0.182989  0  -0.003902  -0.119491  0  3.834133  0
C  C65  1  0.85985653  0.49960337  0.50077947  1  0.182803  0  -0.003533  -0.12034  0  3.830985  0
C  C66  1  0.68201017  0.50027538  0.50033839  1  -0.22342  0  -0.008563  0.0212  0  4.26  0
C  C67  1  0.52125240  0.24739837  0.78306937  1  0.005769  0  -0.098546  -0.171559  0  3.976878  0
C  C68  1  0.18261526  0.50034902  0.49923960  1  -0.228536  0  -0.008999  0.02317  0  4.257688  0
C  C69  1  0.31798227  0.49973391  0.49965507  1  -0.224013  0  -0.008535  0.021088  0  4.259602  0
C  C70  1  0.81737586  0.49965847  0.50075724  1  -0.228595  0  -0.009029  0.023111  0  4.257974  0
C  C71  1  0.72835682  0.50004397  0.50043702  1  -0.14326  0  0.001  -0.000423  0  4.186811  0
C  C72  1  0.22889996  0.50020461  0.49937095  1  0.068338  0  -0.000939  -0.003189  0  4.188298  0
C  C73  1  0.27163357  0.49996425  0.49955784  1  -0.142768  0  0.00104  -0.000293  0  4.186793  0
C  C74  1  0.76815136  0.78306975  0.75258037  1  0.029099  0  -0.098397  -0.172174  0  3.976091  0
C  C75  1  0.77109202  0.49980685  0.50062694  1  0.069373  0  -0.000835  -0.003082  0  4.18864  0
C  C76  1  0.45329897  0.88272460  0.12753004  1  -0.074202  0  -0.079466  -0.080434  0  3.979734  0
C  C77  1  0.58082544  0.88272895  0.87242690  1  -0.018256  0  -0.080329  -0.081291  0  3.979731  0
C  C78  1  0.45388261  0.12760783  0.88255707  1  -0.054835  0  -0.079457  -0.081614  0  3.982989  0
C  C79  1  0.33644583  0.12774902  0.11739300  1  0.017608  0  -0.079443  -0.082191  0  3.980058  0
C  C80  1  0.54666172  0.11731859  0.87253446  1  -0.032851  0  -0.07999  -0.081139  0  3.979473  0
C  C81  1  0.47866653  0.75264706  0.21699120  1  0.004995  0  -0.098521  -0.171663  0  3.976532  0
C  C82  1  0.66355408  0.87221335  0.88263226  1  0.00388  0  -0.079466  -0.082348  0  3.979706  0
C  C83  1  0.54615864  0.87233902  0.11738666  1  -0.055136  0  -0.079775  -0.082104  0  3.983887  0
C  C84  1  0.41919113  0.11731822  0.12751254  1  -0.023799  0  -0.080001  -0.081135  0  3.979577  0
C  C85  1  0.23188933  0.21688749  0.24744810  1  0.019988  0  -0.098222  -0.171718  0  3.97582  0
C  C86  1  0.45325000  0.84732306  0.16310763  1  -0.083434  0  -0.088972  -0.134745  0  3.980385  0
C  C87  1  0.61631978  0.84733323  0.83683265  1  0.03341  0  -0.088842  -0.134853  0  3.980313  0
C  C88  1  0.45387981  0.16315828  0.84715354  1  -0.075362  0  -0.089047  -0.134787  0  3.98587  0
C  C89  1  0.30106459  0.16326190  0.15283506  1  -0.080672  0  -0.089021  -0.133956  0  3.983226  0
C  C90  1  0.54670769  0.15272915  0.83696197  1  -0.0842  0  -0.089095  -0.134428  0  3.979507  0
C  C91  1  0.69893212  0.83669469  0.84719740  1  -0.078258  0  -0.088957  -0.133889  0  3.982989  0
C  C92  1  0.54617706  0.83677557  0.15278191  1  -0.059503  0  -0.088879  -0.135062  0  3.986683  0
C  C93  1  0.38369516  0.15271756  0.16310467  1  -0.063999  0  -0.08911  -0.135121  0  3.980668  0
C  C94  1  0.52069619  0.78312426  0.24741855  1  0.021839  0  -0.100089  -0.1749  0  3.9772  0
C  C95  1  0.49969818  0.82377351  0.17622441  1  -0.050089  0  -0.001019  0.079601  0  3.9976  0
C  C96  1  0.67588535  0.82376396  0.82371069  1  -0.100656  0  -0.002018  0.078108  0  3.993731  0
C  C97  1  0.50031716  0.17621915  0.82377398  1  -0.031303  0  -0.000864  0.079442  0  3.99712  0
C  C98  1  0.32412145  0.17623918  0.17628010  1  -0.00459  0  -0.001833  0.078453  0  3.993532  0
C  C99  1  0.49974817  0.89555904  0.10443982  1  0.048912  0  -0.019876  -0.041283  0  3.97694  0
C  C100  1  0.60419576  0.89549098  0.89556259  1  -0.055727  0  -0.019599  -0.038616  0  3.974729  0
C  C101  1  0.50023053  0.10445134  0.89557684  1  0.00549  0  -0.019972  -0.041432  0  3.976605  0
C  C102  1  0.39580794  0.10451181  0.10442175  1  -0.050921  0  -0.019555  -0.038584  0  3.974992  0
C  C103  1  0.93400669  0.56584874  0.56581342  1  1.50832  0  0.224674  0.603924  0  4.144247  0
C  C104  1  0.52049677  0.74748894  0.28293606  1  -0.208651  0  -0.044272  0.034856  0  3.893346  0
C  C105  1  0.73160860  0.71714652  0.74727126  1  -0.259474  0  -0.041489  0.038615  0  3.888378  0
C  C106  1  0.47963112  0.25245235  0.71700284  1  -0.208313  0  -0.044533  0.034644  0  3.894035  0
C  C107  1  0.26834982  0.28289749  0.25269254  1  -0.132628  0  -0.041544  0.038568  0  3.888238  0
C  C108  1  0.52096329  0.28288968  0.74739496  1  -0.221519  0  -0.044007  0.035355  0  3.893084  0
C  C109  1  0.50003195  0.43415278  0.56584824  1  1.512881  0  0.224956  0.603434  0  4.145636  0
C  C110  1  0.80349905  0.74739284  0.71709532  1  -0.218488  0  -0.041755  0.037621  0  3.891071  0
C  C111  1  0.47891974  0.71718213  0.25269284  1  -0.218887  0  -0.044321  0.035015  0  3.892889  0
C  C112  1  0.19653455  0.25256188  0.28293638  1  -0.208007  0  -0.042124  0.037168  0  3.892003  0
C  C113  1  0.06599422  0.43414574  0.43418480  1  1.508347  0  0.224649  0.603851  0  4.144384  0
C  C114  1  0.49972646  0.71333204  0.28682288  1  0.057949  0  -0.014884  0.002213  0  3.972104  0
C  C115  1  0.78658253  0.71328368  0.71316980  1  0.041738  0  -0.018079  -0.001264  0  3.971119  0
C  C116  1  0.50029767  0.28666312  0.71318147  1  0.058516  0  -0.014779  0.002086  0  3.972511  0
C  C117  1  0.21340699  0.28671515  0.28683097  1  0.03993  0  -0.017877  -0.000954  0  3.971317  0
C  C118  1  0.49967614  0.78612254  0.21393700  1  -0.014107  0  -0.00132  0.095587  0  4.006136  0
C  C119  1  0.71360313  0.78611475  0.78599096  1  -0.01393  0  -0.001846  0.094932  0  4.005759  0
C  C120  1  0.50034168  0.21386867  0.78606159  1  -0.016049  0  -0.001321  0.095428  0  4.006311  0
C  C121  1  0.28639804  0.21389129  0.21399156  1  -0.011168  0  -0.001923  0.09503  0  4.005517  0
C  C122  1  0.54039719  0.62748307  0.31283845  1  0.004886  0  -0.092326  -0.135498  0  3.996475  0
C  C123  1  0.83187659  0.68726919  0.62734956  1  -0.059782  0  -0.093342  -0.137771  0  3.996716  0
C  C124  1  0.45956033  0.37249237  0.68715832  1  0.005727  0  -0.092312  -0.135751  0  3.996136  0
C  C125  1  0.16816482  0.31273064  0.37264268  1  -0.056587  0  -0.09331  -0.137761  0  3.996414  0
C  C126  1  0.54084606  0.31273211  0.62737326  1  0.034612  0  -0.091969  -0.136504  0  3.996431  0
C  C127  1  0.85323611  0.62744080  0.68713203  1  -0.045489  0  -0.092864  -0.136774  0  3.997609  0
C  C128  1  0.45924474  0.68727843  0.37264891  1  -0.05723  0  -0.092507  -0.136839  0  3.998444  0
C  C129  1  0.14672059  0.37254402  0.31287333  1  -0.084161  0  -0.092868  -0.136861  0  3.998067  0
C  C130  1  0.54031834  0.59188516  0.34823942  1  -0.086745  0  -0.079549  -0.076759  0  3.963601  0
C  C131  1  0.86757325  0.65183125  0.59178585  1  0.006223  0  -0.078817  -0.075136  0  3.962882  0
C  C132  1  0.45962344  0.40809356  0.65176126  1  -0.086531  0  -0.079791  -0.076627  0  3.963041  0
C  C133  1  0.13246337  0.34816751  0.40820740  1  0.004542  0  -0.078763  -0.074965  0  3.962351  0
C  C134  1  0.54062331  0.34818424  0.59181746  1  -0.068461  0  -0.079629  -0.076308  0  3.963841  0
C  C135  1  0.88847569  0.59184336  0.65173861  1  0.021515  0  -0.078062  -0.073912  0  3.96285  0
C  C136  1  0.45943751  0.65183321  0.40820308  1  -0.066625  0  -0.079516  -0.075937  0  3.963566  0
C  C137  1  0.11148998  0.40814108  0.34827007  1  0.02101  0  -0.078152  -0.073758  0  3.962678  0
C  C138  1  0.49991346  0.60388403  0.39617884  1  0.006002  0  -0.017673  -0.038022  0  3.97079  0
C  C139  1  0.89593165  0.60386913  0.60381719  1  -0.002425  0  -0.017934  -0.03891  0  3.971543  0
C  C140  1  0.50008573  0.39611152  0.60383766  1  0.006829  0  -0.017435  -0.037364  0  3.969981  0
C  C141  1  0.10406520  0.39612752  0.39618553  1  -0.00185  0  -0.018049  -0.039235  0  3.971957  0
I  I142  1  0.55392952  0.74570577  0.33105122  1  0.096368  0  0.052454  -0.050413  0  1.314348  0
I  I143  1  0.69998206  0.66911043  0.74532445  1  0.1002  0  0.051418  -0.051984  0  1.313492  0
I  I144  1  0.44634391  0.25416970  0.66879990  1  0.097095  0  0.052568  -0.050275  0  1.314577  0
I  I145  1  0.29992473  0.33099432  0.25457969  1  0.09928  0  0.051372  -0.052018  0  1.313885  0
I  I146  1  0.55421846  0.33110904  0.74564670  1  0.100172  0  0.052016  -0.050938  0  1.314045  0
I  I147  1  0.88511140  0.74557172  0.66904583  1  0.096144  0  0.051549  -0.051299  0  1.313341  0
I  I148  1  0.44542202  0.66909507  0.25459186  1  0.098971  0  0.05223  -0.050741  0  1.313788  0
I  I149  1  0.11496177  0.25432521  0.33100982  1  0.095823  0  0.051533  -0.051289  0  1.313591  0
O  O150  1  0.46953554  0.57982598  0.47822033  1  -1.150077  0  -0.314908  -0.550507  0  2.293132  0
O  O151  1  0.95051364  0.52178159  0.57980008  1  -1.149596  0  -0.314497  -0.549468  0  2.292292  0
O  O152  1  0.53048575  0.42017351  0.52179479  1  -1.149588  0  -0.31498  -0.550372  0  2.292803  0
O  O153  1  0.04947741  0.47821147  0.42019854  1  -1.149622  0  -0.314408  -0.549263  0  2.292172  0
O  O154  1  0.46954147  0.47821076  0.57985497  1  -1.148933  0  -0.314804  -0.549957  0  2.29233  0
O  O155  1  0.94766072  0.57984673  0.52176313  1  -1.148536  0  -0.314055  -0.549562  0  2.291127  0
O  O156  1  0.53040973  0.52179065  0.42015422  1  -1.149396  0  -0.314732  -0.550327  0  2.292258  0
O  O157  1  0.05234459  0.42014955  0.47823293  1  -1.148498  0  -0.314146  -0.549621  0  2.291135  0
O  O158  1  0.54091175  0.52888234  0.52891971  1  -1.121403  0  -0.309107  -0.54282  0  2.214053  0
O  O159  1  0.07155368  0.47045490  0.52953923  1  -1.125602  0  -0.308464  -0.536458  0  2.209427  0
O  O160  1  0.60098498  0.47045418  0.47041030  1  -1.119049  0  -0.309042  -0.538722  0  2.212969  0
O  O161  1  0.06987344  0.52887875  0.47103792  1  -1.131273  0  -0.308371  -0.541542  0  2.21516  0
O  O162  1  0.39901036  0.52956558  0.52956343  1  -1.119352  0  -0.308933  -0.538637  0  2.213745  0
O  O163  1  0.92843660  0.52955223  0.47046134  1  -1.125308  0  -0.308413  -0.536332  0  2.209337  0
O  O164  1  0.45908600  0.47109194  0.47109829  1  -1.121079  0  -0.309244  -0.542637  0  2.213748  0
O  O165  1  0.93012573  0.47112332  0.52895283  1  -1.130655  0  -0.30834  -0.541334  0  2.215281  0
O  O166  1  0.59118365  0.94764395  0.94890637  1  -1.146322  0  -0.319867  -0.555761  0  2.283102  0
O  O167  1  0.53980211  0.05062484  0.94820061  1  -1.151847  0  -0.318473  -0.556997  0  2.280725  0
O  O168  1  0.48799911  0.05063636  0.05183737  1  -1.135088  0  -0.31765  -0.556018  0  2.281385  0
O  O169  1  0.54006746  0.94771506  0.05108923  1  -1.14901  0  -0.318777  -0.555418  0  2.285441  0
O  O170  1  0.51199677  0.94935489  0.94816085  1  -1.134696  0  -0.317934  -0.556372  0  2.279877  0
O  O171  1  0.46017076  0.94937978  0.05181732  1  -1.15169  0  -0.318443  -0.55714  0  2.279678  0
O  O172  1  0.40881805  0.05235416  0.05107918  1  -1.145724  0  -0.319806  -0.555697  0  2.282305  0
O  O173  1  0.45992192  0.05227656  0.94890362  1  -1.148595  0  -0.318931  -0.55589  0  2.284358  0
