# generated using pymatgen
data_Cu2Mo4H16C20N12O13
_symmetry_space_group_name_H-M   'P 1'
_cell_length_a   11.51911604
_cell_length_b   11.84053682
_cell_length_c   12.53800760
_cell_angle_alpha   91.26047822
_cell_angle_beta   75.39156432
_cell_angle_gamma   74.65091558
_symmetry_Int_Tables_number   1
_chemical_formula_structural   Cu2Mo4H16C20N12O13
_chemical_formula_sum   'Cu4 Mo8 H32 C40 N24 O26'
_cell_volume   1588.54646608
_cell_formula_units_Z   2
loop_
 _symmetry_equiv_pos_site_id
 _symmetry_equiv_pos_as_xyz
  1  'x, y, z'
loop_
 _atom_site_type_symbol
 _atom_site_label
 _atom_site_symmetry_multiplicity
 _atom_site_fract_x
 _atom_site_fract_y
 _atom_site_fract_z
 _atom_site_occupancy
 _atom_site_pbe_bader_charge
 _atom_site_pbe_bader_spin_density
 _atom_site_pbe_cm5_charge
 _atom_site_pbe_ddec_charge
 _atom_site_pbe_ddec_spin_density
 _atom_site_pbe_ddec_sum_bond_order
 _atom_site_pbe_magmom
Cu  Cu0  1  0.33773874  0.08053669  0.53994471  1  0.802917  0  0.623706  0.340963  0  2.541214  0
Cu  Cu1  1  0.66226422  0.91946685  0.46005143  1  0.803007  0  0.623744  0.341016  0  2.541213  0
Cu  Cu2  1  0.15413430  0.89811393  0.47889121  1  0.803836  0  0.606072  0.443251  0  2.287842  0
Cu  Cu3  1  0.84587251  0.10188625  0.52111196  1  0.803861  0  0.606058  0.443193  0  2.287949  0
Mo  Mo4  1  0.23275670  0.95741864  0.77525643  1  2.617975  0  1.517797  2.169185  0  4.589424  0
Mo  Mo5  1  0.76725176  0.04258761  0.22474076  1  2.617744  0  1.517794  2.169107  0  4.589322  0
Mo  Mo6  1  0.94854339  0.12122756  0.77127827  1  2.603661  0  1.507831  2.168211  0  4.592275  0
Mo  Mo7  1  0.05145938  0.87875944  0.22872905  1  2.603915  0  1.507974  2.168387  0  4.592749  0
Mo  Mo8  1  0.29564857  0.83203600  0.99752452  1  2.582455  0  1.50554  2.111723  0  4.628234  0
Mo  Mo9  1  0.70435422  0.16795604  0.00246924  1  2.582508  0  1.50551  2.111711  0  4.628436  0
Mo  Mo10  1  0.96313120  0.86489706  0.95592148  1  2.569772  0  1.518474  2.156492  0  4.68342  0
Mo  Mo11  1  0.03687057  0.13510733  0.04407336  1  2.57022  0  1.518486  2.156579  0  4.683483  0
H  H12  1  0.20845035  0.28156647  0.40259602  1  0.510976  0  0.346825  0.277825  0  0.958755  0
H  H13  1  0.79155432  0.71844323  0.59739892  1  0.5111  0  0.346894  0.277886  0  0.958683  0
H  H14  1  0.77117572  0.64675633  0.85097333  1  0.147679  0  0.124042  0.135111  0  1.013161  0
H  H15  1  0.22880833  0.35324823  0.14904024  1  0.147669  0  0.124026  0.135111  0  1.013173  0
H  H16  1  0.51986483  0.80688798  0.66472636  1  0.13093  0  0.11923  0.082521  0  1.09077  0
H  H17  1  0.48013668  0.19310227  0.33526613  1  0.131044  0  0.11927  0.082569  0  1.090714  0
H  H18  1  0.43459528  0.47671518  0.60145896  1  0.086467  0  0.10008  0.093011  0  1.033694  0
H  H19  1  0.56539546  0.52328247  0.39855933  1  0.086908  0  0.10011  0.092988  0  1.033784  0
H  H20  1  0.79450888  0.47266763  0.75384624  1  0.101557  0  0.114626  0.13046  0  0.992117  0
H  H21  1  0.20550750  0.52733472  0.24612585  1  0.096105  0  0.114619  0.130369  0  0.992092  0
H  H22  1  0.74627570  0.35705406  0.22875051  1  0.123985  0  0.114823  0.136032  0  1.010917  0
H  H23  1  0.25372228  0.64294501  0.77124446  1  0.124168  0  0.114761  0.135946  0  1.011074  0
H  H24  1  0.94199058  0.60738040  0.29376962  1  0.147892  0  0.105179  0.135542  0  1.043106  0
H  H25  1  0.05799897  0.39262062  0.70624019  1  0.14794  0  0.105194  0.135555  0  1.043057  0
H  H26  1  0.57579974  0.68413811  0.04771676  1  0.109867  0  0.115975  0.115912  0  1.0221  0
H  H27  1  0.42417948  0.31587094  0.95230439  1  0.109885  0  0.115963  0.115872  0  1.022335  0
H  H28  1  0.45724324  0.66225303  0.67035596  1  0.143746  0  0.108661  0.1384  0  1.03686  0
H  H29  1  0.54275865  0.33774276  0.32965080  1  0.143728  0  0.108638  0.138329  0  1.036789  0
H  H30  1  0.05108880  0.46699737  0.40021274  1  0.054916  0  0.098367  0.090929  0  1.031755  0
H  H31  1  0.94891121  0.53300453  0.59979210  1  0.054989  0  0.098351  0.090896  0  1.031786  0
H  H32  1  0.83120440  0.73021877  0.21998484  1  0.179452  0  0.1253  0.110155  0  1.048647  0
H  H33  1  0.16880320  0.26978127  0.78001015  1  0.179503  0  0.125249  0.110032  0  1.048622  0
H  H34  1  0.76734860  0.28558784  0.68900416  1  0.131882  0  0.103099  0.096451  0  1.088311  0
H  H35  1  0.23267186  0.71441022  0.31097170  1  0.131892  0  0.103075  0.096425  0  1.088469  0
H  H36  1  0.85569124  0.21861542  0.33569787  1  0.140041  0  0.100875  0.105138  0  1.080336  0
H  H37  1  0.14431901  0.78137832  0.66428848  1  0.140033  0  0.100799  0.105089  0  1.080397  0
H  H38  1  0.38068457  0.29564493  0.65443904  1  0.543996  0  0.347983  0.282523  0  0.947186  0
H  H39  1  0.61931639  0.70434829  0.34557194  1  0.544009  0  0.347987  0.282546  0  0.947267  0
H  H40  1  0.67083025  0.47081062  0.12383507  1  0.173652  0  0.11936  0.141546  0  1.035213  0
H  H41  1  0.32915852  0.52919305  0.87617573  1  0.173559  0  0.11938  0.141566  0  1.035149  0
H  H42  1  0.73372085  0.88734768  0.86574837  1  0.14559  0  0.117539  0.12274  0  1.026718  0
H  H43  1  0.26625721  0.11265850  0.13426029  1  0.145337  0  0.11748  0.122683  0  1.026797  0
C  C44  1  0.58077962  0.26023930  0.60110790  1  0.97433  0  0.270433  0.319847  0  3.90621  0
C  C45  1  0.41922250  0.73975304  0.39890278  1  0.974322  0  0.270487  0.320079  0  3.906193  0
C  C46  1  0.83458591  0.49318201  0.25426572  1  0.314735  0  0.110552  0.197271  0  3.989427  0
C  C47  1  0.16540620  0.50681885  0.74573389  1  0.3148  0  0.110658  0.197486  0  3.989084  0
C  C48  1  0.71653283  0.71419737  0.81247268  1  0.181462  0  -0.00569  -0.122787  0  3.902999  0
C  C49  1  0.28345934  0.28580357  0.18753090  1  0.181758  0  -0.005646  -0.122855  0  3.903016  0
C  C50  1  0.58540020  0.79864509  0.71456001  1  0.898686  0  0.110366  0.035242  0  4.025144  0
C  C51  1  0.41460300  0.20135129  0.28542968  1  0.898612  0  0.110394  0.035309  0  4.025093  0
C  C52  1  0.51393386  0.47510239  0.63449672  1  -0.110105  0  -0.086572  -0.102876  0  4.023857  0
C  C53  1  0.48606251  0.52488815  0.36551458  1  -0.109917  0  -0.086526  -0.102704  0  4.024025  0
C  C54  1  0.71665693  0.47423606  0.71888073  1  0.021443  0  -0.085248  -0.162969  0  3.923917  0
C  C55  1  0.28335465  0.52576458  0.28109652  1  0.027434  0  -0.085208  -0.162867  0  3.923517  0
C  C56  1  0.80994078  0.38385318  0.26826847  1  0.055498  0  -0.083204  -0.147164  0  3.91914  0
C  C57  1  0.19006394  0.61615034  0.73172564  1  0.05528  0  -0.083135  -0.147044  0  3.918932  0
C  C58  1  0.92124214  0.52290674  0.30347414  1  -0.079769  0  -0.098114  -0.183907  0  3.947889  0
C  C59  1  0.07874898  0.47709773  0.69653050  1  -0.079936  0  -0.098176  -0.184004  0  3.948047  0
C  C60  1  0.03228047  0.24253814  0.42828597  1  0.955355  0  0.264564  0.307919  0  3.939603  0
C  C61  1  0.96771973  0.75746530  0.57170606  1  0.95668  0  0.264543  0.307752  0  3.939981  0
C  C62  1  0.64418165  0.66136692  0.09517266  1  0.464077  0  0.000129  -0.018512  0  4.005213  0
C  C63  1  0.35580277  0.33863942  0.90484162  1  0.463308  0  0.000186  -0.018486  0  4.005369  0
C  C64  1  0.63048309  0.58099070  0.71227555  1  0.302466  0  0.110574  0.202479  0  3.990232  0
C  C65  1  0.36951957  0.41901118  0.28772624  1  0.302472  0  0.110585  0.202365  0  3.990172  0
C  C66  1  0.52811203  0.58050938  0.67065191  1  0.02624  0  -0.092194  -0.167078  0  3.950754  0
C  C67  1  0.47188401  0.41949072  0.32935231  1  0.026008  0  -0.092213  -0.167003  0  3.95095  0
C  C68  1  0.96006899  0.33254384  0.37660151  1  0.058516  0  -0.01917  -0.028296  0  4.077334  0
C  C69  1  0.03992817  0.66745532  0.62339924  1  0.058372  0  -0.019218  -0.028369  0  4.07743  0
C  C70  1  0.98358945  0.44281771  0.36346871  1  -0.043858  0  -0.089759  -0.099973  0  4.017045  0
C  C71  1  0.01641524  0.55718326  0.63653019  1  -0.044206  0  -0.089712  -0.099842  0  4.017197  0
C  C72  1  0.77215850  0.69109800  0.18493344  1  0.859704  0  0.115076  0.048319  0  3.941182  0
C  C73  1  0.22784056  0.30890383  0.81506765  1  0.859634  0  0.115133  0.048576  0  3.941121  0
C  C74  1  0.70208857  0.36845512  0.68201292  1  -0.045133  0  -0.072359  -0.064387  0  3.948345  0
C  C75  1  0.29791816  0.63154748  0.31797750  1  -0.045658  0  -0.072321  -0.064238  0  3.947869  0
C  C76  1  0.87180080  0.30496955  0.32922527  1  -0.023588  0  -0.075411  -0.070699  0  3.945882  0
C  C77  1  0.12820508  0.69502683  0.67076296  1  -0.024169  0  -0.075351  -0.070695  0  3.945934  0
C  C78  1  0.60096850  0.36778490  0.63912488  1  0.057428  0  -0.01428  -0.024495  0  4.063249  0
C  C79  1  0.39903179  0.63221364  0.36088866  1  0.056795  0  -0.014445  -0.024905  0  4.063313  0
C  C80  1  0.68913241  0.55519615  0.13355476  1  0.185665  0  -0.012645  -0.127311  0  3.900511  0
C  C81  1  0.31085659  0.44480658  0.86645280  1  0.185225  0  -0.012623  -0.127159  0  3.900446  0
C  C82  1  0.69604548  0.83430684  0.81956804  1  0.479339  0  0.007556  0.013458  0  3.934012  0
C  C83  1  0.30394459  0.16569491  0.18043286  1  0.479637  0  0.007634  0.013684  0  3.933739  0
N  N84  1  0.47700598  0.14418752  0.55309423  1  -0.123555  0  -0.118863  0.012411  0  3.516622  0
N  N85  1  0.52299795  0.85581362  0.44691523  1  -0.123461  0  -0.118787  0.012697  0  3.516555  0
N  N86  1  0.61581283  0.88540667  0.75728728  1  -1.137564  0  -0.340235  -0.27713  0  3.254221  0
N  N87  1  0.38417892  0.11459242  0.24271242  1  -1.137635  0  -0.340308  -0.277351  0  3.254296  0
N  N88  1  0.14766060  0.23583841  0.43922407  1  -0.779099  0  -0.244434  -0.158128  0  3.612605  0
N  N89  1  0.85234607  0.76416158  0.56076875  1  -0.779292  0  -0.244504  -0.158108  0  3.612774  0
N  N90  1  0.00392431  0.14568727  0.46804544  1  -0.6753  0  -0.241519  -0.204345  0  3.470172  0
N  N91  1  0.99607976  0.85430657  0.53194961  1  -0.675518  0  -0.241452  -0.204166  0  3.470417  0
N  N92  1  0.64508146  0.69015903  0.74439251  1  -1.249418  0  -0.239844  -0.030026  0  3.802648  0
N  N93  1  0.35491121  0.30984010  0.25560856  1  -1.249696  0  -0.239915  -0.029981  0  3.802579  0
N  N94  1  0.66370351  0.15966203  0.54851888  1  -0.686578  0  -0.238295  -0.197203  0  3.470609  0
N  N95  1  0.33629588  0.84033901  0.45148692  1  -0.686361  0  -0.238259  -0.197135  0  3.470209  0
N  N96  1  0.77134352  0.57371615  0.19272141  1  -1.27114  0  -0.234097  -0.015487  0  3.783417  0
N  N97  1  0.22865489  0.42628478  0.80727904  1  -1.270643  0  -0.234176  -0.015819  0  3.783575  0
N  N98  1  0.19185944  0.13509499  0.48205296  1  -0.139448  0  -0.128722  0.004779  0  3.552601  0
N  N99  1  0.80814049  0.86490681  0.51794631  1  -0.139444  0  -0.128821  0.004585  0  3.552688  0
N  N100  1  0.59629142  0.09066325  0.52098561  1  -0.123061  0  -0.110751  0.014418  0  3.510291  0
N  N101  1  0.40371185  0.90933697  0.47902162  1  -0.12289  0  -0.110842  0.014187  0  3.510424  0
N  N102  1  0.10485122  0.08072101  0.49797292  1  -0.120575  0  -0.110136  -0.002286  0  3.454668  0
N  N103  1  0.89515362  0.91927640  0.50202434  1  -0.120579  0  -0.11009  -0.00225  0  3.454572  0
N  N104  1  0.46594850  0.24901610  0.60404981  1  -0.805563  0  -0.238775  -0.146301  0  3.575087  0
N  N105  1  0.53405286  0.75098770  0.39596188  1  -0.80584  0  -0.238776  -0.146527  0  3.57546  0
N  N106  1  0.69595429  0.74484784  0.12774669  1  -1.116826  0  -0.32885  -0.252513  0  3.250877  0
N  N107  1  0.30404294  0.25515394  0.87225245  1  -1.11595  0  -0.328929  -0.252661  0  3.250883  0
O  O108  1  0.93530672  0.73677089  0.91713932  1  -0.846498  0  -0.533612  -0.680829  0  1.614338  0
O  O109  1  0.06469565  0.26323182  0.08286015  1  -0.846593  0  -0.533611  -0.680866  0  1.614393  0
O  O110  1  0.85515358  0.09394904  0.68964164  1  -0.8842  0  -0.543484  -0.707779  0  1.92803  0
O  O111  1  0.14484630  0.90604393  0.31035603  1  -0.884194  0  -0.543592  -0.707863  0  1.928044  0
O  O112  1  0.28780304  0.06493152  0.70237875  1  -0.892702  0  -0.552907  -0.705715  0  2.097367  0
O  O113  1  0.71219382  0.93506848  0.29761968  1  -0.892586  0  -0.552914  -0.70577  0  2.097157  0
O  O114  1  0.12721474  0.85371095  0.90080713  1  -1.063697  0  -0.586045  -0.942093  0  2.088846  0
O  O115  1  0.87279146  0.14628464  0.09918580  1  -1.064192  0  -0.586081  -0.942117  0  2.088903  0
O  O116  1  0.37565845  0.70180031  0.91693536  1  -0.836959  0  -0.523965  -0.671493  0  1.633612  0
O  O117  1  0.62433776  0.29819878  0.08306164  1  -0.836906  0  -0.524048  -0.671595  0  1.633195  0
O  O118  1  0.31794568  0.82811206  0.69394288  1  -0.859504  0  -0.521764  -0.691394  0  1.785491  0
O  O119  1  0.68205997  0.17188526  0.30604860  1  -0.859308  0  -0.521761  -0.691313  0  1.785747  0
O  O120  1  0.87289349  0.98746187  0.90271122  1  -1.040939  0  -0.569271  -0.90443  0  1.99393  0
O  O121  1  0.12711609  0.01254095  0.09729046  1  -1.040978  0  -0.56917  -0.90444  0  1.993772  0
O  O122  1  0.01129583  0.22685075  0.70643380  1  -0.85745  0  -0.530948  -0.687353  0  1.693591  0
O  O123  1  0.98870649  0.77315190  0.29356250  1  -0.857554  0  -0.530919  -0.687295  0  1.694241  0
O  O124  1  0.30731466  0.94786756  0.89347727  1  -0.982462  0  -0.577861  -0.821109  0  2.02409  0
O  O125  1  0.69269067  0.05213056  0.10651030  1  -0.982456  0  -0.577837  -0.821062  0  2.024063  0
O  O126  1  0.07633487  0.10912571  0.89412973  1  -1.084292  0  -0.590533  -0.945963  0  2.101149  0
O  O127  1  0.92366558  0.89087433  0.10586862  1  -1.084509  0  -0.590492  -0.945972  0  2.101091  0
O  O128  1  0.39151262  0.85450787  0.07409848  1  -0.760862  0  -0.489876  -0.590834  0  1.584887  0
O  O129  1  0.60849072  0.14549122  0.92589437  1  -0.761068  0  -0.489845  -0.590883  0  1.585128  0
O  O130  1  0.82895295  0.21651214  0.89473973  1  -1.019759  0  -0.601379  -0.870153  0  2.010362  0
O  O131  1  0.17104281  0.78348883  0.10526377  1  -1.019802  0  -0.601384  -0.870217  0  2.010266  0
O  O132  1  0.08176946  0.97928797  0.72680583  1  -1.028157  0  -0.599849  -0.917121  0  2.141931  0
O  O133  1  0.91823675  0.02070511  0.27319508  1  -1.028253  0  -0.599868  -0.917138  0  2.141907  0
