# generated using pymatgen
data_ZnH14C14(NO)4
_symmetry_space_group_name_H-M   'P 1'
_cell_length_a   7.17662769
_cell_length_b   9.94666741
_cell_length_c   10.79711875
_cell_angle_alpha   89.99995548
_cell_angle_beta   111.78090072
_cell_angle_gamma   89.99932404
_symmetry_Int_Tables_number   1
_chemical_formula_structural   ZnH14C14(NO)4
_chemical_formula_sum   'Zn2 H28 C28 N8 O8'
_cell_volume   715.71322973
_cell_formula_units_Z   2
loop_
 _symmetry_equiv_pos_site_id
 _symmetry_equiv_pos_as_xyz
  1  'x, y, z'
loop_
 _atom_site_type_symbol
 _atom_site_label
 _atom_site_symmetry_multiplicity
 _atom_site_fract_x
 _atom_site_fract_y
 _atom_site_fract_z
 _atom_site_occupancy
 _atom_site_hle17_bader_spin_density
 _atom_site_hle17_ddec_charge
 _atom_site_hle17_ddec_spin_density
 _atom_site_hle17_ddec_sum_bond_order
 _atom_site_hle17_magmom
 _atom_site_hse06_10hf_bader_spin_density
 _atom_site_hse06_10hf_ddec_charge
 _atom_site_hse06_10hf_ddec_spin_density
 _atom_site_hse06_10hf_ddec_sum_bond_order
 _atom_site_hse06_10hf_magmom
 _atom_site_hse06_bader_spin_density
 _atom_site_hse06_ddec_charge
 _atom_site_hse06_ddec_spin_density
 _atom_site_hse06_ddec_sum_bond_order
 _atom_site_hse06_magmom
 _atom_site_pbe_bader_spin_density
 _atom_site_pbe_cm5_charge
 _atom_site_pbe_ddec_charge
 _atom_site_pbe_ddec_spin_density
 _atom_site_pbe_ddec_sum_bond_order
 _atom_site_pbe_magmom
Zn  Zn0  1  0.48022183  0.38364360  0.76307514  1  0  0.974067  0  1.860976  0  0  0.780244  0  2.327715  0  0  0.826296  0  2.276532  0  0  0.68897  0.747905  0  2.362852  0
Zn  Zn1  1  0.51978498  0.88365041  0.23692306  1  0  0.974137  0  1.860944  0  0  0.780216  0  2.327727  0  0  0.826276  0  2.276548  0  0  0.688933  0.74787  0  2.362859  0
H  H2  1  0.46699429  0.12696062  0.90005146  1  0  0.08011  0  0.928819  0  0  0.089274  0  0.990814  0  0  0.092061  0  0.988085  0  0  0.118225  0.087206  0  0.992825  0
H  H3  1  0.53300704  0.62696949  0.09994660  1  0  0.080115  0  0.928849  0  0  0.089347  0  0.990751  0  0  0.092138  0  0.988018  0  0  0.118252  0.087277  0  0.992765  0
H  H4  1  0.43429722  0.88205691  0.85607819  1  0  0.1188  0  0.942468  0  0  0.129648  0  0.996222  0  0  0.133225  0  0.995148  0  0  0.109785  0.126809  0  0.99756  0
H  H5  1  0.56570358  0.38206218  0.14391770  1  0  0.118775  0  0.942403  0  0  0.129621  0  0.996166  0  0  0.133199  0  0.99509  0  0  0.109788  0.126782  0  0.997507  0
H  H6  1  0.30852334  0.18906984  0.38377273  1  0  0.308739  0  0.909492  0  0  0.28707  0  0.978818  0  0  0.295726  0  0.971734  0  0  0.306705  0.280953  0  0.983926  0
H  H7  1  0.69147237  0.68906369  0.61622585  1  0  0.308732  0  0.909472  0  0  0.287072  0  0.978779  0  0  0.295729  0  0.971694  0  0  0.306724  0.280945  0  0.98389  0
H  H8  1  0.35450858  0.80227991  0.61875992  1  0  0.085481  0  0.976711  0  0  0.095126  0  1.042269  0  0  0.097283  0  1.040643  0  0  0.104259  0.093825  0  1.043272  0
H  H9  1  0.64548502  0.30228322  0.38123994  1  0  0.085558  0  0.976684  0  0  0.095224  0  1.042214  0  0  0.097382  0  1.040587  0  0  0.104324  0.093924  0  1.043219  0
H  H10  1  0.29260579  0.97322497  0.43834460  1  0  0.129086  0  0.949297  0  0  0.13753  0  1.009698  0  0  0.141515  0  1.007965  0  0  0.111643  0.134571  0  1.011103  0
H  H11  1  0.70738741  0.47322654  0.56165319  1  0  0.129076  0  0.949227  0  0  0.137514  0  1.009645  0  0  0.141499  0  1.007913  0  0  0.111636  0.134547  0  1.011064  0
H  H12  1  0.80391563  0.26607109  0.95048761  1  0  0.306599  0  0.8903  0  0  0.297872  0  0.944401  0  0  0.304461  0  0.93942  0  0  0.295128  0.293142  0  0.948003  0
H  H13  1  0.19609521  0.76607281  0.04951716  1  0  0.30667  0  0.890249  0  0  0.297937  0  0.944351  0  0  0.304525  0  0.939369  0  0  0.295134  0.293206  0  0.947952  0
H  H14  1  0.84589250  0.30771007  0.81480125  1  0  0.298059  0  0.925064  0  0  0.287101  0  0.982768  0  0  0.294463  0  0.977104  0  0  0.287345  0.281881  0  0.986726  0
H  H15  1  0.15411586  0.80770997  0.18519921  1  0  0.29806  0  0.925108  0  0  0.287114  0  0.982788  0  0  0.294475  0  0.977124  0  0  0.287346  0.281889  0  0.986742  0
H  H16  1  0.12447154  0.35320707  0.25083792  1  0  0.131572  0  0.994505  0  0  0.137403  0  1.056901  0  0  0.142238  0  1.054115  0  0  0.107952  0.133719  0  1.059511  0
H  H17  1  0.87553149  0.85320022  0.74916221  1  0  0.131585  0  0.994436  0  0  0.137426  0  1.056825  0  0  0.142258  0  1.054036  0  0  0.107952  0.133744  0  1.059435  0
H  H18  1  0.00592152  0.59507352  0.22845243  1  0  0.088561  0  0.948886  0  0  0.099785  0  1.009544  0  0  0.101952  0  1.007948  0  0  0.1053  0.098237  0  1.010492  0
H  H19  1  0.99408368  0.09506639  0.77155210  1  0  0.088554  0  0.948847  0  0  0.099773  0  1.009514  0  0  0.10194  0  1.007919  0  0  0.105301  0.098225  0  1.010463  0
H  H20  1  0.05359114  0.72695958  0.43379549  1  0  0.122785  0  0.952673  0  0  0.130921  0  1.013701  0  0  0.134349  0  1.012843  0  0  0.107806  0.128804  0  1.013821  0
H  H21  1  0.94639946  0.22695309  0.56620467  1  0  0.122813  0  0.952652  0  0  0.130862  0  1.013796  0  0  0.134288  0  1.012944  0  0  0.107801  0.128755  0  1.013907  0
H  H22  1  0.23689784  0.61576968  0.65728816  1  0  0.08257  0  0.924432  0  0  0.094937  0  0.981039  0  0  0.097249  0  0.978693  0  0  0.121474  0.092959  0  0.983106  0
H  H23  1  0.76309788  0.11576902  0.34271232  1  0  0.08255  0  0.924448  0  0  0.094917  0  0.981062  0  0  0.09723  0  0.978715  0  0  0.12146  0.09295  0  0.983112  0
H  H24  1  0.19544447  0.52800313  0.04676160  1  0  0.100866  0  0.967527  0  0  0.111147  0  1.038299  0  0  0.113524  0  1.037449  0  0  0.0951  0.109688  0  1.038602  0
H  H25  1  0.80455583  0.02800643  0.95323722  1  0  0.100875  0  0.967594  0  0  0.111168  0  1.038349  0  0  0.113546  0  1.037498  0  0  0.095097  0.109709  0  1.038651  0
H  H26  1  0.15845828  0.35388767  0.05947847  1  0  0.122596  0  0.967007  0  0  0.13565  0  1.027881  0  0  0.138711  0  1.026728  0  0  0.102645  0.13337  0  1.029122  0
H  H27  1  0.84154641  0.85388691  0.94052575  1  0  0.12258  0  0.967009  0  0  0.135615  0  1.027907  0  0  0.138677  0  1.026753  0  0  0.102628  0.133329  0  1.029158  0
H  H28  1  0.84780822  0.48569577  0.02782986  1  0  0.063229  0  0.903003  0  0  0.080778  0  0.954689  0  0  0.081527  0  0.955165  0  0  0.115789  0.080299  0  0.954378  0
H  H29  1  0.15218782  0.98569978  0.97217042  1  0  0.063125  0  0.902998  0  0  0.080688  0  0.954693  0  0  0.081436  0  0.955171  0  0  0.115763  0.080208  0  0.954386  0
C  C30  1  0.42891947  0.08848665  0.79890246  1  0  0.131619  0  3.737119  0  0  0.098905  0  3.996699  0  0  0.106294  0  4.015106  0  0  0.041331  0.093977  0  3.984122  0
C  C31  1  0.57108265  0.58849408  0.20109674  1  0  0.131501  0  3.737144  0  0  0.098772  0  3.996678  0  0  0.106158  0  4.015088  0  0  0.04128  0.093844  0  3.984092  0
C  C32  1  0.40963380  0.95177288  0.77389716  1  0  -0.139659  0  3.748828  0  0  -0.155235  0  4.007597  0  0  -0.163887  0  4.029434  0  0  -0.093355  -0.149494  0  3.993487  0
C  C33  1  0.59035974  0.45177683  0.22609886  1  0  -0.13958  0  3.748693  0  0  -0.155171  0  4.007489  0  0  -0.163825  0  4.029328  0  0  -0.093367  -0.149432  0  3.993377  0
C  C34  1  0.36460078  0.90891859  0.64249034  1  0  0.012725  0  3.746883  0  0  -0.008284  0  3.999234  0  0  -0.00207  0  4.016822  0  0  -0.070882  -0.01245  0  3.987187  0
C  C35  1  0.63539208  0.40892301  0.35750556  1  0  0.012552  0  3.74704  0  0  -0.008469  0  3.999404  0  0  -0.002254  0  4.016993  0  0  -0.070938  -0.012637  0  3.987359  0
C  C36  1  0.33391946  0.00261322  0.54229122  1  0  -0.203571  0  3.679059  0  0  -0.220147  0  3.931145  0  0  -0.230312  0  3.951307  0  0  -0.088369  -0.213481  0  3.917202  0
C  C37  1  0.66607532  0.50261451  0.45770636  1  0  -0.203399  0  3.679122  0  0  -0.219997  0  3.931214  0  0  -0.23016  0  3.951377  0  0  -0.088336  -0.21333  0  3.917287  0
C  C38  1  0.35484134  0.14033662  0.57572867  1  0  0.421727  0  3.781107  0  0  0.392908  0  4.039696  0  0  0.410634  0  4.055596  0  0  0.23021  0.381223  0  4.028591  0
C  C39  1  0.64515831  0.64033511  0.42427085  1  0  0.421576  0  3.781105  0  0  0.392791  0  4.039659  0  0  0.410516  0  4.055563  0  0  0.230161  0.381092  0  4.028543  0
C  C40  1  0.25430230  0.36455995  0.46492329  1  0  0.420962  0  3.778372  0  0  0.391696  0  4.034423  0  0  0.409684  0  4.050171  0  0  0.229938  0.380197  0  4.023473  0
C  C41  1  0.74570513  0.86455545  0.53508062  1  0  0.420979  0  3.778366  0  0  0.391666  0  4.034443  0  0  0.409666  0  4.050197  0  0  0.229988  0.380153  0  4.023488  0
C  C42  1  0.15171270  0.41867205  0.33691619  1  0  -0.22214  0  3.690988  0  0  -0.235958  0  3.94023  0  0  -0.247513  0  3.961281  0  0  -0.094015  -0.229279  0  3.926782  0
C  C43  1  0.84828922  0.91866855  0.66308734  1  0  -0.222174  0  3.690907  0  0  -0.235992  0  3.940148  0  0  -0.247541  0  3.961192  0  0  -0.094067  -0.229316  0  3.92671  0
C  C44  1  0.08472828  0.55004197  0.32597632  1  0  0.018773  0  3.745838  0  0  -0.002295  0  4.00079  0  0  0.00345  0  4.019904  0  0  -0.071779  -0.005392  0  3.987555  0
C  C45  1  0.91527171  0.05003561  0.67402520  1  0  0.01877  0  3.745977  0  0  -0.002293  0  4.000906  0  0  0.003454  0  4.020017  0  0  -0.07174  -0.005393  0  3.987686  0
C  C46  1  0.11149896  0.62494728  0.44132050  1  0  -0.151753  0  3.741781  0  0  -0.168972  0  4.003894  0  0  -0.177363  0  4.025311  0  0  -0.100343  -0.164314  0  3.989464  0
C  C47  1  0.88849662  0.12493726  0.55868088  1  0  -0.151759  0  3.742073  0  0  -0.168917  0  4.004196  0  0  -0.177307  0  4.025608  0  0  -0.100325  -0.16427  0  3.989773  0
C  C48  1  0.21227009  0.56449839  0.56327799  1  0  0.148871  0  3.707406  0  0  0.113795  0  3.965274  0  0  0.122807  0  3.981419  0  0  0.043721  0.108175  0  3.954037  0
C  C49  1  0.78772375  0.06449641  0.43672488  1  0  0.148906  0  3.707602  0  0  0.113807  0  3.965429  0  0  0.122833  0  3.981584  0  0  0.043712  0.108181  0  3.954184  0
C  C50  1  0.18823965  0.41072520  0.87754895  1  0  0.701317  0  3.846978  0  0  0.655148  0  4.14699  0  0  0.688312  0  4.139998  0  0  0.201956  0.632519  0  4.151102  0
C  C51  1  0.81176392  0.91072968  0.12245497  1  0  0.701424  0  3.846721  0  0  0.655133  0  4.14689  0  0  0.688297  0  4.139899  0  0  0.201985  0.632501  0  4.150995  0
C  C52  1  0.11674388  0.44012523  0.99075415  1  0  -0.335702  0  3.704857  0  0  -0.380157  0  3.951504  0  0  -0.387426  0  3.960216  0  0  -0.177691  -0.375194  0  3.94572  0
C  C53  1  0.88325601  0.94013025  0.00924612  1  0  -0.335706  0  3.704831  0  0  -0.380122  0  3.951446  0  0  -0.387396  0  3.960164  0  0  -0.177652  -0.375149  0  3.945666  0
C  C54  1  0.82611975  0.58193766  0.84649291  1  0  0.626475  0  3.879749  0  0  0.578067  0  4.18399  0  0  0.609671  0  4.178297  0  0  0.198882  0.55669  0  4.186693  0
C  C55  1  0.17388258  0.08194019  0.15350819  1  0  0.626535  0  3.879692  0  0  0.578109  0  4.183967  0  0  0.609718  0  4.17827  0  0  0.198898  0.556731  0  4.18667  0
C  C56  1  0.89008661  0.46098426  0.94223901  1  0  0.094188  0  3.613181  0  0  0.077333  0  3.850993  0  0  0.077835  0  3.864238  0  0  -0.002634  0.076781  0  3.84208  0
C  C57  1  0.10991012  0.96098670  0.05776608  1  0  0.09436  0  3.613043  0  0  0.077485  0  3.85088  0  0  0.077987  0  3.864121  0  0  -0.002594  0.076936  0  3.841964  0
N  N58  1  0.40664626  0.18147171  0.70316059  1  0  -0.428455  0  3.252794  0  0  -0.351757  0  3.52709  0  0  -0.372409  0  3.540327  0  0  -0.336841  -0.33755  0  3.517927  0
N  N59  1  0.59335689  0.68147683  0.29683507  1  0  -0.428289  0  3.252696  0  0  -0.351603  0  3.526979  0  0  -0.372255  0  3.54022  0  0  -0.336761  -0.337394  0  3.517808  0
N  N60  1  0.32045596  0.23269238  0.47354895  1  0  -0.467628  0  3.312837  0  0  -0.409327  0  3.553423  0  0  -0.431751  0  3.561771  0  0  -0.3942  -0.394437  0  3.547734  0
N  N61  1  0.67954199  0.73269147  0.52645196  1  0  -0.467724  0  3.312819  0  0  -0.409438  0  3.553434  0  0  -0.431859  0  3.561775  0  0  -0.394296  -0.394499  0  3.547702  0
N  N62  1  0.28927504  0.43891731  0.57573864  1  0  -0.417221  0  3.271221  0  0  -0.335839  0  3.547381  0  0  -0.356551  0  3.558331  0  0  -0.339093  -0.321836  0  3.539623  0
N  N63  1  0.71072191  0.93891323  0.42426188  1  0  -0.417254  0  3.271254  0  0  -0.335794  0  3.547364  0  0  -0.356551  0  3.558357  0  0  -0.339083  -0.321788  0  3.539603  0
N  N64  1  0.77657460  0.33902332  0.87846226  1  0  -0.652752  0  3.106486  0  0  -0.601936  0  3.361548  0  0  -0.620957  0  3.355768  0  0  -0.628441  -0.588773  0  3.365368  0
N  N65  1  0.22343024  0.83902774  0.12153922  1  0  -0.652866  0  3.106564  0  0  -0.602038  0  3.361612  0  0  -0.621057  0  3.355828  0  0  -0.628422  -0.588864  0  3.365427  0
O  O66  1  0.06988749  0.36025157  0.77061840  1  0  -0.630448  0  1.921738  0  0  -0.581966  0  2.14514  0  0  -0.604968  0  2.137696  0  0  -0.324612  -0.565594  0  2.149453  0
O  O67  1  0.93011999  0.86025291  0.22938460  1  0  -0.630453  0  1.92153  0  0  -0.581977  0  2.145027  0  0  -0.604978  0  2.137579  0  0  -0.32464  -0.565632  0  2.149402  0
O  O68  1  0.37557819  0.43692412  0.90198941  1  0  -0.660168  0  2.0126  0  0  -0.584403  0  2.281708  0  0  -0.612753  0  2.26659  0  0  -0.341784  -0.564377  0  2.291208  0
O  O69  1  0.62442171  0.93692720  0.09800994  1  0  -0.660277  0  2.012663  0  0  -0.584356  0  2.281718  0  0  -0.612704  0  2.266603  0  0  -0.341747  -0.564327  0  2.291216  0
O  O70  1  0.65371894  0.57598268  0.75086141  1  0  -0.661838  0  1.985805  0  0  -0.597755  0  2.233875  0  0  -0.624029  0  2.222798  0  0  -0.330389  -0.578907  0  2.240639  0
O  O71  1  0.34628484  0.07598766  0.24913633  1  0  -0.66191  0  1.985811  0  0  -0.597815  0  2.2339  0  0  -0.624083  0  2.222815  0  0  -0.33041  -0.578966  0  2.240661  0
O  O72  1  0.94639713  0.67898974  0.86886877  1  0  -0.6184  0  1.938536  0  0  -0.568258  0  2.155467  0  0  -0.59123  0  2.147445  0  0  -0.329743  -0.551795  0  2.16027  0
O  O73  1  0.05360465  0.17899834  0.13112842  1  0  -0.618462  0  1.938526  0  0  -0.568323  0  2.155473  0  0  -0.591305  0  2.147453  0  0  -0.329774  -0.55186  0  2.160277  0
