# generated using pymatgen
data_CuH13C21(NO)4
_symmetry_space_group_name_H-M   'P 1'
_cell_length_a   10.21805694
_cell_length_b   12.86719626
_cell_length_c   21.08583922
_cell_angle_alpha   90.00024369
_cell_angle_beta   89.99883249
_cell_angle_gamma   90.00092098
_symmetry_Int_Tables_number   1
_chemical_formula_structural   CuH13C21(NO)4
_chemical_formula_sum   'Cu4 H52 C84 N16 O16'
_cell_volume   2772.31857029
_cell_formula_units_Z   4
loop_
 _symmetry_equiv_pos_site_id
 _symmetry_equiv_pos_as_xyz
  1  'x, y, z'
loop_
 _atom_site_type_symbol
 _atom_site_label
 _atom_site_symmetry_multiplicity
 _atom_site_fract_x
 _atom_site_fract_y
 _atom_site_fract_z
 _atom_site_occupancy
 _atom_site_pbe_bader_charge
 _atom_site_pbe_bader_spin_density
 _atom_site_pbe_cm5_charge
 _atom_site_pbe_ddec_charge
 _atom_site_pbe_ddec_spin_density
 _atom_site_pbe_ddec_sum_bond_order
 _atom_site_pbe_magmom
Cu  Cu0  1  0.29435735  0.09217342  0.99999816  1  1.049006  -0.556764  0.749074  0.744276  -0.74896  2.253912  -0.558
Cu  Cu1  1  0.20565614  0.59218730  0.49999356  1  1.049051  0.556744  0.749089  0.744395  0.748973  2.253774  0.558
Cu  Cu2  1  0.70565431  0.90783046  0.99999996  1  1.049076  0.556745  0.749067  0.74422  0.748951  2.254065  0.558
Cu  Cu3  1  0.79432537  0.40781493  0.49999788  1  1.049032  -0.556757  0.749076  0.744454  -0.748981  2.253745  -0.558
H  H4  1  0.03636976  0.11775207  0.00000095  1  0.22999  0.000169  0.154306  0.119194  0.000122  0.997714  0.0
H  H5  1  0.49986916  0.67249791  0.39145154  1  0.282831  -0.00071  0.131909  0.14928  -0.000376  1.058601  -0.001
H  H6  1  0.99645921  0.78757746  0.21831239  1  0.069281  1.4e-05  0.098687  0.099924  -1.5e-05  1.037155  0.0
H  H7  1  0.99986649  0.82750856  0.89144420  1  0.282534  -0.000711  0.131918  0.149271  -0.000376  1.058615  -0.001
H  H8  1  0.50012703  0.32752997  0.60855460  1  0.227965  0.000739  0.131914  0.149245  0.000376  1.058624  0.001
H  H9  1  0.00356438  0.21240068  0.78167147  1  0.069041  -1.3e-05  0.098629  0.099791  1.5e-05  1.037215  0.0
H  H10  1  0.12422487  0.43128358  0.26036792  1  0.048935  -0.000246  0.098516  0.09481  -0.000116  1.012878  0.0
H  H11  1  0.51624307  0.78683670  0.17384794  1  0.057149  0.000586  0.100713  0.102556  0.000501  1.017234  0.0
H  H12  1  0.37580180  0.93133902  0.23962611  1  0.048206  0.000247  0.098537  0.094733  0.000117  1.012666  0.0
H  H13  1  0.39312757  0.85587265  0.34770411  1  0.112218  1.2e-05  0.107595  0.111286  -1.6e-05  0.995358  0.0
H  H14  1  0.84569907  0.48191619  0.35619502  1  0.121895  -0.000118  0.129311  0.119973  6e-06  0.996686  0.0
H  H15  1  0.15429516  0.51810236  0.64381112  1  0.12154  0.000123  0.129368  0.120113  -4e-06  0.996699  0.0
H  H16  1  0.50357137  0.28761295  0.71831733  1  0.068559  -1.3e-05  0.098668  0.099792  1.5e-05  1.037275  0.0
H  H17  1  0.65428428  0.98192222  0.14379946  1  0.121773  0.000123  0.12929  0.119958  -5e-06  0.996691  0.0
H  H18  1  0.60686969  0.14411265  0.34771278  1  0.112391  -1.2e-05  0.107633  0.111277  1.6e-05  0.995337  0.0
H  H19  1  0.49642873  0.71241259  0.28169167  1  0.068722  1.4e-05  0.098666  0.099784  -1.5e-05  1.037257  0.0
H  H20  1  0.15429449  0.51807156  0.35619867  1  0.121427  0.000122  0.129307  0.11999  -5e-06  0.996689  0.0
H  H21  1  0.50359820  0.28758654  0.28169776  1  0.069074  -1.3e-05  0.098665  0.099848  1.5e-05  1.037099  0.0
H  H22  1  0.62422408  0.06864164  0.23963624  1  0.048147  -0.000246  0.098501  0.094616  -0.000117  1.01276  0.0
H  H23  1  0.34575093  0.01804309  0.14378117  1  0.121417  -0.000119  0.129328  0.12006  6e-06  0.996635  0.0
H  H24  1  0.49642441  0.71240558  0.71832356  1  0.06883  1.4e-05  0.09861  0.09977  -1.5e-05  1.037318  0.0
H  H25  1  0.99986940  0.82749679  0.10854342  1  0.282705  -0.00071  0.131934  0.14931  -0.000376  1.058481  -0.001
H  H26  1  0.37577505  0.93134194  0.76035473  1  0.048559  0.000246  0.098516  0.094666  0.000117  1.012878  0.0
H  H27  1  0.00013951  0.17250155  0.89145182  1  0.282632  0.000711  0.131931  0.149316  0.000376  1.058497  0.001
H  H28  1  0.10691709  0.35579710  0.15229751  1  0.112141  -1.3e-05  0.107765  0.111487  1.6e-05  0.995279  0.0
H  H29  1  0.50012138  0.32749112  0.39146341  1  0.282294  0.000711  0.131942  0.149394  0.000376  1.05848  0.001
H  H30  1  0.98369393  0.28683668  0.32617312  1  0.057263  -0.000587  0.10065  0.102531  -0.000501  1.017147  0.0
H  H31  1  0.10689350  0.35586343  0.84771920  1  0.111242  -1.2e-05  0.107632  0.111293  1.6e-05  0.99527  0.0
H  H32  1  0.01629399  0.71315997  0.32616415  1  0.057247  0.000586  0.100658  0.102491  0.000501  1.016998  0.0
H  H33  1  0.12423675  0.43134838  0.73964882  1  0.047777  -0.000246  0.098495  0.094713  -0.000117  1.012909  0.0
H  H34  1  0.49988068  0.67251654  0.60854843  1  0.282081  -0.000711  0.13192  0.149276  -0.000376  1.058485  -0.001
H  H35  1  0.84568799  0.48190891  0.64380179  1  0.121948  -0.000118  0.129316  0.119985  6e-06  0.996723  0.0
H  H36  1  0.62420809  0.06866865  0.76037482  1  0.048392  -0.000246  0.098522  0.094758  -0.000117  1.012603  0.0
H  H37  1  0.00355537  0.21241922  0.21832467  1  0.068981  -1.3e-05  0.098614  0.099763  1.6e-05  1.037339  0.0
H  H38  1  0.99642908  0.78760399  0.78167674  1  0.068937  1.4e-05  0.098624  0.099709  -1.5e-05  1.037316  0.0
H  H39  1  0.53634617  0.38225822  0.50000878  1  0.230314  0.000169  0.154296  0.119045  0.000122  0.997951  0.0
H  H40  1  0.51626690  0.78683511  0.82616914  1  0.057201  0.000586  0.100747  0.102559  0.000501  1.017152  0.0
H  H41  1  0.48377626  0.21314536  0.17384886  1  0.056894  -0.000587  0.100754  0.102587  -0.000501  1.017028  0.0
H  H42  1  0.00015025  0.17248279  0.10855294  1  0.28242  0.000711  0.13189  0.149215  0.000376  1.058523  0.001
H  H43  1  0.96363817  0.88225093  0.99999381  1  0.230101  -0.000169  0.154331  0.119197  -0.000122  0.997669  0.0
H  H44  1  0.01626409  0.71317954  0.67382354  1  0.057223  0.000587  0.100767  0.10261  0.000501  1.017154  0.0
H  H45  1  0.39311769  0.85586549  0.65228293  1  0.111123  1.3e-05  0.107615  0.11126  -1.6e-05  0.99528  0.0
H  H46  1  0.89312118  0.64416161  0.84770437  1  0.111276  1.2e-05  0.107546  0.11124  -1.6e-05  0.995345  0.0
H  H47  1  0.60685785  0.14413812  0.65230109  1  0.112119  -1.2e-05  0.107619  0.111376  1.6e-05  0.995346  0.0
H  H48  1  0.89308507  0.64413958  0.15228031  1  0.111493  1.2e-05  0.107695  0.111339  -1.6e-05  0.995326  0.0
H  H49  1  0.46364219  0.61776189  0.49999927  1  0.229949  -0.000169  0.154362  0.119324  -0.000122  0.997847  0.0
H  H50  1  0.34569429  0.01809866  0.85618582  1  0.122227  -0.00012  0.129323  0.120029  6e-06  0.996514  0.0
H  H51  1  0.48374823  0.21318495  0.82616010  1  0.057302  -0.000587  0.10073  0.102618  -0.000501  1.017171  0.0
H  H52  1  0.87578012  0.56868834  0.73962922  1  0.048573  0.000247  0.098499  0.094694  0.000117  1.01281  0.0
H  H53  1  0.98371199  0.28682283  0.67382255  1  0.057349  -0.000586  0.100697  0.102514  -0.000501  1.01703  0.0
H  H54  1  0.65428538  0.98192649  0.85620743  1  0.12138  0.000122  0.129353  0.120084  -5e-06  0.996539  0.0
H  H55  1  0.87575552  0.56866551  0.26035401  1  0.048661  0.000247  0.098515  0.094706  0.000117  1.01297  0.0
C  C56  1  0.90493592  0.23945342  0.30663495  1  -0.039771  5.6e-05  -0.084852  -0.09008  -9.1e-05  3.987097  0.0
C  C57  1  0.09503287  0.76055269  0.69336266  1  0.03071  -7.5e-05  -0.084915  -0.090171  8.6e-05  3.987132  0.0
C  C58  1  0.18579433  0.86346054  0.77974079  1  0.046044  -0.001064  -0.004129  0.090171  -0.000753  4.031867  -0.001
C  C59  1  0.72982839  0.77478490  0.09450902  1  1.535659  -0.001962  0.194485  0.55343  -0.000318  4.214261  -0.004
C  C60  1  0.82284735  0.09565451  0.84439170  1  0.073336  0.00263  -0.019464  -0.027238  0.001867  4.054585  0.002
C  C61  1  0.30687333  0.84149055  0.68141686  1  -0.012245  0.000803  -0.083103  -0.091331  0.000542  3.99553  0.001
C  C62  1  0.79622662  0.61640788  0.24186300  1  -0.085124  0.000929  -0.091795  -0.133667  0.000606  3.983541  0.001
C  C63  1  0.69311013  0.15849458  0.31857743  1  -0.014039  -0.000817  -0.083163  -0.091526  -0.000551  3.995765  -0.001
C  C64  1  0.29624585  0.88359886  0.74186277  1  -0.084771  0.000949  -0.091759  -0.133554  0.00062  3.983275  0.001
C  C65  1  0.91550116  0.12069730  0.10945794  1  0.248657  -0.00082  0.03754  -0.073021  -0.00014  3.792189  0.0
C  C66  1  0.29254629  0.27806673  0.84318535  1  -0.087  -0.010483  -0.019646  -0.032135  -0.007548  3.974172  -0.008
C  C67  1  0.22987012  0.72523654  0.40548195  1  1.537874  -0.00196  0.194329  0.553274  -0.000318  4.214293  -0.004
C  C68  1  0.18582255  0.86344880  0.22024350  1  0.045779  -0.001051  -0.003943  0.090426  -0.000744  4.032151  -0.001
C  C69  1  0.58449203  0.69744508  0.74602966  1  -0.060298  -0.000102  -0.091103  -0.131238  -0.000157  3.960222  0.0
C  C70  1  0.27019189  0.22518981  0.09452347  1  1.536405  0.001935  0.194322  0.553268  0.000292  4.214465  0.004
C  C71  1  0.67714411  0.59564675  0.34438546  1  0.063212  -0.002598  -0.019521  -0.02747  -0.001837  4.054688  -0.002
C  C72  1  0.70746535  0.72195280  0.84317859  1  -0.086401  0.010487  -0.019606  -0.032044  0.007551  3.974338  0.008
C  C73  1  0.70373682  0.11640836  0.74187750  1  -0.084873  -0.000933  -0.091799  -0.133699  -0.000609  3.983279  -0.001
C  C74  1  0.82284850  0.09564807  0.15561332  1  0.06317  0.002637  -0.019582  -0.027422  0.001863  4.054491  0.002
C  C75  1  0.30688934  0.84149731  0.31856907  1  -0.013979  0.000819  -0.083115  -0.09145  0.000553  3.995615  0.001
C  C76  1  0.67715388  0.59566061  0.65561045  1  0.073044  -0.002583  -0.01951  -0.027268  -0.001835  4.054531  -0.002
C  C77  1  0.79625168  0.61642786  0.75812606  1  -0.085432  0.000939  -0.091717  -0.13359  0.000612  3.983188  0.001
C  C78  1  0.68578484  0.63654796  0.27974623  1  0.045791  -0.001048  -0.004119  0.090343  -0.000742  4.032236  -0.001
C  C79  1  0.73918374  0.02284973  0.12571329  1  0.440853  -0.000886  0.037995  -0.006783  -0.000206  3.921538  0.001
C  C80  1  0.22984410  0.72523244  0.59450407  1  1.538292  -0.001962  0.194504  0.553298  -0.000322  4.214139  -0.004
C  C81  1  0.80687580  0.65852990  0.81857407  1  -0.011933  0.000815  -0.083057  -0.091371  0.00055  3.995351  0.001
C  C82  1  0.91549342  0.19743887  0.75396631  1  -0.06024  0.000104  -0.091031  -0.131067  0.000158  3.95993  0.0
C  C83  1  0.27016388  0.22523054  0.90549570  1  1.536681  0.001932  0.194501  0.553284  0.000292  4.214213  0.004
C  C84  1  0.69310587  0.15850958  0.68143043  1  -0.013931  -0.000818  -0.083088  -0.091517  -0.000552  3.995776  -0.001
C  C85  1  0.20376370  0.38360523  0.75813841  1  -0.083842  -0.000939  -0.091724  -0.133634  -0.000613  3.983516  -0.001
C  C86  1  0.20376702  0.38355028  0.24187724  1  -0.086162  -0.000947  -0.091779  -0.133825  -0.000618  3.98334  -0.001
C  C87  1  0.31422051  0.36343094  0.27975622  1  0.045167  0.001059  -0.004233  0.089983  0.000749  4.032354  0.001
C  C88  1  0.81419501  0.13654246  0.22025397  1  0.046021  0.001049  -0.004225  0.090124  0.000743  4.031977  0.001
C  C89  1  0.09505836  0.76054529  0.30662681  1  -0.039885  -4.9e-05  -0.08485  -0.089823  9.5e-05  3.986994  0.0
C  C90  1  0.76080447  0.52284460  0.37428266  1  0.440325  0.000816  0.037922  -0.006751  0.000157  3.921423  -0.001
C  C91  1  0.72985127  0.77478133  0.90548884  1  1.536655  -0.001962  0.194483  0.553398  -0.000319  4.21462  -0.004
C  C92  1  0.41553254  0.30253772  0.25398645  1  -0.060238  9e-05  -0.091174  -0.131209  0.000149  3.959965  0.0
C  C93  1  0.26084515  0.97712542  0.12569661  1  0.431183  0.000821  0.037939  -0.007045  0.000168  3.921881  -0.001
C  C94  1  0.17717135  0.90433606  0.15560070  1  0.073273  -0.002595  -0.019442  -0.026924  -0.001844  4.054213  -0.002
C  C95  1  0.46387694  0.44583321  0.50000401  1  0.664758  0.000381  0.147626  0.047861  0.00027  3.824195  0.0
C  C96  1  0.90494174  0.23945228  0.69336464  1  -0.039869  5.5e-05  -0.084877  -0.089973  -9.1e-05  3.987048  0.0
C  C97  1  0.91549822  0.12070595  0.89054518  1  0.248491  -0.000825  0.037523  -0.073165  -0.000144  3.792501  0.0
C  C98  1  0.41548497  0.37931765  0.60945914  1  0.304012  -0.000852  0.037547  -0.073053  -0.000142  3.792133  0.0
C  C99  1  0.20746222  0.77806651  0.65681299  1  -0.08708  0.010496  -0.01958  -0.032078  0.007557  3.974323  0.008
C  C100  1  0.76080468  0.52284794  0.62571206  1  0.430291  0.000802  0.037909  -0.006778  0.000157  3.921744  -0.001
C  C101  1  0.73918431  0.02285349  0.87429293  1  0.431088  -0.000874  0.037881  -0.00691  -0.000208  3.921681  0.001
C  C102  1  0.96389197  0.05417999  0.99999997  1  0.648035  0.000381  0.147805  0.047984  0.00027  3.823799  0.0
C  C103  1  0.77011433  0.27476568  0.59451187  1  1.537806  0.001916  0.19435  0.553459  0.000284  4.213817  0.004
C  C104  1  0.26080657  0.97716493  0.87427815  1  0.440653  0.000835  0.037848  -0.006835  0.00017  3.92112  -0.001
C  C105  1  0.58450339  0.62070012  0.39054369  1  0.248421  0.000766  0.037516  -0.073121  0.000103  3.792431  0.0
C  C106  1  0.79250756  0.22193794  0.65682022  1  -0.016166  -0.01046  -0.019593  -0.032174  -0.007539  3.974502  -0.008
C  C107  1  0.32285308  0.40434084  0.34439428  1  0.073055  0.002624  -0.01944  -0.027122  0.001863  4.054393  0.002
C  C108  1  0.08451167  0.87929084  0.10944911  1  0.248703  0.000779  0.03746  -0.07316  0.000112  3.792553  0.0
C  C109  1  0.68579917  0.63655963  0.72025135  1  0.046214  -0.001056  -0.004181  0.090197  -0.000747  4.032235  -0.001
C  C110  1  0.23918291  0.47717239  0.62571970  1  0.440753  -0.000885  0.037765  -0.006996  -0.000207  3.921392  0.001
C  C111  1  0.29257292  0.27801679  0.15683372  1  -0.086171  -0.010493  -0.019968  -0.032668  -0.007554  3.974275  -0.008
C  C112  1  0.41551130  0.30257774  0.74603042  1  -0.060389  9.7e-05  -0.091088  -0.131118  0.000153  3.960267  0.0
C  C113  1  0.08449054  0.80256851  0.75396413  1  -0.060716  -9.2e-05  -0.091185  -0.131065  -0.00015  3.960003  0.0
C  C114  1  0.32284523  0.40437180  0.65561784  1  0.063057  0.002641  -0.019434  -0.027216  0.001866  4.054085  0.002
C  C115  1  0.70744109  0.72195026  0.15681843  1  -0.086434  0.010472  -0.019758  -0.032387  0.007541  3.974006  0.008
C  C116  1  0.08450775  0.87930259  0.89053920  1  0.249162  0.000781  0.037555  -0.073096  0.000112  3.792522  0.0
C  C117  1  0.23918270  0.47714185  0.37428982  1  0.431234  -0.000873  0.037906  -0.006814  -0.000205  3.921658  0.001
C  C118  1  0.59503590  0.73946319  0.80663038  1  0.029981  -6.4e-05  -0.084854  -0.08999  9.2e-05  3.987072  0.0
C  C119  1  0.03611401  0.94582379  0.99999621  1  0.664972  -0.000378  0.147641  0.048024  -0.000267  3.823729  0.0
C  C120  1  0.70374544  0.11639094  0.25813057  1  -0.084726  -0.000934  -0.091705  -0.13339  -0.000609  3.983089  -0.001
C  C121  1  0.29627013  0.88359776  0.25812106  1  -0.084706  0.000935  -0.09184  -0.133719  0.00061  3.983292  0.001
C  C122  1  0.91548804  0.19744537  0.24603206  1  -0.060193  0.000102  -0.090993  -0.13099  0.000157  3.959904  0.0
C  C123  1  0.20748570  0.77806584  0.34317454  1  -0.015979  0.010472  -0.019614  -0.032157  0.007548  3.97448  0.008
C  C124  1  0.41549103  0.37929434  0.39055345  1  0.249058  -0.000819  0.037452  -0.073232  -0.000139  3.792269  0.0
C  C125  1  0.59502137  0.73946661  0.19337568  1  0.029946  -5.2e-05  -0.084794  -0.089847  0.0001  3.986789  0.0
C  C126  1  0.81419321  0.13654721  0.77974984  1  0.045693  0.001048  -0.004259  0.090152  0.000742  4.032224  0.001
C  C127  1  0.17714964  0.90435804  0.84438096  1  0.063081  -0.00261  -0.019477  -0.027364  -0.001845  4.054498  -0.002
C  C128  1  0.40500041  0.26051573  0.19338525  1  0.029865  8.3e-05  -0.08462  -0.089698  -7.9e-05  3.98635  0.0
C  C129  1  0.40496993  0.26055427  0.80662952  1  0.03049  7.5e-05  -0.084931  -0.090178  -8.5e-05  3.987149  0.0
C  C130  1  0.79250950  0.22192717  0.34318319  1  -0.016628  -0.010462  -0.0196  -0.032071  -0.00754  3.974502  -0.008
C  C131  1  0.53610946  0.55418456  0.50000071  1  0.648079  -0.000379  0.14766  0.047506  -0.000268  3.824336  0.0
C  C132  1  0.19313718  0.34149472  0.81858480  1  -0.012579  -0.000808  -0.083118  -0.091348  -0.000545  3.99542  -0.001
C  C133  1  0.19315367  0.34143347  0.18143397  1  -0.011793  -0.000798  -0.083078  -0.091188  -0.000539  3.995284  -0.001
C  C134  1  0.58451201  0.62071411  0.60945411  1  0.249449  0.000763  0.03757  -0.073104  0.0001  3.792396  0.0
C  C135  1  0.77012468  0.27475502  0.40549164  1  1.537943  0.001918  0.194331  0.553318  0.000285  4.213868  0.004
C  C136  1  0.31420841  0.36347059  0.72025802  1  0.04603  0.001053  -0.004212  0.09016  0.000745  4.032147  0.001
C  C137  1  0.58448587  0.69744858  0.25397668  1  -0.060207  -0.000112  -0.091179  -0.13128  -0.000164  3.960214  0.0
C  C138  1  0.08452038  0.80255170  0.24602276  1  -0.060714  -0.000106  -0.091279  -0.131616  -0.00016  3.960213  0.0
C  C139  1  0.80684726  0.65851761  0.18141708  1  -0.01195  0.000826  -0.083114  -0.091343  0.000558  3.995337  0.001
N  N140  1  0.77819399  0.00391342  0.93369865  1  -0.722993  0.066881  -0.26894  -0.235385  0.04825  3.545863  0.06
N  N141  1  0.22180328  0.99610196  0.93368630  1  -0.723364  -0.06683  -0.268844  -0.235315  -0.048214  3.545341  -0.06
N  N142  1  0.72179804  0.50390719  0.56630539  1  -0.722914  -0.066797  -0.268906  -0.235561  -0.048191  3.545727  -0.06
N  N143  1  0.88518129  0.06506249  0.05669069  1  -0.798812  0.004478  -0.142408  0.121894  0.002669  3.755359  0.003
N  N144  1  0.11482468  0.93494207  0.94330550  1  -0.799807  -0.004485  -0.142399  0.121839  -0.00267  3.755483  -0.003
N  N145  1  0.61482162  0.56506438  0.44331000  1  -0.798786  -0.004477  -0.142386  0.122106  -0.002667  3.755312  -0.003
N  N146  1  0.88517576  0.06507111  0.94331369  1  -0.798948  0.004475  -0.1424  0.121744  0.002667  3.755317  0.003
N  N147  1  0.38516380  0.43495261  0.55669283  1  -0.799658  0.004477  -0.14227  0.122161  0.002666  3.755199  0.003
N  N148  1  0.77819389  0.00391193  0.06630610  1  -0.723221  0.066884  -0.268892  -0.235379  0.048252  3.545689  0.06
N  N149  1  0.11483412  0.93492723  0.05668108  1  -0.79931  -0.004482  -0.142336  0.121555  -0.002668  3.755594  -0.003
N  N150  1  0.27818318  0.49610764  0.56631060  1  -0.723097  0.066882  -0.268948  -0.235631  0.048253  3.54523  0.06
N  N151  1  0.72179931  0.50390625  0.43369127  1  -0.723151  -0.066798  -0.268917  -0.235527  -0.048191  3.545517  -0.06
N  N152  1  0.38516336  0.43493471  0.44331769  1  -0.799051  0.004476  -0.142258  0.121985  0.002667  3.755576  0.003
N  N153  1  0.61482696  0.56507373  0.55668751  1  -0.799295  -0.004477  -0.142394  0.122052  -0.002666  3.755202  -0.003
N  N154  1  0.22182960  0.99607171  0.06629279  1  -0.723026  -0.066819  -0.269056  -0.235357  -0.048207  3.546186  -0.06
N  N155  1  0.27818249  0.49608805  0.43369696  1  -0.723397  0.066875  -0.269002  -0.2356  0.048244  3.546129  0.06
O  O156  1  0.84264308  0.77460809  0.07095812  1  -1.167069  0.001784  -0.322493  -0.554454  0.000938  2.214524  0.002
O  O157  1  0.36880020  0.17636128  0.93066062  1  -1.089732  -0.135127  -0.334248  -0.523323  -0.089329  2.241308  -0.12
O  O158  1  0.15737465  0.22537096  0.07097594  1  -1.167392  -0.001782  -0.322382  -0.554366  -0.000935  2.214346  -0.002
O  O159  1  0.63119403  0.82365105  0.06933984  1  -1.089072  0.135163  -0.334237  -0.523287  0.089356  2.241068  0.12
O  O160  1  0.15735115  0.22540347  0.92904850  1  -1.167029  -0.001779  -0.322551  -0.554404  -0.000933  2.21432  -0.002
O  O161  1  0.84266655  0.77460329  0.92903590  1  -1.167273  0.001787  -0.322489  -0.554344  0.000939  2.214496  0.002
O  O162  1  0.36882464  0.17632797  0.06934797  1  -1.089186  -0.135138  -0.334154  -0.523251  -0.089339  2.241285  -0.12
O  O163  1  0.13123214  0.67636925  0.43065034  1  -1.090665  0.135166  -0.334164  -0.523388  0.089361  2.241517  0.12
O  O164  1  0.13120647  0.67637178  0.56933441  1  -1.09124  0.135152  -0.33429  -0.523377  0.089351  2.241253  0.12
O  O165  1  0.65730802  0.27457744  0.42904112  1  -1.167445  -0.001783  -0.32234  -0.554227  -0.000935  2.214039  -0.002
O  O166  1  0.86875035  0.32362754  0.56933826  1  -1.090478  -0.13513  -0.334159  -0.523463  -0.089332  2.24146  -0.12
O  O167  1  0.65729610  0.27459322  0.57096670  1  -1.167607  -0.001781  -0.32245  -0.554358  -0.000934  2.214038  -0.002
O  O168  1  0.34268541  0.72541057  0.42903138  1  -1.167333  0.001787  -0.322392  -0.554242  0.000939  2.214263  0.002
O  O169  1  0.34266272  0.72540225  0.57095649  1  -1.167247  0.001789  -0.322496  -0.554331  0.000941  2.214235  0.002
O  O170  1  0.63121656  0.82364783  0.93065912  1  -1.089823  0.13516  -0.334298  -0.52347  0.089356  2.241568  0.12
O  O171  1  0.86875938  0.32362578  0.43065751  1  -1.090458  -0.135129  -0.33429  -0.523566  -0.089332  2.241406  -0.12
