# generated using pymatgen
data_Zn5H18C26(N6O7)2
_symmetry_space_group_name_H-M   'P 1'
_cell_length_a   12.82821707
_cell_length_b   12.82823774
_cell_length_c   18.79328963
_cell_angle_alpha   83.88711231
_cell_angle_beta   83.88703401
_cell_angle_gamma   69.15964297
_symmetry_Int_Tables_number   1
_chemical_formula_structural   Zn5H18C26(N6O7)2
_chemical_formula_sum   'Zn10 H36 C52 N24 O28'
_cell_volume   2866.07268072
_cell_formula_units_Z   2
loop_
 _symmetry_equiv_pos_site_id
 _symmetry_equiv_pos_as_xyz
  1  'x, y, z'
loop_
 _atom_site_type_symbol
 _atom_site_label
 _atom_site_symmetry_multiplicity
 _atom_site_fract_x
 _atom_site_fract_y
 _atom_site_fract_z
 _atom_site_occupancy
 _atom_site_pbe_bader_charge
 _atom_site_pbe_bader_spin_density
 _atom_site_pbe_cm5_charge
 _atom_site_pbe_ddec_charge
 _atom_site_pbe_ddec_spin_density
 _atom_site_pbe_ddec_sum_bond_order
 _atom_site_pbe_magmom
Zn  Zn0  1  0.71772268  0.94057623  0.77458115  1  1.263288  0  0.712502  0.765402  0  2.450642  0
Zn  Zn1  1  0.09165972  0.69514227  0.56639262  1  1.253244  0  0.713087  0.824983  0  2.353945  0
Zn  Zn2  1  0.05942233  0.28227814  0.72541983  1  1.263291  0  0.7125  0.765431  0  2.450616  0
Zn  Zn3  1  0.30485855  0.90834019  0.93360735  1  1.253241  0  0.713089  0.824974  0  2.353973  0
Zn  Zn4  1  0.28227709  0.05942305  0.22541893  1  1.26329  0  0.712509  0.765443  0  2.450648  0
Zn  Zn5  1  0.90833921  0.30485809  0.43360744  1  1.253223  0  0.713085  0.824986  0  2.353959  0
Zn  Zn6  1  0.94057660  0.71772300  0.27458177  1  1.263284  0  0.712491  0.76539  0  2.450668  0
Zn  Zn7  1  0.69514289  0.09165850  0.06639265  1  1.253252  0  0.713081  0.824983  0  2.353964  0
Zn  Zn8  1  0.88614157  0.11385857  0.74999893  1  1.334715  0  0.706786  0.722954  0  2.491918  0
Zn  Zn9  1  0.11385820  0.88614227  0.24999997  1  1.334685  0  0.706799  0.722967  0  2.491857  0
H  H10  1  0.06161822  0.50648051  0.60234256  1  0.660464  0  0.294156  0.401522  0  0.940804  0
H  H11  1  0.94235988  0.57522687  0.57029804  1  0.64328  0  0.334728  0.414752  0  0.859402  0
H  H12  1  0.65849108  0.33164478  0.62327826  1  0.094322  0  0.10498  0.111256  0  1.008112  0
H  H13  1  0.51556883  0.48671110  0.56116664  1  0.103917  0  0.105432  0.115946  0  1.014134  0
H  H14  1  0.40810280  0.19332627  0.71163572  1  0.141413  0  0.105153  0.112836  0  1.011779  0
H  H15  1  0.84222054  0.16939122  0.92438442  1  0.151739  0  0.146314  0.114772  0  0.964792  0
H  H16  1  0.67851285  0.93334696  0.95136573  1  0.175192  0  0.134799  0.103491  0  1.028529  0
H  H17  1  0.08919347  0.92522902  0.64198819  1  0.098904  0  0.145146  0.111465  0  0.957344  0
H  H18  1  0.86673312  0.74727506  0.66678946  1  0.15374  0  0.145946  0.117278  0  0.975067  0
H  H19  1  0.49351921  0.93838170  0.89765795  1  0.660464  0  0.294153  0.401511  0  0.940825  0
H  H20  1  0.42477316  0.05763861  0.92970383  1  0.643278  0  0.334706  0.414748  0  0.859361  0
H  H21  1  0.66835264  0.34151010  0.87672043  1  0.094356  0  0.104976  0.11127  0  1.008001  0
H  H22  1  0.51328680  0.48443192  0.93883269  1  0.103963  0  0.105472  0.11601  0  1.014013  0
H  H23  1  0.80667374  0.59189679  0.78836400  1  0.141413  0  0.105157  0.112857  0  1.011822  0
H  H24  1  0.83060669  0.15778134  0.57561563  1  0.151764  0  0.14631  0.114761  0  0.964777  0
H  H25  1  0.06665387  0.32148653  0.54863467  1  0.175186  0  0.134799  0.103501  0  1.028515  0
H  H26  1  0.07477097  0.91080644  0.85801140  1  0.09897  0  0.145145  0.111451  0  0.957373  0
H  H27  1  0.25272425  0.13326742  0.83321135  1  0.153746  0  0.145904  0.11725  0  0.975112  0
H  H28  1  0.93838239  0.49351925  0.39765795  1  0.660504  0  0.294144  0.401514  0  0.940815  0
H  H29  1  0.05763906  0.42477349  0.42970415  1  0.642955  0  0.334691  0.414739  0  0.85937  0
H  H30  1  0.34150952  0.66835421  0.37672178  1  0.094346  0  0.104968  0.111229  0  1.008041  0
H  H31  1  0.48443262  0.51328916  0.43883271  1  0.104043  0  0.105433  0.115976  0  1.014156  0
H  H32  1  0.59189531  0.80667672  0.28836420  1  0.14152  0  0.105135  0.112816  0  1.011819  0
H  H33  1  0.15778257  0.83060532  0.07561614  1  0.151737  0  0.146325  0.114781  0  0.964707  0
H  H34  1  0.32148609  0.06665418  0.04863481  1  0.175996  0  0.134802  0.103503  0  1.028514  0
H  H35  1  0.91080546  0.07477133  0.35801187  1  0.098963  0  0.145172  0.111479  0  0.957369  0
H  H36  1  0.13326748  0.25272393  0.33321111  1  0.153746  0  0.145932  0.117275  0  0.97512  0
H  H37  1  0.50647973  0.06161866  0.10234210  1  0.660476  0  0.294147  0.401536  0  0.940796  0
H  H38  1  0.57522744  0.94235881  0.07029845  1  0.643238  0  0.334723  0.414783  0  0.859397  0
H  H39  1  0.33164712  0.65848682  0.12327822  1  0.094371  0  0.104974  0.111264  0  1.008074  0
H  H40  1  0.48671046  0.51556668  0.06116655  1  0.103928  0  0.105466  0.116025  0  1.014085  0
H  H41  1  0.19332519  0.40810278  0.21163506  1  0.14157  0  0.105175  0.112889  0  1.011835  0
H  H42  1  0.16939309  0.84221950  0.42438433  1  0.151714  0  0.146316  0.114761  0  0.964778  0
H  H43  1  0.93334591  0.67851510  0.45136523  1  0.175965  0  0.134811  0.103512  0  1.028507  0
H  H44  1  0.92522881  0.08919440  0.14198856  1  0.098967  0  0.145144  0.111466  0  0.95736  0
H  H45  1  0.74727636  0.86673234  0.16678970  1  0.15376  0  0.145924  0.117279  0  0.97507  0
C  C46  1  0.63089000  0.15389642  0.70572781  1  1.539946  0  0.215134  0.594973  0  4.168085  0
C  C47  1  0.54305418  0.25055816  0.67056167  1  -0.028388  0  -0.024182  -0.054058  0  4.000218  0
C  C48  1  0.57200632  0.33491633  0.62872595  1  0.001135  0  -0.073535  -0.063871  0  3.943744  0
C  C49  1  0.49084803  0.42271408  0.59378673  1  -0.042536  0  -0.084154  -0.1091  0  3.953259  0
C  C50  1  0.37889359  0.42951017  0.60091408  1  -0.00735  0  0.007325  0.002706  0  3.890309  0
C  C51  1  0.34854845  0.34712847  0.64499959  1  -0.057494  0  -0.016909  -0.071007  0  3.9485  0
C  C52  1  0.43114359  0.25801587  0.67874067  1  -0.013229  0  -0.075171  -0.093374  0  3.939103  0
C  C53  1  0.29292321  0.52625727  0.56300644  1  1.596877  0  0.198269  0.580329  0  4.240605  0
C  C54  1  0.23015146  0.35126800  0.65591246  1  1.569615  0  0.220756  0.608462  0  4.160738  0
C  C55  1  0.80860380  0.10584432  0.91538473  1  0.987601  0  0.153738  0.161535  0  3.945102  0
C  C56  1  0.72476090  0.98717558  0.92965819  1  0.970453  0  0.144383  0.144433  0  3.979998  0
C  C57  1  0.01785922  0.89942815  0.65860888  1  1.012631  0  0.147083  0.145643  0  3.975701  0
C  C58  1  0.90485704  0.80940106  0.67051296  1  1.030127  0  0.152293  0.156883  0  3.9443  0
C  C59  1  0.84610084  0.36911254  0.79427126  1  1.539858  0  0.215186  0.595001  0  4.167893  0
C  C60  1  0.74944000  0.45694792  0.82943691  1  -0.029097  0  -0.024152  -0.053997  0  4.00026  0
C  C61  1  0.66508338  0.42799531  0.87127257  1  0.001264  0  -0.073498  -0.063839  0  3.943673  0
C  C62  1  0.57728485  0.50915321  0.90621301  1  -0.042489  0  -0.084237  -0.109225  0  3.953309  0
C  C63  1  0.57048892  0.62110710  0.89908573  1  -0.007356  0  0.007372  0.002729  0  3.890393  0
C  C64  1  0.65287193  0.65145056  0.85499970  1  -0.057499  0  -0.0169  -0.070945  0  3.948572  0
C  C65  1  0.74198281  0.56885793  0.82125850  1  -0.012698  0  -0.075221  -0.093488  0  3.93928  0
C  C66  1  0.47374148  0.70707752  0.93699294  1  1.59691  0  0.198261  0.580381  0  4.240649  0
C  C67  1  0.64873059  0.76984937  0.84408794  1  1.569219  0  0.220737  0.608362  0  4.160732  0
C  C68  1  0.89415340  0.19139910  0.58461472  1  0.987721  0  0.153765  0.161595  0  3.945043  0
C  C69  1  0.01282403  0.27523979  0.57034221  1  0.970453  0  0.144406  0.144469  0  3.979889  0
C  C70  1  0.10057031  0.98214080  0.84139030  1  1.012543  0  0.147066  0.145623  0  3.975679  0
C  C71  1  0.19059845  0.09514272  0.82948737  1  1.030141  0  0.152289  0.156833  0  3.944321  0
C  C72  1  0.36911060  0.84610100  0.29427181  1  1.539998  0  0.215111  0.594902  0  4.168183  0
C  C73  1  0.45694726  0.74944053  0.32943620  1  -0.029158  0  -0.024157  -0.053979  0  4.000252  0
C  C74  1  0.42799513  0.66508470  0.37127335  1  0.001252  0  -0.073522  -0.063821  0  3.943669  0
C  C75  1  0.50915258  0.57728647  0.40621319  1  -0.042519  0  -0.084198  -0.109217  0  3.953369  0
C  C76  1  0.62110785  0.57049008  0.39908527  1  -0.007776  0  0.007374  0.002711  0  3.890352  0
C  C77  1  0.65145300  0.65287256  0.35499810  1  -0.057549  0  -0.016855  -0.070873  0  3.948537  0
C  C78  1  0.56885618  0.74198497  0.32125770  1  -0.012819  0  -0.07518  -0.093411  0  3.939153  0
C  C79  1  0.70707824  0.47374377  0.43699179  1  1.597342  0  0.198243  0.580354  0  4.240651  0
C  C80  1  0.76984748  0.64873314  0.34408701  1  1.569614  0  0.220762  0.608362  0  4.16093  0
C  C81  1  0.19139931  0.89415378  0.08461572  1  0.987773  0  0.153698  0.161514  0  3.945078  0
C  C82  1  0.27523971  0.01282419  0.07034233  1  0.96965  0  0.14442  0.144484  0  3.979945  0
C  C83  1  0.98213971  0.10057142  0.34139070  1  1.012497  0  0.14704  0.145577  0  3.975706  0
C  C84  1  0.09514274  0.19059900  0.32948706  1  1.030133  0  0.152326  0.156898  0  3.944359  0
C  C85  1  0.15389893  0.63088909  0.20572918  1  1.540013  0  0.215135  0.594932  0  4.168201  0
C  C86  1  0.25055977  0.54305293  0.17056305  1  -0.028563  0  -0.024169  -0.054032  0  4.000264  0
C  C87  1  0.33491806  0.57200416  0.12872630  1  0.001257  0  -0.073501  -0.063828  0  3.943619  0
C  C88  1  0.42271576  0.49084656  0.09378644  1  -0.042556  0  -0.084204  -0.109207  0  3.953298  0
C  C89  1  0.42951168  0.37889189  0.10091324  1  -0.007823  0  0.007315  0.00265  0  3.890321  0
C  C90  1  0.34712866  0.34854529  0.14500057  1  -0.05749  0  -0.016887  -0.070944  0  3.948504  0
C  C91  1  0.25801530  0.43114350  0.17874154  1  -0.013391  0  -0.075224  -0.093482  0  3.939226  0
C  C92  1  0.52625912  0.29291911  0.06300727  1  1.597467  0  0.198253  0.580487  0  4.240236  0
C  C93  1  0.35126834  0.23015098  0.15591265  1  1.569603  0  0.220712  0.608301  0  4.160716  0
C  C94  1  0.10584554  0.80860361  0.41538464  1  0.987619  0  0.153742  0.161605  0  3.945026  0
C  C95  1  0.98717491  0.72476135  0.42965779  1  0.969645  0  0.144396  0.144448  0  3.979864  0
C  C96  1  0.89942863  0.01786034  0.15861024  1  1.012501  0  0.14706  0.145569  0  3.975624  0
C  C97  1  0.80940133  0.90485812  0.17051366  1  1.029869  0  0.152273  0.156791  0  3.944294  0
N  N98  1  0.81494603  0.06738666  0.85158246  1  -0.740546  0  -0.234319  -0.175659  0  3.446212  0
N  N99  1  0.76089015  0.99166506  0.86090801  1  -0.797577  0  -0.25628  -0.196371  0  3.542659  0
N  N100  1  0.75298510  0.05749845  0.96611566  1  -1.262828  0  -0.363347  -0.350244  0  3.618074  0
N  N101  1  0.93407242  0.95283620  0.70435038  1  -0.768103  0  -0.238587  -0.206763  0  3.477613  0
N  N102  1  0.86184152  0.89500685  0.71152219  1  -0.80331  0  -0.253107  -0.188692  0  3.543569  0
N  N103  1  0.00295777  0.80914047  0.63574210  1  -1.260624  0  -0.359965  -0.335186  0  3.564568  0
N  N104  1  0.93261184  0.18505501  0.64841758  1  -0.740668  0  -0.234339  -0.17568  0  3.446165  0
N  N105  1  0.00833434  0.23911061  0.63909185  1  -0.797569  0  -0.256302  -0.196417  0  3.542608  0
N  N106  1  0.94249987  0.24701651  0.53388490  1  -1.262859  0  -0.363349  -0.350288  0  3.618105  0
N  N107  1  0.04716493  0.06592691  0.79564937  1  -0.768126  0  -0.23854  -0.20665  0  3.477612  0
N  N108  1  0.10499235  0.13815803  0.78847716  1  -0.803306  0  -0.253093  -0.188693  0  3.54358  0
N  N109  1  0.19085905  0.99704253  0.86425802  1  -1.260593  0  -0.359972  -0.335185  0  3.564511  0
N  N110  1  0.18505624  0.93261017  0.14841814  1  -0.740716  0  -0.2343  -0.175637  0  3.446154  0
N  N111  1  0.23911045  0.00833392  0.13909203  1  -0.797576  0  -0.256346  -0.196494  0  3.542686  0
N  N112  1  0.24701551  0.94250054  0.03388544  1  -1.262844  0  -0.363313  -0.35022  0  3.618135  0
N  N113  1  0.06592652  0.04716494  0.29564909  1  -0.768071  0  -0.238562  -0.206694  0  3.477608  0
N  N114  1  0.13815741  0.10499272  0.28847792  1  -0.803289  0  -0.253132  -0.188738  0  3.543593  0
N  N115  1  0.99704117  0.19085988  0.36425796  1  -1.260611  0  -0.359972  -0.335171  0  3.564528  0
N  N116  1  0.06738710  0.81494691  0.35158236  1  -0.740434  0  -0.234327  -0.175709  0  3.44619  0
N  N117  1  0.99166544  0.76089180  0.36090852  1  -0.797703  0  -0.256303  -0.196356  0  3.542675  0
N  N118  1  0.05749824  0.75298570  0.46611614  1  -1.262813  0  -0.363334  -0.350302  0  3.61796  0
N  N119  1  0.95283652  0.93407334  0.20435157  1  -0.76811  0  -0.238525  -0.206625  0  3.477426  0
N  N120  1  0.89500826  0.86184252  0.21152383  1  -0.803194  0  -0.253095  -0.188657  0  3.543448  0
N  N121  1  0.80913989  0.00295861  0.13574304  1  -1.26042  0  -0.359986  -0.335178  0  3.564515  0
O  O122  1  0.72864268  0.15680616  0.70409538  1  -1.19934  0  -0.319333  -0.562441  0  2.375892  0
O  O123  1  0.60085309  0.07186728  0.73445970  1  -1.164731  0  -0.332867  -0.540647  0  2.302172  0
O  O124  1  0.22770981  0.60037433  0.60625092  1  -1.160927  0  -0.356492  -0.573661  0  2.276503  0
O  O125  1  0.28870128  0.53241802  0.49700973  1  -1.159937  0  -0.32872  -0.548219  0  2.081053  0
O  O126  1  0.16302490  0.39646025  0.60741653  1  -1.210046  0  -0.326513  -0.592266  0  2.247507  0
O  O127  1  0.20344134  0.30391755  0.71552332  1  -1.164548  0  -0.32727  -0.536839  0  2.315832  0
O  O128  1  0.00354213  0.58401027  0.59238989  1  -1.273763  0  -0.563864  -0.751753  0  2.077575  0
O  O129  1  0.84319428  0.27135863  0.79590351  1  -1.199288  0  -0.319393  -0.562448  0  2.375745  0
O  O130  1  0.92813224  0.39914849  0.76553873  1  -1.164677  0  -0.332872  -0.540696  0  2.302129  0
O  O131  1  0.39962600  0.77229153  0.89374782  1  -1.160986  0  -0.356499  -0.573687  0  2.276551  0
O  O132  1  0.46757962  0.71130025  0.00298907  1  -1.159928  0  -0.328708  -0.548234  0  2.081095  0
O  O133  1  0.60353800  0.83697541  0.89258398  1  -1.209655  0  -0.326508  -0.592227  0  2.247485  0
O  O134  1  0.69608264  0.79655880  0.78447701  1  -1.164533  0  -0.327258  -0.536773  0  2.315853  0
O  O135  1  0.41598931  0.99645753  0.90761124  1  -1.273767  0  -0.563845  -0.751749  0  2.077538  0
O  O136  1  0.27135709  0.84319312  0.29590470  1  -1.19934  0  -0.319345  -0.562423  0  2.375923  0
O  O137  1  0.39914668  0.92813199  0.26553932  1  -1.164712  0  -0.332856  -0.540651  0  2.30215  0
O  O138  1  0.77229163  0.39962593  0.39374683  1  -1.160993  0  -0.356504  -0.573677  0  2.276562  0
O  O139  1  0.71130100  0.46758194  0.50298799  1  -1.159862  0  -0.328683  -0.54821  0  2.081066  0
O  O140  1  0.83697572  0.60354186  0.39258222  1  -1.209979  0  -0.326525  -0.592261  0  2.247547  0
O  O141  1  0.79655927  0.69608378  0.28447495  1  -1.164602  0  -0.327299  -0.536816  0  2.315821  0
O  O142  1  0.99645597  0.41599037  0.40761233  1  -1.273469  0  -0.56382  -0.751738  0  2.077546  0
O  O143  1  0.15680968  0.72864074  0.20409785  1  -1.199299  0  -0.319312  -0.562396  0  2.375947  0
O  O144  1  0.07186670  0.60085265  0.23446074  1  -1.164734  0  -0.332904  -0.540678  0  2.30213  0
O  O145  1  0.60037627  0.22770530  0.10625491  1  -1.161063  0  -0.356424  -0.573675  0  2.276335  0
O  O146  1  0.53242432  0.28869364  0.99701056  1  -1.159937  0  -0.328748  -0.548308  0  2.080959  0
O  O147  1  0.39645926  0.16302475  0.10741515  1  -1.210054  0  -0.326485  -0.592203  0  2.247385  0
O  O148  1  0.30392047  0.20343930  0.21552504  1  -1.164565  0  -0.327255  -0.536761  0  2.315824  0
O  O149  1  0.58400879  0.00354390  0.09238774  1  -1.273741  0  -0.563861  -0.751813  0  2.077605  0
