# generated using pymatgen
data_CdH24C34N2O5
_symmetry_space_group_name_H-M   'P 1'
_cell_length_a   9.62656450
_cell_length_b   15.40757452
_cell_length_c   15.25805329
_cell_angle_alpha   61.61806230
_cell_angle_beta   72.45106759
_cell_angle_gamma   88.47077400
_symmetry_Int_Tables_number   1
_chemical_formula_structural   CdH24C34N2O5
_chemical_formula_sum   'Cd2 H48 C68 N4 O10'
_cell_volume   1879.96976567
_cell_formula_units_Z   2
loop_
 _symmetry_equiv_pos_site_id
 _symmetry_equiv_pos_as_xyz
  1  'x, y, z'
loop_
 _atom_site_type_symbol
 _atom_site_label
 _atom_site_symmetry_multiplicity
 _atom_site_fract_x
 _atom_site_fract_y
 _atom_site_fract_z
 _atom_site_occupancy
 _atom_site_pbe_bader_charge
 _atom_site_pbe_bader_spin_density
 _atom_site_pbe_cm5_charge
 _atom_site_pbe_ddec_charge
 _atom_site_pbe_ddec_spin_density
 _atom_site_pbe_ddec_sum_bond_order
 _atom_site_pbe_magmom
Cd  Cd0  1  0.14594128  0.10067123  0.50751407  1  1.277468  0  0.774545  0.885036  0  2.174149  0
Cd  Cd1  1  0.85405811  0.89932906  0.49248611  1  1.277512  0  0.774549  0.885037  0  2.174161  0
H  H2  1  0.94096575  0.25158785  0.54343304  1  0.133303  0  0.114428  0.08933  0  1.021673  0
H  H3  1  0.05903411  0.74840947  0.45656779  1  0.133281  0  0.114431  0.089344  0  1.021636  0
H  H4  1  0.70278556  0.26140983  0.66075207  1  0.057151  0  0.103693  0.109943  0  1.006265  0
H  H5  1  0.29721695  0.73858970  0.33924853  1  0.057133  0  0.103697  0.109941  0  1.006255  0
H  H6  1  0.63655257  0.93911954  0.83630661  1  0.081936  0  0.104228  0.109191  0  1.009444  0
H  H7  1  0.36344216  0.06087928  0.16369383  1  0.082051  0  0.104244  0.109198  0  1.009458  0
H  H8  1  0.87136344  0.94332474  0.70837488  1  0.152871  0  0.11385  0.095593  0  1.030335  0
H  H9  1  0.12863005  0.05667334  0.29162616  1  0.152527  0  0.113835  0.095593  0  1.0303  0
H  H10  1  0.49009511  0.18445420  0.80816127  1  0.025669  0  0.097699  0.092175  0  1.035357  0
H  H11  1  0.50990428  0.81554608  0.19184022  1  0.025683  0  0.09771  0.092192  0  1.035338  0
H  H12  1  0.43030732  0.95541705  0.93033862  1  0.029494  0  0.101471  0.096474  0  1.011212  0
H  H13  1  0.56969208  0.04458324  0.06966155  1  0.029494  0  0.101466  0.096464  0  1.011225  0
H  H14  1  0.29561140  0.20058089  0.90364118  1  0.074975  0  0.096755  0.092588  0  1.036195  0
H  H15  1  0.70438659  0.79941791  0.09636062  1  0.075029  0  0.096737  0.092568  0  1.036202  0
H  H16  1  0.05767711  0.20707432  0.01567610  1  0.05453  0  0.103285  0.103691  0  0.995553  0
H  H17  1  0.94231964  0.79292375  0.98432497  1  0.054531  0  0.103265  0.103629  0  0.995618  0
H  H18  1  0.96992535  0.88615286  0.18532549  1  0.085536  0  0.105517  0.11062  0  0.992535  0
H  H19  1  0.03007466  0.11384521  0.81467431  1  0.085489  0  0.105528  0.110645  0  0.992546  0
H  H20  1  0.21079534  0.87941517  0.07077448  1  0.045043  0  0.101009  0.099148  0  0.994152  0
H  H21  1  0.78920499  0.12058440  0.92922390  1  0.04506  0  0.101027  0.099169  0  0.994114  0
H  H22  1  0.80281260  0.97338867  0.24489130  1  0.15024  0  0.106792  0.115763  0  1.038914  0
H  H23  1  0.19718539  0.02661016  0.75510787  1  0.15026  0  0.106787  0.115764  0  1.038902  0
H  H24  1  0.81298034  0.19497124  0.08648873  1  0.042464  0  0.097849  0.092962  0  1.00717  0
H  H25  1  0.18701874  0.80502755  0.91351353  1  0.042524  0  0.097854  0.092977  0  1.00714  0
H  H26  1  0.59364694  0.26790311  0.13427171  1  0.081536  0  0.105232  0.111887  0  0.993088  0
H  H27  1  0.40635323  0.73209569  0.86572902  1  0.081521  0  0.105226  0.111886  0  0.993099  0
H  H28  1  0.35600141  0.25577232  0.26745799  1  0.112072  0  0.120512  0.093918  0  0.972802  0
H  H29  1  0.64399876  0.74422647  0.73254340  1  0.112041  0  0.120509  0.093899  0  0.972827  0
H  H30  1  0.37808453  0.96396145  0.47297374  1  0.133615  0  0.11159  0.083284  0  1.062193  0
H  H31  1  0.62191455  0.03603737  0.52702654  1  0.133441  0  0.111596  0.083277  0  1.06221  0
H  H32  1  0.61347507  0.96120755  0.35176701  1  0.167113  0  0.109919  0.132578  0  1.036377  0
H  H33  1  0.38652635  0.03879199  0.64823379  1  0.167131  0  0.109925  0.132597  0  1.036358  0
H  H34  1  0.03587008  0.31552161  0.33801111  1  0.116625  0  0.105428  0.116966  0  1.008639  0
H  H35  1  0.96413072  0.68448018  0.66198744  1  0.116628  0  0.105419  0.116958  0  1.00864  0
H  H36  1  0.91635993  0.46623943  0.31955723  1  0.073953  0  0.10433  0.120045  0  0.998661  0
H  H37  1  0.08363853  0.53376162  0.68044211  1  0.073955  0  0.104334  0.120083  0  0.998651  0
H  H38  1  0.50379564  0.31407734  0.37491158  1  0.09269  0  0.105695  0.126446  0  1.017164  0
H  H39  1  0.49620376  0.68592296  0.62508793  1  0.092693  0  0.105694  0.126444  0  1.01717  0
H  H40  1  0.62625381  0.16445961  0.39024530  1  0.078482  0  0.100423  0.097201  0  1.054066  0
H  H41  1  0.37374776  0.83554070  0.60975315  1  0.07868  0  0.100432  0.097216  0  1.054044  0
H  H42  1  0.60508467  0.66293880  0.24676472  1  0.069837  0  0.100046  0.108847  0  1.021272  0
H  H43  1  0.39491815  0.33706225  0.75323314  1  0.06979  0  0.100057  0.108825  0  1.021291  0
H  H44  1  0.65532226  0.78552906  0.30339534  1  0.079267  0  0.10033  0.1024  0  1.028966  0
H  H45  1  0.34468133  0.21447047  0.69660505  1  0.079218  0  0.100335  0.102411  0  1.028958  0
H  H46  1  0.76595295  0.55120442  0.55973467  1  0.088651  0  0.104495  0.109543  0  0.994103  0
H  H47  1  0.23404831  0.44879438  0.44026519  1  0.088569  0  0.104477  0.109563  0  0.994106  0
H  H48  1  0.71793475  0.42957809  0.50322545  1  0.055116  0  0.103046  0.115273  0  1.017281  0
H  H49  1  0.28206433  0.57042071  0.49677549  1  0.055123  0  0.103045  0.115275  0  1.017271  0
C  C50  1  0.86887080  0.18438291  0.60899454  1  0.445546  0  0.040625  0.091291  0  3.972592  0
C  C51  1  0.13112828  0.81561591  0.39100508  1  0.445901  0  0.040616  0.091261  0  3.972672  0
C  C52  1  0.73700969  0.18907102  0.67505491  1  0.001546  0  -0.087976  -0.18382  0  3.936726  0
C  C53  1  0.26299048  0.81092778  0.32494648  1  0.001166  0  -0.087992  -0.183824  0  3.936729  0
C  C54  1  0.64715143  0.10091798  0.76000808  1  -0.008783  0  0.005301  0.150171  0  4.036339  0
C  C55  1  0.35284672  0.89908156  0.23999335  1  -0.008946  0  0.005328  0.150178  0  4.036388  0
C  C56  1  0.69850464  0.01073216  0.77234134  1  -0.014829  0  -0.083565  -0.171787  0  3.937256  0
C  C57  1  0.30149460  0.98926740  0.22765790  1  -0.014768  0  -0.083545  -0.171736  0  3.937123  0
C  C58  1  0.83087114  0.01207404  0.70243909  1  0.409829  0  0.042471  0.093554  0  3.948871  0
C  C59  1  0.16912452  0.98792403  0.29756285  1  0.410124  0  0.042494  0.093556  0  3.948659  0
C  C60  1  0.51046738  0.10824144  0.82835847  1  -0.019113  0  -0.093831  -0.145299  0  3.975095  0
C  C61  1  0.48953201  0.89175883  0.17164368  1  -0.019103  0  -0.09381  -0.145266  0  3.975103  0
C  C62  1  0.40967332  0.03145693  0.91097185  1  -0.04188  0  -0.077312  -0.10071  0  3.985861  0
C  C63  1  0.59032716  0.96854335  0.08902944  1  -0.041853  0  -0.077354  -0.100779  0  3.985877  0
C  C64  1  0.27128300  0.03909114  0.97746697  1  -0.046255  0  -0.012313  0.096938  0  4.039309  0
C  C65  1  0.72871717  0.96090766  0.02253376  1  -0.046134  0  -0.012325  0.096939  0  4.039237  0
C  C66  1  0.22470758  0.13102605  0.96441616  1  -0.049811  0  -0.088561  -0.122721  0  3.974437  0
C  C67  1  0.77529134  0.86897201  0.03558515  1  -0.049704  0  -0.088552  -0.12274  0  3.974351  0
C  C68  1  0.08959491  0.13486793  0.02734293  1  -0.051869  0  -0.085432  -0.122619  0  3.971317  0
C  C69  1  0.91040293  0.86513014  0.97265728  1  -0.052209  0  -0.085378  -0.122488  0  3.97119  0
C  C70  1  0.99382772  0.04675829  0.10730113  1  0.048739  0  -0.005844  0.108389  0  4.032321  0
C  C71  1  0.00617121  0.95323977  0.89270019  1  0.048751  0  -0.005826  0.108374  0  4.032264  0
C  C72  1  0.04179050  0.95488906  0.12265587  1  -0.036447  0  -0.080692  -0.114324  0  3.951985  0
C  C73  1  0.95820734  0.04510903  0.87734368  1  -0.036348  0  -0.080734  -0.114403  0  3.952081  0
C  C74  1  0.17660747  0.95131483  0.05863720  1  -0.01919  0  -0.083844  -0.119944  0  3.985407  0
C  C75  1  0.82339379  0.04868398  0.94136267  1  -0.019192  0  -0.083848  -0.119915  0  3.985436  0
C  C76  1  0.84977647  0.04565074  0.17451017  1  -0.096878  0  -0.073605  -0.094648  0  3.940893  0
C  C77  1  0.15022152  0.95434808  0.82548966  1  -0.096866  0  -0.073613  -0.09462  0  3.940891  0
C  C78  1  0.77032193  0.12255564  0.15768694  1  -0.04278  0  -0.09127  -0.141078  0  3.965851  0
C  C79  1  0.22967715  0.87744316  0.84231399  1  -0.042873  0  -0.091321  -0.141198  0  3.965794  0
C  C80  1  0.62737151  0.11578150  0.23053326  1  0.003383  0  0.00816  0.152046  0  4.02481  0
C  C81  1  0.37262866  0.88421730  0.76946747  1  0.003403  0  0.008143  0.152058  0  4.024781  0
C  C82  1  0.54909823  0.19817119  0.20815296  1  -0.08243  0  -0.088128  -0.197533  0  3.958931  0
C  C83  1  0.45090210  0.80182834  0.79184871  1  -0.082463  0  -0.088066  -0.19747  0  3.958959  0
C  C84  1  0.41716812  0.19240896  0.28196595  1  0.483433  0  0.045292  0.093586  0  3.97726  0
C  C85  1  0.58283174  0.80758835  0.71803621  1  0.483785  0  0.045261  0.09358  0  3.977232  0
C  C86  1  0.43048744  0.02942046  0.39666946  1  0.42372  0  0.036898  0.079267  0  3.968584  0
C  C87  1  0.56951289  0.97057909  0.60333089  1  0.423888  0  0.036893  0.079249  0  3.968603  0
C  C88  1  0.56176614  0.02879318  0.32773253  1  -0.0356  0  -0.079417  -0.159227  0  3.893914  0
C  C89  1  0.43823528  0.97120636  0.67226827  1  -0.035596  0  -0.079402  -0.159207  0  3.89386  0
C  C90  1  0.90839992  0.13798588  0.38196873  1  1.561045  0  0.204907  0.58436  0  4.216005  0
C  C91  1  0.09160197  0.86201590  0.61802962  1  1.561065  0  0.204913  0.584463  0  4.216081  0
C  C92  1  0.83834906  0.23011362  0.36566234  1  -0.039982  0  -0.033101  -0.069457  0  3.9956  0
C  C93  1  0.16165298  0.76988893  0.63433431  1  -0.039396  0  -0.033118  -0.069465  0  3.995588  0
C  C94  1  0.91981670  0.31587575  0.34493865  1  -0.027806  0  -0.085495  -0.074162  0  3.99567  0
C  C95  1  0.08018300  0.68412604  0.65506011  1  -0.028405  0  -0.085453  -0.074072  0  3.995584  0
C  C96  1  0.85304545  0.39970993  0.33554676  1  -0.071399  0  -0.10902  -0.219832  0  4.018884  0
C  C97  1  0.14695410  0.60029112  0.66445171  1  -0.071381  0  -0.109063  -0.219987  0  4.018924  0
C  C98  1  0.70277031  0.39745298  0.34769206  1  0.393803  0  0.084089  0.263579  0  4.045352  0
C  C99  1  0.29722909  0.60254733  0.65230680  1  0.39384  0  0.084098  0.263595  0  4.045408  0
C  C100  1  0.62020134  0.31343381  0.36677716  1  -0.023199  0  -0.103756  -0.200996  0  3.980251  0
C  C101  1  0.37979914  0.68656649  0.63322149  1  -0.023162  0  -0.103753  -0.200969  0  3.980303  0
C  C102  1  0.68882002  0.23055836  0.37538859  1  0.018979  0  -0.084957  -0.068089  0  3.987743  0
C  C103  1  0.31118171  0.76944269  0.62460948  1  0.018727  0  -0.084995  -0.068169  0  3.98779  0
C  C104  1  0.66261270  0.54113783  0.36991616  1  0.430411  0  0.086911  0.270661  0  4.050966  0
C  C105  1  0.33738794  0.45886322  0.63008277  1  0.430446  0  0.086931  0.270652  0  4.050979  0
C  C106  1  0.64173906  0.64049589  0.31457716  1  -0.05454  0  -0.109793  -0.218278  0  4.031041  0
C  C107  1  0.35826143  0.35950441  0.68542215  1  -0.05455  0  -0.109762  -0.218177  0  4.031086  0
C  C108  1  0.66890103  0.70742504  0.34633690  1  -0.010529  0  -0.089256  -0.080145  0  4.001269  0
C  C109  1  0.33110085  0.29257675  0.65366144  1  -0.010428  0  -0.089334  -0.080238  0  4.001395  0
C  C110  1  0.71617803  0.67593912  0.43389847  1  0.044351  0  -0.029475  -0.052314  0  3.988155  0
C  C111  1  0.28382401  0.32406341  0.56609950  1  0.04431  0  -0.029432  -0.052259  0  3.988125  0
C  C112  1  0.73236700  0.57535860  0.49041016  1  -0.106747  0  -0.082644  -0.064347  0  3.985755  0
C  C113  1  0.26763613  0.42464393  0.50958759  1  -0.106639  0  -0.082662  -0.064445  0  3.985797  0
C  C114  1  0.70588596  0.50773096  0.45920082  1  0.004367  0  -0.105727  -0.213985  0  4.017151  0
C  C115  1  0.29411561  0.49226932  0.54079960  1  0.004308  0  -0.105765  -0.213999  0  4.017239  0
C  C116  1  0.75252955  0.74934627  0.46441717  1  1.54166  0  0.184082  0.54528  0  4.265279  0
C  C117  1  0.24747187  0.25065328  0.53558297  1  1.541655  0  0.184094  0.545317  0  4.265267  0
N  N118  1  0.91565711  0.09727651  0.62162818  1  -1.21728  0  -0.329206  -0.24609  0  3.485129  0
N  N119  1  0.08434072  0.90272157  0.37837203  1  -1.217237  0  -0.32925  -0.246119  0  3.485168  0
N  N120  1  0.35903227  0.10987280  0.37603038  1  -1.248197  0  -0.331963  -0.242822  0  3.494528  0
N  N121  1  0.64096681  0.89012599  0.62397188  1  -1.2485  0  -0.331943  -0.242811  0  3.494524  0
O  O122  1  0.04270609  0.13895567  0.37742258  1  -1.196912  0  -0.345577  -0.598251  0  2.333105  0
O  O123  1  0.95729595  0.86104685  0.62257605  1  -1.196903  0  -0.34556  -0.598287  0  2.33317  0
O  O124  1  0.82768333  0.06307120  0.39984569  1  -1.166296  0  -0.326908  -0.551529  0  2.307279  0
O  O125  1  0.17231917  0.93692833  0.60015491  1  -1.166346  0  -0.326904  -0.551563  0  2.307322  0
O  O126  1  0.63004159  0.47926237  0.33476566  1  -1.099934  0  -0.153418  -0.214925  0  2.564816  0
O  O127  1  0.36995687  0.52073868  0.66523369  1  -1.099959  0  -0.153389  -0.214875  0  2.564796  0
O  O128  1  0.74264204  0.84119236  0.40652113  1  -1.17869  0  -0.335578  -0.569329  0  2.238854  0
O  O129  1  0.25736155  0.15880717  0.59347926  1  -1.178701  0  -0.335542  -0.569333  0  2.238876  0
O  O130  1  0.79532404  0.71943959  0.54423480  1  -1.183106  0  -0.343246  -0.581762  0  2.149601  0
O  O131  1  0.20467706  0.28055845  0.45576743  1  -1.183037  0  -0.343253  -0.581766  0  2.149612  0
