# generated using pymatgen
data_AgH6C4N3
_symmetry_space_group_name_H-M   'P 1'
_cell_length_a   4.78178434
_cell_length_b   11.02201901
_cell_length_c   11.02197911
_cell_angle_alpha   87.27809667
_cell_angle_beta   77.44117904
_cell_angle_gamma   77.44093646
_symmetry_Int_Tables_number   1
_chemical_formula_structural   AgH6C4N3
_chemical_formula_sum   'Ag4 H24 C16 N12'
_cell_volume   553.44588551
_cell_formula_units_Z   4
loop_
 _symmetry_equiv_pos_site_id
 _symmetry_equiv_pos_as_xyz
  1  'x, y, z'
loop_
 _atom_site_type_symbol
 _atom_site_label
 _atom_site_symmetry_multiplicity
 _atom_site_fract_x
 _atom_site_fract_y
 _atom_site_fract_z
 _atom_site_occupancy
 _atom_site_pbe_bader_spin_density
 _atom_site_pbe_cm5_charge
 _atom_site_pbe_ddec_charge
 _atom_site_pbe_ddec_spin_density
 _atom_site_pbe_ddec_sum_bond_order
 _atom_site_pbe_magmom
Ag  Ag0  1  0.87500052  0.91986812  0.58012913  1  0  0.449703  0.269068  0  2.039874  0
Ag  Ag1  1  0.37499873  0.08018272  0.41981496  1  0  0.449165  0.269474  0  2.039436  0
Ag  Ag2  1  0.20483780  0.41974692  0.91983697  1  0  0.449434  0.269465  0  2.038751  0
Ag  Ag3  1  0.54516228  0.58016272  0.08025160  1  0  0.449441  0.269491  0  2.038771  0
H  H4  1  0.69667865  0.19103924  0.92845986  1  0  0.094056  0.137395  0  1.03715  0
H  H5  1  0.81492265  0.80983199  0.07081094  1  0  0.094404  0.138528  0  1.036552  0
H  H6  1  0.11363952  0.07120839  0.19099432  1  0  0.094534  0.137878  0  1.036658  0
H  H7  1  0.37503739  0.92908122  0.80955537  1  0  0.094418  0.137544  0  1.037781  0
H  H8  1  0.05332242  0.57153983  0.30895861  1  0  0.094047  0.13739  0  1.037145  0
H  H9  1  0.93507795  0.42918675  0.69016579  1  0  0.094397  0.138473  0  1.036595  0
H  H10  1  0.63636369  0.30901208  0.42879739  1  0  0.094549  0.137912  0  1.036595  0
H  H11  1  0.37495768  0.69044269  0.57091836  1  0  0.094423  0.13753  0  1.037842  0
H  H12  1  0.98824953  0.11220867  0.81135066  1  0  0.097629  0.147191  0  1.023073  0
H  H13  1  0.91223424  0.88774151  0.18791204  1  0  0.097561  0.147333  0  1.023407  0
H  H14  1  0.89974088  0.18808119  0.11250207  1  0  0.097504  0.147362  0  1.022556  0
H  H15  1  0.20019827  0.81192680  0.88783205  1  0  0.096322  0.145205  0  1.023177  0
H  H16  1  0.76174973  0.68864918  0.38778996  1  0  0.097631  0.147185  0  1.023088  0
H  H17  1  0.83776565  0.31208617  0.61225557  1  0  0.097551  0.147288  0  1.023414  0
H  H18  1  0.85026348  0.38750387  0.31192475  1  0  0.097523  0.147375  0  1.022653  0
H  H19  1  0.54979726  0.61216625  0.68807272  1  0  0.096336  0.145206  0  1.023193  0
H  H20  1  0.72817732  0.03069487  0.89554026  1  0  0.09454  0.137004  0  1.020337  0
H  H21  1  0.65314647  0.97000281  0.10488965  1  0  0.094486  0.137983  0  1.019184  0
H  H22  1  0.24189932  0.10454753  0.03067438  1  0  0.095134  0.138408  0  1.018845  0
H  H23  1  0.37654290  0.89535983  0.96977408  1  0  0.095055  0.138272  0  1.019145  0
H  H24  1  0.02182321  0.60445933  0.46930389  1  0  0.094529  0.136973  0  1.020393  0
H  H25  1  0.09685255  0.39510875  0.52999432  1  0  0.094506  0.137985  0  1.019198  0
H  H26  1  0.50810303  0.46933118  0.39545628  1  0  0.095147  0.138439  0  1.018857  0
H  H27  1  0.37344985  0.53022377  0.60463958  1  0  0.095027  0.138231  0  1.019133  0
C  C28  1  0.75525139  0.12132844  0.85452679  1  0  -0.236538  -0.452108  0  3.913267  0
C  C29  1  0.73062265  0.87907638  0.14519987  1  0  -0.237014  -0.45571  0  3.913259  0
C  C30  1  0.12394986  0.14528043  0.12138429  1  0  -0.236954  -0.453386  0  3.910391  0
C  C31  1  0.39028575  0.85482799  0.87896435  1  0  -0.236602  -0.451946  0  3.912146  0
C  C32  1  0.99475157  0.64547283  0.37867043  1  0  -0.236523  -0.452078  0  3.913338  0
C  C33  1  0.01937707  0.35479832  0.62092122  1  0  -0.237034  -0.45562  0  3.913299  0
C  C34  1  0.62605588  0.37861928  0.35472270  1  0  -0.236999  -0.453481  0  3.91058  0
C  C35  1  0.35970900  0.62103382  0.64517179  1  0  -0.236575  -0.451851  0  3.912204  0
C  C36  1  0.57067726  0.15931366  0.76098504  1  0  0.199983  0.359517  0  4.02999  0
C  C37  1  0.49165692  0.84062536  0.23907855  1  0  0.200127  0.361928  0  4.029056  0
C  C38  1  0.26952935  0.23906396  0.15944656  1  0  0.199913  0.359112  0  4.028621  0
C  C39  1  0.66806630  0.76107471  0.84067027  1  0  0.199131  0.357708  0  4.031141  0
C  C40  1  0.17932242  0.73901490  0.34068394  1  0  0.199996  0.359521  0  4.02998  0
C  C41  1  0.25834187  0.26092152  0.65937383  1  0  0.200109  0.361888  0  4.029037  0
C  C42  1  0.48047554  0.34055900  0.26094092  1  0  0.19997  0.359101  0  4.02864  0
C  C43  1  0.08192876  0.65932834  0.73892416  1  0  0.199121  0.357673  0  4.031216  0
N  N44  1  0.36063007  0.26540323  0.76474300  1  0  -0.367273  -0.427816  0  3.384616  0
N  N45  1  0.38936916  0.73525551  0.23459536  1  0  -0.367297  -0.427856  0  3.384625  0
N  N46  1  0.37500209  0.23487329  0.26513098  1  0  -0.368149  -0.428923  0  3.385811  0
N  N47  1  0.87499831  0.76513512  0.73486330  1  0  -0.36643  -0.425045  0  3.38498  0
N  N48  1  0.59701594  0.09265251  0.65906834  1  0  -0.290581  -0.249146  0  3.568654  0
N  N49  1  0.35272426  0.90612213  0.34213843  1  0  -0.290588  -0.251445  0  3.568724  0
N  N50  1  0.30765871  0.34155376  0.09332125  1  0  -0.290506  -0.249475  0  3.569905  0
N  N51  1  0.74258755  0.65854695  0.90674657  1  0  -0.290308  -0.249075  0  3.569223  0
N  N52  1  0.15298307  0.84093177  0.40734576  1  0  -0.290588  -0.249108  0  3.568611  0
N  N53  1  0.39727344  0.15785997  0.59387706  1  0  -0.290562  -0.251394  0  3.568614  0
N  N54  1  0.44234772  0.40668168  0.15844912  1  0  -0.290573  -0.249525  0  3.569989  0
N  N55  1  0.00740753  0.59325220  0.84145288  1  0  -0.290309  -0.249051  0  3.569217  0
