# generated using pymatgen
data_SmH9C14NO8
_symmetry_space_group_name_H-M   'P 1'
_cell_length_a   7.28968105
_cell_length_b   8.58856475
_cell_length_c   11.78566099
_cell_angle_alpha   75.46575308
_cell_angle_beta   87.05821887
_cell_angle_gamma   85.41533807
_symmetry_Int_Tables_number   1
_chemical_formula_structural   SmH9C14NO8
_chemical_formula_sum   'Sm2 H18 C28 N2 O16'
_cell_volume   711.60264085
_cell_formula_units_Z   2
loop_
 _symmetry_equiv_pos_site_id
 _symmetry_equiv_pos_as_xyz
  1  'x, y, z'
loop_
 _atom_site_type_symbol
 _atom_site_label
 _atom_site_symmetry_multiplicity
 _atom_site_fract_x
 _atom_site_fract_y
 _atom_site_fract_z
 _atom_site_occupancy
 _atom_site_hle17_bader_spin_density
 _atom_site_hle17_ddec_charge
 _atom_site_hle17_ddec_spin_density
 _atom_site_hle17_ddec_sum_bond_order
 _atom_site_hle17_magmom
 _atom_site_hse06_10hf_bader_spin_density
 _atom_site_hse06_10hf_ddec_charge
 _atom_site_hse06_10hf_ddec_spin_density
 _atom_site_hse06_10hf_ddec_sum_bond_order
 _atom_site_hse06_10hf_magmom
 _atom_site_hse06_bader_spin_density
 _atom_site_hse06_ddec_charge
 _atom_site_hse06_ddec_spin_density
 _atom_site_hse06_ddec_sum_bond_order
 _atom_site_hse06_magmom
 _atom_site_pbe_bader_spin_density
 _atom_site_pbe_cm5_charge
 _atom_site_pbe_ddec_charge
 _atom_site_pbe_ddec_spin_density
 _atom_site_pbe_ddec_sum_bond_order
 _atom_site_pbe_magmom
Sm  Sm0  1  0.29989051  0.19267466  0.49341320  1  0  2.292207  0  1.581256  0  0  2.20235  0  1.914567  0  0  2.245516  0  1.875548  0  0  1.483926  2.0973  0  2.07852  0
Sm  Sm1  1  0.70011338  0.80732081  0.50658636  1  0  2.292223  0  1.58115  0  0  2.202348  0  1.914452  0  0  2.245515  0  1.875436  0  0  1.484001  2.097319  0  2.078365  0
H  H2  1  0.90491912  0.19903525  0.46545049  1  0  0.44115  0  0.858169  0  0  0.410776  0  0.921286  0  0  0.422138  0  0.904507  0  0  0.30446  0.402633  0  0.933057  0
H  H3  1  0.09508193  0.80096143  0.53454891  1  0  0.44109  0  0.858274  0  0  0.410744  0  0.921345  0  0  0.422105  0  0.904566  0  0  0.304459  0.402601  0  0.933116  0
H  H4  1  0.90931182  0.38720098  0.43390010  1  0  0.438244  0  0.856679  0  0  0.409704  0  0.917336  0  0  0.420599  0  0.901217  0  0  0.299779  0.40132  0  0.929656  0
H  H5  1  0.09068749  0.61280053  0.56609843  1  0  0.438174  0  0.856756  0  0  0.409649  0  0.917416  0  0  0.420545  0  0.901297  0  0  0.299742  0.401264  0  0.929737  0
H  H6  1  0.89243417  0.11998132  0.15452372  1  0  0.119974  0  0.939573  0  0  0.130735  0  0.999027  0  0  0.134616  0  0.996084  0  0  0.115871  0.127746  0  1.0017  0
H  H7  1  0.10755950  0.88002146  0.84547812  1  0  0.119969  0  0.939571  0  0  0.130766  0  0.998986  0  0  0.134647  0  0.996042  0  0  0.115864  0.127775  0  1.001663  0
H  H8  1  0.35647257  0.23960152  0.91213235  1  0  0.122521  0  0.939419  0  0  0.132522  0  0.998937  0  0  0.136441  0  0.996274  0  0  0.113489  0.129591  0  1.001102  0
H  H9  1  0.64352410  0.76039766  0.08787179  1  0  0.122508  0  0.93946  0  0  0.132544  0  0.998934  0  0  0.136471  0  0.996265  0  0  0.113517  0.129611  0  1.001095  0
H  H10  1  0.56505174  0.10530412  0.07123355  1  0  0.09261  0  0.951117  0  0  0.103514  0  1.011255  0  0  0.10589  0  1.011123  0  0  0.103075  0.101739  0  1.011641  0
H  H11  1  0.43494617  0.89469742  0.92876671  1  0  0.092574  0  0.951129  0  0  0.10348  0  1.011276  0  0  0.105854  0  1.011144  0  0  0.103058  0.101704  0  1.011661  0
H  H12  1  0.82359511  0.36922885  0.06695767  1  0  0.099907  0  0.928096  0  0  0.114646  0  0.980815  0  0  0.117402  0  0.978215  0  0  0.130306  0.112575  0  0.982759  0
H  H13  1  0.17640540  0.63077507  0.93304038  1  0  0.09994  0  0.928121  0  0  0.114682  0  0.980831  0  0  0.117433  0  0.978242  0  0  0.13033  0.112612  0  0.982775  0
H  H14  1  0.61661099  0.55589642  0.92413250  1  0  0.120494  0  0.96319  0  0  0.132456  0  1.019802  0  0  0.135576  0  1.019921  0  0  0.107817  0.130216  0  1.020105  0
H  H15  1  0.38338955  0.44410747  0.07586300  1  0  0.120508  0  0.963159  0  0  0.132461  0  1.019779  0  0  0.135588  0  1.019891  0  0  0.107822  0.130223  0  1.02008  0
H  H16  1  0.93371474  0.39965408  0.64635640  1  0  0.140838  0  0.945347  0  0  0.149011  0  1.004602  0  0  0.153475  0  1.002794  0  0  0.125278  0.14608  0  1.005584  0
H  H17  1  0.06628117  0.60033780  0.35364404  1  0  0.140806  0  0.945405  0  0  0.148973  0  1.004677  0  0  0.15344  0  1.002865  0  0  0.125273  0.146044  0  1.005658  0
H  H18  1  0.12572047  0.21873276  0.79710019  1  0  0.116364  0  0.955267  0  0  0.123105  0  1.021476  0  0  0.126841  0  1.01741  0  0  0.131536  0.120356  0  1.02433  0
H  H19  1  0.87427943  0.78126036  0.20290331  1  0  0.116294  0  0.955384  0  0  0.123032  0  1.021593  0  0  0.126767  0  1.017527  0  0  0.131511  0.120282  0  1.024445  0
C  C20  1  0.48584342  0.97359594  0.29899744  1  0  0.685322  0  3.889478  0  0  0.635924  0  4.197969  0  0  0.670384  0  4.186293  0  0  0.213741  0.613082  0  4.196384  0
C  C21  1  0.51416220  0.02639583  0.70099683  1  0  0.685334  0  3.889433  0  0  0.635963  0  4.197906  0  0  0.670424  0  4.186232  0  0  0.21373  0.613123  0  4.196322  0
C  C22  1  0.35015563  0.04934966  0.20471321  1  0  -0.031745  0  3.660374  0  0  -0.020669  0  3.894205  0  0  -0.022793  0  3.911869  0  0  0.008544  -0.019728  0  3.88275  0
C  C23  1  0.64984100  0.95065068  0.79528731  1  0  -0.031781  0  3.660426  0  0  -0.020761  0  3.894304  0  0  -0.022887  0  3.911969  0  0  0.00856  -0.019822  0  3.882855  0
C  C24  1  0.15817682  0.05222123  0.22563488  1  0  -0.05729  0  3.721665  0  0  -0.045254  0  3.959109  0  0  -0.050254  0  3.979354  0  0  -0.000707  -0.041941  0  3.945416  0
C  C25  1  0.84181977  0.94777914  0.77436818  1  0  -0.057352  0  3.721623  0  0  -0.045235  0  3.959012  0  0  -0.050237  0  3.979261  0  0  -0.000681  -0.041924  0  3.945327  0
C  C26  1  0.03987225  0.12324170  0.13480413  1  0  -0.147272  0  3.721477  0  0  -0.182535  0  3.982295  0  0  -0.184269  0  4.000453  0  0  -0.082108  -0.181557  0  3.970933  0
C  C27  1  0.96012813  0.87676346  0.86519623  1  0  -0.147207  0  3.721367  0  0  -0.182501  0  3.982191  0  0  -0.18423  0  4.000339  0  0  -0.082079  -0.181522  0  3.970833  0
C  C28  1  0.10944545  0.19662344  0.02370385  1  0  0.16028  0  3.794567  0  0  0.149494  0  4.055454  0  0  0.154026  0  4.07959  0  0  0.087916  0.146326  0  4.039201  0
C  C29  1  0.89055915  0.80338049  0.97629578  1  0  0.160208  0  3.794333  0  0  0.149349  0  4.055365  0  0  0.153881  0  4.079502  0  0  0.087892  0.146184  0  4.039111  0
C  C30  1  0.29954989  0.18682715  0.99959087  1  0  -0.143526  0  3.727667  0  0  -0.169057  0  3.990393  0  0  -0.171233  0  4.008532  0  0  -0.085079  -0.167509  0  3.978315  0
C  C31  1  0.70045340  0.81317560  0.00041072  1  0  -0.143486  0  3.727524  0  0  -0.169017  0  3.990271  0  0  -0.171202  0  4.008406  0  0  -0.085096  -0.167466  0  3.978186  0
C  C32  1  0.41709007  0.11188837  0.09006514  1  0  -0.067318  0  3.73521  0  0  -0.087717  0  3.986887  0  0  -0.089259  0  4.006775  0  0  -0.080461  -0.086887  0  3.974221  0
C  C33  1  0.58290783  0.88811318  0.90993597  1  0  -0.067283  0  3.735207  0  0  -0.087685  0  3.986911  0  0  -0.089221  0  4.006798  0  0  -0.080484  -0.086855  0  3.974246  0
C  C34  1  0.07216647  0.97894742  0.34349388  1  0  0.700499  0  3.868106  0  0  0.652419  0  4.161558  0  0  0.6868  0  4.151126  0  0  0.235319  0.629037  0  4.162909  0
C  C35  1  0.92782901  0.02105048  0.65650459  1  0  0.700599  0  3.867972  0  0  0.652467  0  4.161474  0  0  0.686848  0  4.151044  0  0  0.235305  0.629086  0  4.16283  0
C  C36  1  0.83951108  0.38046239  0.97299633  1  0  0.070154  0  3.707636  0  0  0.02356  0  3.971936  0  0  0.034562  0  3.986794  0  0  0.034441  0.016638  0  3.961644  0
C  C37  1  0.16048657  0.61954275  0.02700241  1  0  0.070167  0  3.707645  0  0  0.023583  0  3.971933  0  0  0.034584  0  3.986788  0  0  0.034451  0.016657  0  3.961644  0
C  C38  1  0.72796719  0.48284852  0.89383700  1  0  -0.244178  0  3.707696  0  0  -0.261323  0  3.96081  0  0  -0.274165  0  3.979785  0  0  -0.101139  -0.253396  0  3.948881  0
C  C39  1  0.27203494  0.51715178  0.10616254  1  0  -0.244228  0  3.707707  0  0  -0.261383  0  3.960793  0  0  -0.27423  0  3.979759  0  0  -0.101159  -0.25346  0  3.948864  0
C  C40  1  0.76390260  0.50791368  0.76954615  1  0  0.474809  0  3.849027  0  0  0.463511  0  4.106561  0  0  0.488734  0  4.110623  0  0  0.128462  0.446406  0  4.10132  0
C  C41  1  0.23609256  0.49208899  0.23044803  1  0  0.474685  0  3.849213  0  0  0.46345  0  4.106664  0  0  0.488673  0  4.11073  0  0  0.128382  0.446352  0  4.101408  0
C  C42  1  0.90725295  0.39994562  0.73786435  1  0  -0.224094  0  3.643347  0  0  -0.242172  0  3.897846  0  0  -0.255296  0  3.915483  0  0  -0.087402  -0.233963  0  3.8865  0
C  C43  1  0.09274963  0.60004866  0.26213631  1  0  -0.224037  0  3.643356  0  0  -0.242152  0  3.897841  0  0  -0.255275  0  3.915477  0  0  -0.087408  -0.233948  0  3.886493  0
C  C44  1  0.01453927  0.29842007  0.82057688  1  0  0.09409  0  3.640793  0  0  0.049401  0  3.897896  0  0  0.061167  0  3.911564  0  0  0.047123  0.041841  0  3.888937  0
C  C45  1  0.98545731  0.70158144  0.17942088  1  0  0.094168  0  3.64072  0  0  0.049521  0  3.897778  0  0  0.061286  0  3.911445  0  0  0.047204  0.041962  0  3.888816  0
C  C46  1  0.59179362  0.45732313  0.48367646  1  0  0.572246  0  3.897092  0  0  0.529428  0  4.193673  0  0  0.559874  0  4.183477  0  0  0.225565  0.509297  0  4.192578  0
C  C47  1  0.40821685  0.54271103  0.51632579  1  0  0.572586  0  3.897336  0  0  0.529741  0  4.193933  0  0  0.560207  0  4.183699  0  0  0.225658  0.509609  0  4.192843  0
N  N48  1  0.98562770  0.29006338  0.93791467  1  0  -0.088001  0  3.59166  0  0  0.002825  0  3.801893  0  0  -0.015183  0  3.829154  0  0  -0.222952  0.014675  0  3.783265  0
N  N49  1  0.01437424  0.70993936  0.06208610  1  0  -0.087967  0  3.591773  0  0  0.002853  0  3.802038  0  0  -0.015152  0  3.829296  0  0  -0.222967  0.014699  0  3.783411  0
O  O50  1  0.51659656  0.04716253  0.37807297  1  0  -0.777932  0  2.071113  0  0  -0.741171  0  2.32906  0  0  -0.7649  0  2.315917  0  0  -0.414158  -0.70809  0  2.337463  0
O  O51  1  0.48340555  0.95283780  0.62192826  1  0  -0.777817  0  2.071447  0  0  -0.741065  0  2.32939  0  0  -0.764792  0  2.316242  0  0  -0.414083  -0.707988  0  2.337793  0
O  O52  1  0.56912470  0.84034510  0.29600726  1  0  -0.641413  0  1.922105  0  0  -0.606822  0  2.153542  0  0  -0.631152  0  2.145866  0  0  -0.33417  -0.5837  0  2.158612  0
O  O53  1  0.43087004  0.15966245  0.70399025  1  0  -0.641527  0  1.921692  0  0  -0.60694  0  2.153116  0  0  -0.631278  0  2.14544  0  0  -0.334239  -0.583812  0  2.158187  0
O  O54  1  0.16278689  0.97579985  0.43378571  1  0  -0.716968  0  2.126454  0  0  -0.663598  0  2.367128  0  0  -0.687696  0  2.35565  0  0  -0.363385  -0.637647  0  2.373905  0
O  O55  1  0.83721262  0.02419924  0.56621243  1  0  -0.717033  0  2.126501  0  0  -0.663621  0  2.367179  0  0  -0.687718  0  2.355698  0  0  -0.363393  -0.637672  0  2.373961  0
O  O56  1  0.91569726  0.92402022  0.34553111  1  0  -0.699484  0  2.036838  0  0  -0.658041  0  2.285742  0  0  -0.682111  0  2.275911  0  0  -0.368354  -0.632319  0  2.294014  0
O  O57  1  0.08430344  0.07598127  0.65446654  1  0  -0.6995  0  2.036709  0  0  -0.658042  0  2.285637  0  0  -0.682101  0  2.275782  0  0  -0.368355  -0.632315  0  2.293911  0
O  O58  1  0.67491457  0.61910588  0.69688451  1  0  -0.661131  0  2.032283  0  0  -0.623614  0  2.269424  0  0  -0.64681  0  2.263274  0  0  -0.383444  -0.59792  0  2.276518  0
O  O59  1  0.32508834  0.38088474  0.30311344  1  0  -0.661103  0  2.032086  0  0  -0.623612  0  2.2692  0  0  -0.646813  0  2.263055  0  0  -0.38343  -0.597914  0  2.276288  0
O  O60  1  0.58971741  0.31309064  0.47877226  1  0  -0.625229  0  2.094179  0  0  -0.582743  0  2.332173  0  0  -0.605482  0  2.324298  0  0  -0.360258  -0.559289  0  2.339106  0
O  O61  1  0.41028347  0.68688921  0.52123372  1  0  -0.625169  0  2.09575  0  0  -0.582654  0  2.333733  0  0  -0.605389  0  2.325851  0  0  -0.360173  -0.559215  0  2.340667  0
O  O62  1  0.73390638  0.53934402  0.46448402  1  0  -0.68795  0  2.052026  0  0  -0.640712  0  2.286505  0  0  -0.665289  0  2.276366  0  0  -0.364258  -0.614887  0  2.294839  0
O  O63  1  0.26608369  0.46065269  0.53551482  1  0  -0.688203  0  2.050799  0  0  -0.640982  0  2.285294  0  0  -0.665574  0  2.275141  0  0  -0.364404  -0.615147  0  2.293634  0
O  O64  1  0.98589046  0.28794620  0.43014275  1  0  -0.928217  0  1.888399  0  0  -0.889992  0  2.078144  0  0  -0.908195  0  2.04565  0  0  -0.648802  -0.868068  0  2.106401  0
O  O65  1  0.01411492  0.71204690  0.56986061  1  0  -0.928104  0  1.888511  0  0  -0.88992  0  2.078165  0  0  -0.908123  0  2.045676  0  0  -0.648776  -0.868  0  2.106421  0
