# generated using pymatgen
data_CdH98C86N10(ClO4)2
_symmetry_space_group_name_H-M   'P 1'
_cell_length_a   9.36035893
_cell_length_b   13.43314018
_cell_length_c   19.13090563
_cell_angle_alpha   97.77129551
_cell_angle_beta   92.53521442
_cell_angle_gamma   100.06782172
_symmetry_Int_Tables_number   1
_chemical_formula_structural   CdH98C86N10(ClO4)2
_chemical_formula_sum   'Cd1 H98 C86 N10 Cl2 O8'
_cell_volume   2341.02126428
_cell_formula_units_Z   1
loop_
 _symmetry_equiv_pos_site_id
 _symmetry_equiv_pos_as_xyz
  1  'x, y, z'
loop_
 _atom_site_type_symbol
 _atom_site_label
 _atom_site_symmetry_multiplicity
 _atom_site_fract_x
 _atom_site_fract_y
 _atom_site_fract_z
 _atom_site_occupancy
 _atom_site_pbe_bader_charge
 _atom_site_pbe_bader_spin_density
 _atom_site_pbe_cm5_charge
 _atom_site_pbe_ddec_charge
 _atom_site_pbe_ddec_spin_density
 _atom_site_pbe_ddec_sum_bond_order
 _atom_site_pbe_magmom
Cd  Cd0  1  0.50000074  0.49999759  0.49999848  1  1.252334  0  0.810137  0.813563  0  2.290454  0
H  H1  1  0.35112099  0.45146663  0.34963586  1  0.150781  0  0.110137  0.090121  0  1.057106  0
H  H2  1  0.64887357  0.54853084  0.65035857  1  0.150938  0  0.110156  0.09016  0  1.057015  0
H  H3  1  0.93788311  0.54887662  0.33645800  1  0.142018  0  0.105597  0.112675  0  1.035181  0
H  H4  1  0.06209555  0.45110837  0.66355000  1  0.142074  0  0.105615  0.112672  0  1.03529  0
H  H5  1  0.97697473  0.61370764  0.46693704  1  0.081588  0  0.104784  0.104388  0  1.01307  0
H  H6  1  0.02301088  0.38626666  0.53307368  1  0.081998  0  0.104819  0.104485  0  1.012776  0
H  H7  1  0.20530863  0.59359278  0.53243228  1  0.100323  0  0.110291  0.084094  0  1.037761  0
H  H8  1  0.79468601  0.40638776  0.46757247  1  0.100256  0  0.110223  0.08395  0  1.03789  0
H  H9  1  0.92136311  0.37248049  0.25014732  1  0.092798  0  0.098326  0.107101  0  1.050658  0
H  H10  1  0.07863218  0.62752840  0.74985142  1  0.092872  0  0.098292  0.107031  0  1.0507  0
H  H11  1  0.34868910  0.54879276  0.24363920  1  0.069159  0  0.101058  0.107643  0  1.023905  0
H  H12  1  0.65130592  0.45121069  0.75636630  1  0.069158  0  0.101059  0.107638  0  1.023971  0
H  H13  1  0.89122013  0.28124635  0.05366356  1  0.022549  0  0.092938  0.058137  0  0.979494  0
H  H14  1  0.10877662  0.71876406  0.94633589  1  0.022546  0  0.093004  0.058257  0  0.979489  0
H  H15  1  0.75851967  0.14059992  0.11008504  1  -0.010359  0  0.082838  0.11065  0  1.011756  0
H  H16  1  0.24147275  0.85939754  0.88990987  1  -0.010554  0  0.082819  0.110627  0  1.011745  0
H  H17  1  0.82709523  0.20484601  0.19538242  1  0.031847  0  0.086867  0.121469  0  1.010809  0
H  H18  1  0.17290274  0.79515227  0.80461060  1  0.031837  0  0.086853  0.121505  0  1.01073  0
H  H19  1  0.94831099  0.15952285  0.13494555  1  0.015736  0  0.082482  0.10848  0  1.013346  0
H  H20  1  0.05169134  0.84048003  0.86504802  1  0.015515  0  0.0825  0.108506  0  1.013289  0
H  H21  1  0.74893838  0.41625190  0.09300978  1  0.004231  0  0.084981  0.117227  0  1.026265  0
H  H22  1  0.25104877  0.58375006  0.90698966  1  0.00431  0  0.08501  0.117286  0  1.0261  0
H  H23  1  0.70963887  0.36182629  0.17087394  1  0.049301  0  0.081936  0.11575  0  1.045126  0
H  H24  1  0.29035314  0.63817803  0.82912217  1  0.049245  0  0.081937  0.115721  0  1.04509  0
H  H25  1  0.64027881  0.29234111  0.08696431  1  -0.000387  0  0.081466  0.108073  0  1.011209  0
H  H26  1  0.35971427  0.70766319  0.91303392  1  -0.000342  0  0.081496  0.108091  0  1.011185  0
H  H27  1  0.37808917  0.46190125  0.05497737  1  0.008827  0  0.092999  0.059358  0  0.973147  0
H  H28  1  0.62190811  0.53809837  0.94502989  1  0.008723  0  0.092964  0.059368  0  0.973121  0
H  H29  1  0.60227590  0.57003100  0.10585414  1  0.006894  0  0.080521  0.111951  0  1.031829  0
H  H30  1  0.39771844  0.42997397  0.89415202  1  0.006765  0  0.080519  0.111979  0  1.031929  0
H  H31  1  0.54406119  0.48533903  0.16684073  1  0.061239  0  0.086139  0.126436  0  1.031886  0
H  H32  1  0.45593686  0.51466366  0.83316580  1  0.061379  0  0.086142  0.126448  0  1.031794  0
H  H33  1  0.52209624  0.61457322  0.18307587  1  0.013586  0  0.080065  0.108763  0  1.020078  0
H  H34  1  0.47789469  0.38543099  0.81692858  1  0.013675  0  0.080091  0.108797  0  1.020128  0
H  H35  1  0.41335383  0.64311569  0.03577454  1  0.01723  0  0.082298  0.110846  0  1.021339  0
H  H36  1  0.58665006  0.35688479  0.96422771  1  0.016312  0  0.082275  0.110817  0  1.021394  0
H  H37  1  0.31980851  0.67404653  0.11251934  1  0.027273  0  0.081084  0.110935  0  1.02332  0
H  H38  1  0.68018885  0.32595774  0.88748264  1  0.027384  0  0.081115  0.110965  0  1.023357  0
H  H39  1  0.22481324  0.59269038  0.03743872  1  0.015623  0  0.085753  0.118384  0  1.033609  0
H  H40  1  0.77518443  0.40731086  0.96256086  1  0.015622  0  0.085737  0.118344  0  1.033595  0
H  H41  1  0.24629949  0.25804375  0.09000635  1  0.021533  0  0.099286  0.145475  0  0.999925  0
H  H42  1  0.75371072  0.74196059  0.90999485  1  0.021543  0  0.099336  0.145514  0  0.999927  0
H  H43  1  0.35668866  0.25394449  0.01593309  1  0.035642  0  0.100532  0.142927  0  1.002341  0
H  H44  1  0.64332312  0.74605758  0.98406740  1  0.035728  0  0.10049  0.14285  0  1.002423  0
H  H45  1  0.19523372  0.16414102  0.01248459  1  0.079461  0  0.100819  0.147486  0  0.986947  0
H  H46  1  0.80477534  0.83585875  0.98751561  1  0.079545  0  0.100836  0.147522  0  0.986965  0
H  H47  1  0.02691923  0.42608591  0.91706524  1  0.140823  0  0.110337  0.114157  0  1.038037  0
H  H48  1  0.97307709  0.57390992  0.08293848  1  0.140807  0  0.110308  0.114149  0  1.03804  0
H  H49  1  0.00775405  0.40234277  0.78430168  1  0.101664  0  0.103996  0.100177  0  1.034856  0
H  H50  1  0.99223233  0.59765607  0.21570213  1  0.101424  0  0.104032  0.100187  0  1.034839  0
H  H51  1  0.12198328  0.26312596  0.71838171  1  0.090668  0  0.107229  0.110939  0  1.009  0
H  H52  1  0.87800494  0.73687597  0.28162036  1  0.090641  0  0.107234  0.110966  0  1.008889  0
H  H53  1  0.37772513  0.00885010  0.79428075  1  0.052099  0  0.098772  0.142626  0  1.005431  0
H  H54  1  0.62228167  0.99115350  0.20571770  1  0.052083  0  0.09879  0.142659  0  1.005392  0
H  H55  1  0.24958499  0.03338349  0.85864821  1  0.058611  0  0.100876  0.146145  0  1.003017  0
H  H56  1  0.75042239  0.96662243  0.14134839  1  0.058445  0  0.100849  0.146087  0  1.003092  0
H  H57  1  0.41714151  0.11699545  0.86296346  1  0.058793  0  0.103636  0.151661  0  0.985056  0
H  H58  1  0.58286052  0.88301046  0.13703146  1  0.05881  0  0.103576  0.151603  0  0.985152  0
H  H59  1  0.67074513  0.03628149  0.60941056  1  0.017762  0  0.098172  0.095423  0  1.037424  0
H  H60  1  0.32925663  0.96371908  0.39058382  1  0.017749  0  0.098192  0.095477  0  1.037514  0
H  H61  1  0.27337861  0.81624891  0.57459590  1  0.059135  0  0.098536  0.101519  0  1.039699  0
H  H62  1  0.72662414  0.18374709  0.42539803  1  0.059209  0  0.098491  0.101447  0  1.03977  0
H  H63  1  0.50557982  0.22875594  0.72319240  1  0.029988  0  0.09411  0.061745  0  0.979411  0
H  H64  1  0.49441455  0.77124073  0.27680560  1  0.029819  0  0.094088  0.061728  0  0.979475  0
H  H65  1  0.71520727  0.31772508  0.66578511  1  0.031594  0  0.079969  0.108136  0  1.056459  0
H  H66  1  0.28479544  0.68227919  0.33421855  1  0.031226  0  0.079975  0.108147  0  1.056458  0
H  H67  1  0.56605708  0.26395210  0.60369821  1  0.033973  0  0.079751  0.112456  0  1.045612  0
H  H68  1  0.43394720  0.73604992  0.39630316  1  0.033872  0  0.079757  0.112427  0  1.045597  0
H  H69  1  0.72022496  0.20380670  0.60807152  1  0.010737  0  0.078825  0.106352  0  1.018342  0
H  H70  1  0.27978127  0.79619453  0.39193242  1  0.010658  0  0.078813  0.106335  0  1.018336  0
H  H71  1  0.77495873  0.12645305  0.72404435  1  0.014977  0  0.082244  0.113229  0  1.013151  0
H  H72  1  0.22503855  0.87354664  0.27595716  1  0.0153  0  0.08224  0.113264  0  1.013158  0
H  H73  1  0.64739368  0.12408535  0.79002636  1  -0.005803  0  0.083879  0.11444  0  1.017368  0
H  H74  1  0.35260157  0.87591052  0.20997420  1  -0.005848  0  0.083845  0.114424  0  1.017473  0
H  H75  1  0.75577984  0.24203902  0.77667584  1  0.011004  0  0.082494  0.112566  0  1.033821  0
H  H76  1  0.24421453  0.75795759  0.22332687  1  0.010896  0  0.082487  0.112594  0  1.033935  0
H  H77  1  0.09132215  0.94690561  0.71163970  1  0.003067  0  0.096535  0.064702  0  0.955196  0
H  H78  1  0.90868106  0.05309648  0.28835538  1  0.002924  0  0.09654  0.064709  0  0.955055  0
H  H79  1  0.03890004  0.06925041  0.63281651  1  0.005663  0  0.080449  0.10661  0  1.054841  0
H  H80  1  0.96110161  0.93075391  0.36718347  1  0.005743  0  0.080453  0.106608  0  1.054956  0
H  H81  1  0.89108360  0.96439998  0.62598387  1  0.026432  0  0.083311  0.116019  0  1.019642  0
H  H82  1  0.10891522  0.03560586  0.37401516  1  0.026429  0  0.083303  0.116048  0  1.019596  0
H  H83  1  0.01452269  0.97091929  0.55811868  1  -0.022414  0  0.080266  0.11007  0  1.022526  0
H  H84  1  0.98547524  0.02908733  0.44187937  1  -0.02246  0  0.080243  0.110002  0  1.022564  0
H  H85  1  0.92933986  0.79382069  0.65278194  1  0.040551  0  0.087755  0.123873  0  0.994337  0
H  H86  1  0.07066365  0.20617831  0.34721701  1  0.040512  0  0.087775  0.123886  0  0.994251  0
H  H87  1  0.10697011  0.76525374  0.66214419  1  0.062833  0  0.086284  0.131259  0  1.036655  0
H  H88  1  0.89303134  0.23474986  0.33785206  1  0.062196  0  0.086275  0.131218  0  1.036588  0
H  H89  1  0.03569194  0.78585253  0.57871378  1  0.018539  0  0.07866  0.105737  0  1.01976  0
H  H90  1  0.96430768  0.21414800  0.42128316  1  0.018549  0  0.078649  0.105723  0  1.019827  0
H  H91  1  0.69248301  0.96330215  0.49407625  1  0.06041  0  0.106361  0.103171  0  1.020057  0
H  H92  1  0.30752567  0.03669609  0.50592379  1  0.060341  0  0.106371  0.103226  0  1.020125  0
H  H93  1  0.81701552  0.83658359  0.42448605  1  0.091668  0  0.106497  0.107122  0  1.033068  0
H  H94  1  0.18300261  0.16341385  0.57552037  1  0.091773  0  0.106479  0.107076  0  1.033166  0
H  H95  1  0.73937178  0.65023248  0.43281258  1  0.115333  0  0.112119  0.090908  0  1.02181  0
H  H96  1  0.26064088  0.34976880  0.56718994  1  0.115511  0  0.112062  0.09078  0  1.021772  0
H  H97  1  0.44185307  0.71236374  0.57920629  1  0.113948  0  0.109661  0.080513  0  1.05045  0
H  H98  1  0.55814249  0.28762918  0.42078562  1  0.114006  0  0.109642  0.080425  0  1.050633  0
C  C99  1  0.26622058  0.48772084  0.37375798  1  0.467638  0  0.044243  0.0375  0  3.898203  0
C  C100  1  0.73377456  0.51227889  0.62623983  1  0.46733  0  0.044307  0.03754  0  3.897977  0
C  C101  1  0.14351904  0.49686754  0.33228100  1  0.011808  0  0.00498  0.048276  0  3.981487  0
C  C102  1  0.85646861  0.50313212  0.66771926  1  0.012555  0  0.004812  0.048227  0  3.981423  0
C  C103  1  0.03593918  0.54150427  0.36672122  1  -0.04503  0  -0.066834  -0.07866  0  3.906922  0
C  C104  1  0.96404414  0.45848230  0.63328495  1  -0.046163  0  -0.066808  -0.078713  0  3.907119  0
C  C105  1  0.05768122  0.57767146  0.43884238  1  -0.074527  0  -0.0858  -0.120932  0  4.001573  0
C  C106  1  0.94230195  0.42230590  0.56116651  1  -0.074467  0  -0.085728  -0.120802  0  4.00133  0
C  C107  1  0.18451574  0.56727903  0.47578765  1  0.474094  0  0.035932  0.070794  0  3.963156  0
C  C108  1  0.81548150  0.43270761  0.52421881  1  0.474509  0  0.035919  0.070681  0  3.963458  0
C  C109  1  0.13502979  0.46451059  0.25514420  1  -0.027337  0  -0.025869  0.037859  0  4.087235  0
C  C110  1  0.86496455  0.53549442  0.74485883  1  -0.027658  0  -0.025854  0.037805  0  4.087093  0
C  C111  1  0.01178998  0.40047042  0.21971704  1  -0.096735  0  -0.093877  -0.177386  0  3.97034  0
C  C112  1  0.98820493  0.59953693  0.78028258  1  -0.096753  0  -0.093869  -0.177339  0  3.970218  0
C  C113  1  0.00412694  0.37010708  0.14666427  1  0.021156  0  -0.008875  0.012977  0  3.892826  0
C  C114  1  0.99586614  0.62989720  0.85333553  1  0.021183  0  -0.00892  0.012963  0  3.892907  0
C  C115  1  0.12166296  0.40856275  0.10807265  1  0.335679  0  0.091288  0.108724  0  4.047242  0
C  C116  1  0.87833830  0.59144004  0.89192665  1  0.335581  0  0.091288  0.108708  0  4.04727  0
C  C117  1  0.24686473  0.47498916  0.14264413  1  0.042081  0  -0.009031  0.009637  0  3.895521  0
C  C118  1  0.75313508  0.52501207  0.85735759  1  0.042095  0  -0.008963  0.009813  0  3.895522  0
C  C119  1  0.25197295  0.49972318  0.21600460  1  -0.064238  0  -0.094691  -0.18161  0  3.983322  0
C  C120  1  0.74802433  0.50027647  0.78400004  1  -0.063921  0  -0.094697  -0.181656  0  3.983571  0
C  C121  1  0.87183669  0.29667596  0.11003376  1  0.062403  0  -0.087381  0.089057  0  3.883268  0
C  C122  1  0.12815708  0.70332680  0.88996590  1  0.062936  0  -0.087388  0.08891  0  3.883332  0
C  C123  1  0.85061115  0.19447960  0.13931735  1  -0.050749  0  -0.243597  -0.387565  0  3.93755  0
C  C124  1  0.14938525  0.80552093  0.86067847  1  -0.050427  0  -0.243594  -0.387602  0  3.937366  0
C  C125  1  0.73478434  0.34455979  0.11557918  1  -0.036984  0  -0.246401  -0.387633  0  3.914755  0
C  C126  1  0.26520786  0.65544527  0.88441911  1  -0.037568  0  -0.246455  -0.387621  0  3.914508  0
C  C127  1  0.36877702  0.52028098  0.10006068  1  0.065036  0  -0.08653  0.090829  0  3.887013  0
C  C128  1  0.63122133  0.47971868  0.89994399  1  0.06505  0  -0.086474  0.090817  0  3.887154  0
C  C129  1  0.51700437  0.54868578  0.14150141  1  -0.072487  0  -0.249524  -0.392905  0  3.923341  0
C  C130  1  0.48299096  0.45131458  0.85850693  1  -0.072539  0  -0.249593  -0.39307  0  3.923569  0
C  C131  1  0.32883584  0.61279759  0.06943045  1  -0.056118  0  -0.244949  -0.391431  0  3.910796  0
C  C132  1  0.67116132  0.38720590  0.93057249  1  -0.05537  0  -0.244957  -0.391378  0  3.91098  0
C  C133  1  0.24441177  0.24397488  0.03218132  1  -0.049051  0  -0.235852  -0.455933  0  3.952375  0
C  C134  1  0.75559660  0.75602642  0.96781797  1  -0.049178  0  -0.235913  -0.455947  0  3.952496  0
C  C135  1  0.16294783  0.31509519  0.99949295  1  0.711605  0  0.162643  0.268776  0  3.946422  0
C  C136  1  0.83705550  0.68490303  0.00050697  1  0.711668  0  0.162769  0.268814  0  3.94638  0
C  C137  1  0.14395496  0.30181416  0.92076332  1  0.550099  0  0.11652  0.144615  0  4.011922  0
C  C138  1  0.85604653  0.69818098  0.07923730  1  0.550065  0  0.116369  0.144501  0  4.012065  0
C  C139  1  0.07173646  0.36627904  0.88601685  1  -0.098215  0  -0.067682  -0.134082  0  3.909902  0
C  C140  1  0.92825665  0.63371681  0.11398419  1  -0.098251  0  -0.067578  -0.134026  0  3.910034  0
C  C141  1  0.06166785  0.35237530  0.81241757  1  -0.030131  0  -0.06616  -0.01811  0  3.949796  0
C  C142  1  0.93832332  0.64762131  0.18758350  1  -0.029586  0  -0.06625  -0.01811  0  3.949937  0
C  C143  1  0.12385996  0.27566750  0.77588106  1  0.011456  0  -0.070052  -0.125791  0  3.910806  0
C  C144  1  0.87614180  0.72433300  0.22411853  1  0.011185  0  -0.070029  -0.125829  0  3.910657  0
C  C145  1  0.19317495  0.21411532  0.81473774  1  0.561064  0  0.115219  0.142684  0  4.00536  0
C  C146  1  0.80683740  0.78588908  0.18526038  1  0.56073  0  0.11516  0.142715  0  4.005461  0
C  C147  1  0.33197803  0.06841714  0.82584168  1  -0.062722  0  -0.236638  -0.463114  0  3.95424  0
C  C148  1  0.66802985  0.93158648  0.17415575  1  -0.062648  0  -0.236592  -0.463046  0  3.95437  0
C  C149  1  0.26580453  0.13237314  0.77941032  1  0.685681  0  0.167269  0.28012  0  3.936649  0
C  C150  1  0.73420189  0.86762897  0.22058484  1  0.685952  0  0.167378  0.28013  0  3.936773  0
C  C151  1  0.34064483  0.05275009  0.67293198  1  0.368869  0  0.093801  0.116019  0  4.040888  0
C  C152  1  0.65935861  0.94724440  0.32706025  1  0.369684  0  0.093913  0.116109  0  4.040759  0
C  C153  1  0.48912756  0.08239845  0.66107611  1  -0.063376  0  -0.009749  0.010747  0  3.900626  0
C  C154  1  0.51087217  0.91759823  0.33892253  1  -0.063827  0  -0.00969  0.010786  0  3.900539  0
C  C155  1  0.55539789  0.01472919  0.61752445  1  0.009268  0  -0.094179  -0.178856  0  3.992317  0
C  C156  1  0.44459882  0.98526826  0.38247264  1  0.009179  0  -0.094239  -0.178953  0  3.992476  0
C  C157  1  0.48025734  0.91875230  0.58615605  1  0.017752  0  -0.02316  0.047612  0  4.083556  0
C  C158  1  0.51973986  0.08124286  0.41384082  1  0.017731  0  -0.023229  0.047489  0  4.083405  0
C  C159  1  0.33286817  0.89093947  0.59874942  1  -0.08349  0  -0.096398  -0.182647  0  3.982646  0
C  C160  1  0.66713672  0.10905645  0.40125134  1  -0.083376  0  -0.096352  -0.182597  0  3.982707  0
C  C161  1  0.26070102  0.95606403  0.64126309  1  0.018428  0  -0.010764  0.005119  0  3.890118  0
C  C162  1  0.73930035  0.04393503  0.35872956  1  0.018176  0  -0.010767  0.005227  0  3.889992  0
C  C163  1  0.57899371  0.18396884  0.69527284  1  0.029629  0  -0.088994  0.086198  0  3.8761  0
C  C164  1  0.42100438  0.81602554  0.30472554  1  0.029912  0  -0.089064  0.086033  0  3.87624  0
C  C165  1  0.64875163  0.24573099  0.63985429  1  -0.078646  0  -0.250654  -0.386067  0  3.916879  0
C  C166  1  0.35124623  0.75427097  0.36014904  1  -0.078181  0  -0.250636  -0.385954  0  3.916913  0
C  C167  1  0.69558248  0.16812749  0.74978346  1  -0.010269  0  -0.244615  -0.389427  0  3.922148  0
C  C168  1  0.30440692  0.83187065  0.25021668  1  -0.010516  0  -0.244532  -0.389398  0  3.922297  0
C  C169  1  0.10066808  0.92573049  0.65445700  1  0.061245  0  -0.085325  0.092807  0  3.879678  0
C  C170  1  0.89932814  0.07426928  0.34553823  1  0.061374  0  -0.085389  0.092714  0  3.879357  0
C  C171  1  0.00596937  0.98670613  0.61560498  1  -0.024101  0  -0.245262  -0.393231  0  3.919331  0
C  C172  1  0.99403208  0.01329744  0.38439387  1  -0.024071  0  -0.245184  -0.393152  0  3.919247  0
C  C173  1  0.04073569  0.81110958  0.63611026  1  -0.099225  0  -0.246451  -0.396487  0  3.926685  0
C  C174  1  0.95926392  0.18889092  0.36388824  1  -0.09859  0  -0.246471  -0.396458  0  3.926493  0
C  C175  1  0.55661567  0.84837195  0.54301354  1  0.021374  0  0.002596  0.041238  0  3.983532  0
C  C176  1  0.44338426  0.15162549  0.45698571  1  0.021401  0  0.002615  0.041191  0  3.983579  0
C  C177  1  0.66571142  0.88240680  0.49916987  1  0.019436  0  -0.063302  -0.078117  0  3.928805  0
C  C178  1  0.33429348  0.11758916  0.50082776  1  0.019541  0  -0.063335  -0.078231  0  3.9288  0
C  C179  1  0.73498089  0.81210504  0.46017550  1  -0.049232  0  -0.081296  -0.115001  0  3.994289  0
C  C180  1  0.26503594  0.18790009  0.53982697  1  -0.049216  0  -0.081343  -0.114968  0  3.994222  0
C  C181  1  0.69307747  0.70873067  0.46449128  1  0.432131  0  0.036353  0.071296  0  3.961207  0
C  C182  1  0.30693480  0.29126916  0.53550533  1  0.431745  0  0.036525  0.0715  0  3.961061  0
C  C183  1  0.52337494  0.74286646  0.54486310  1  0.470315  0  0.044693  0.041171  0  3.908921  0
C  C184  1  0.47662945  0.25713180  0.45513371  1  0.470249  0  0.044863  0.041477  0  3.909216  0
N  N185  1  0.28604492  0.52180212  0.44342794  1  -1.266994  0  -0.339275  -0.242352  0  3.561885  0
N  N186  1  0.71395745  0.47819229  0.55657000  1  -1.26717  0  -0.33928  -0.242277  0  3.56176  0
N  N187  1  0.10900352  0.38699314  0.03404998  1  -1.256215  0  -0.298627  -0.319147  0  3.36807  0
N  N188  1  0.89099300  0.61300351  0.96595068  1  -1.256323  0  -0.298668  -0.319146  0  3.368087  0
N  N189  1  0.20225074  0.22670307  0.88580839  1  -1.27748  0  -0.306786  -0.311913  0  3.313796  0
N  N190  1  0.79775296  0.77329668  0.11419064  1  -1.277426  0  -0.306699  -0.311908  0  3.31391  0
N  N191  1  0.26907322  0.12286688  0.71172895  1  -1.201658  0  -0.302179  -0.332141  0  3.384591  0
N  N192  1  0.73092444  0.87713444  0.28826489  1  -1.20176  0  -0.302269  -0.332164  0  3.3848  0
N  N193  1  0.58864456  0.67500129  0.50633973  1  -1.256237  0  -0.337299  -0.244381  0  3.558232  0
N  N194  1  0.41136851  0.32499322  0.49365532  1  -1.256121  0  -0.33749  -0.244567  0  3.558819  0
Cl  Cl195  1  0.35569012  0.57278421  0.67798906  1  3.023793  0  0.729909  1.285508  0  6.78936  0
Cl  Cl196  1  0.64432552  0.42722476  0.32201116  1  3.023102  0  0.729876  1.285669  0  6.789832  0
O  O197  1  0.38235194  0.51345558  0.60971375  1  -0.971809  0  -0.343687  -0.566988  0  2.236588  0
O  O198  1  0.61767357  0.48654572  0.39029321  1  -0.971808  0  -0.343706  -0.567075  0  2.236636  0
O  O199  1  0.26125964  0.64391301  0.66234789  1  -0.984974  0  -0.308453  -0.505882  0  2.115425  0
O  O200  1  0.73876262  0.35609687  0.33764367  1  -0.984779  0  -0.308395  -0.505851  0  2.115558  0
O  O201  1  0.28448580  0.50033834  0.72102696  1  -0.998476  0  -0.293736  -0.475194  0  2.117599  0
O  O202  1  0.71552648  0.49968276  0.27897964  1  -0.99825  0  -0.293681  -0.475263  0  2.117609  0
O  O203  1  0.49334108  0.62807487  0.71236473  1  -0.970638  0  -0.30451  -0.47325  0  2.050696  0
O  O204  1  0.50667583  0.37193488  0.28763507  1  -0.970311  0  -0.304533  -0.473265  0  2.051115  0
