# generated using pymatgen
data_Zn2H19C26NO9
_symmetry_space_group_name_H-M   'P 1'
_cell_length_a   12.56045577
_cell_length_b   15.62399259
_cell_length_c   18.06225767
_cell_angle_alpha   89.99990871
_cell_angle_beta   89.99989943
_cell_angle_gamma   111.62867812
_symmetry_Int_Tables_number   1
_chemical_formula_structural   Zn2H19C26NO9
_chemical_formula_sum   'Zn8 H76 C104 N4 O36'
_cell_volume   3295.04907136
_cell_formula_units_Z   4
loop_
 _symmetry_equiv_pos_site_id
 _symmetry_equiv_pos_as_xyz
  1  'x, y, z'
loop_
 _atom_site_type_symbol
 _atom_site_label
 _atom_site_symmetry_multiplicity
 _atom_site_fract_x
 _atom_site_fract_y
 _atom_site_fract_z
 _atom_site_occupancy
 _atom_site_pbe_bader_charge
 _atom_site_pbe_bader_spin_density
 _atom_site_pbe_cm5_charge
 _atom_site_pbe_ddec_charge
 _atom_site_pbe_ddec_spin_density
 _atom_site_pbe_ddec_sum_bond_order
 _atom_site_pbe_magmom
Zn  Zn0  1  0.74494563  0.77236008  0.61596299  1  1.327448  0  0.690525  0.930155  0  2.360172  0
Zn  Zn1  1  0.95654844  0.79888114  0.50454321  1  1.328854  0  0.697526  0.935084  0  2.313823  0
Zn  Zn2  1  0.25505813  0.72764094  0.11596547  1  1.327549  0  0.690525  0.930174  0  2.36027  0
Zn  Zn3  1  0.04345530  0.70111746  0.00454100  1  1.328913  0  0.697495  0.934995  0  2.313909  0
Zn  Zn4  1  0.25505257  0.22763803  0.38403529  1  1.327431  0  0.690585  0.930267  0  2.360347  0
Zn  Zn5  1  0.04344964  0.20111146  0.49546060  1  1.328991  0  0.697483  0.935052  0  2.314034  0
Zn  Zn6  1  0.74493988  0.27236199  0.88403447  1  1.327432  0  0.690593  0.930274  0  2.360272  0
Zn  Zn7  1  0.95654623  0.29888272  0.99545948  1  1.328911  0  0.69747  0.934986  0  2.313943  0
H  H8  1  0.90449366  0.97264115  0.75428654  1  0.118387  0  0.107641  0.119901  0  1.011968  0
H  H9  1  0.01190817  0.11257095  0.83015195  1  0.075972  0  0.097753  0.095345  0  1.037352  0
H  H10  1  0.20712198  0.21487180  0.79337618  1  0.049847  0  0.105579  0.10445  0  0.988551  0
H  H11  1  0.19344397  0.03790134  0.60778600  1  0.093377  0  0.104454  0.108388  0  1.011434  0
H  H12  1  0.49132287  0.30147101  0.52619894  1  0.106868  0  0.108715  0.119266  0  0.990226  0
H  H13  1  0.40241613  0.19363018  0.78437776  1  0.101133  0  0.107636  0.114939  0  0.996242  0
H  H14  1  0.63442656  0.49241478  0.61537473  1  0.090646  0  0.11121  0.122653  0  0.990123  0
H  H15  1  0.97811880  0.53436425  0.54839227  1  0.111057  0  0.103247  0.102258  0  1.034328  0
H  H16  1  0.93523241  0.36509886  0.56114996  1  0.06514  0  0.103111  0.109313  0  1.012433  0
H  H17  1  0.74199935  0.26132886  0.60208301  1  0.094976  0  0.100756  0.097542  0  1.023214  0
H  H18  1  0.16709218  0.97546631  0.47398095  1  0.09159  0  0.100688  0.164954  0  1.013699  0
H  H19  1  0.25055566  0.01956202  0.39218170  1  0.117413  0  0.10343  0.166543  0  1.020623  0
H  H20  1  0.29657936  0.95747257  0.45936588  1  0.055014  0  0.107779  0.162067  0  0.966306  0
H  H21  1  0.26566578  0.95067157  0.24229392  1  0.088859  0  0.104436  0.12917  0  1.01087  0
H  H22  1  0.32802243  0.86757727  0.26335443  1  0.111765  0  0.103413  0.127593  0  1.019237  0
H  H23  1  0.34608537  0.96184033  0.32456099  1  0.083263  0  0.111374  0.131895  0  0.994  0
H  H24  1  0.14605921  0.72040033  0.28383769  1  0.078382  0  0.103142  0.121845  0  1.01829  0
H  H25  1  0.10209022  0.79505151  0.22803567  1  0.060931  0  0.102809  0.117158  0  1.009418  0
H  H26  1  0.02460563  0.74673813  0.31076959  1  0.094873  0  0.113615  0.137292  0  0.988645  0
H  H27  1  0.09551027  0.52735052  0.25428340  1  0.118378  0  0.10761  0.119853  0  1.012082  0
H  H28  1  0.98808963  0.38742305  0.33015332  1  0.075885  0  0.097828  0.095447  0  1.037258  0
H  H29  1  0.79287098  0.28512711  0.29337737  1  0.049791  0  0.105571  0.104415  0  0.988534  0
H  H30  1  0.80656182  0.46210021  0.10777863  1  0.092965  0  0.104474  0.108409  0  1.01139  0
H  H31  1  0.50867656  0.19852664  0.02620170  1  0.106899  0  0.108651  0.119229  0  0.99035  0
H  H32  1  0.59758368  0.30637496  0.28437583  1  0.101207  0  0.107655  0.114877  0  0.996358  0
H  H33  1  0.36557028  0.00758467  0.11537793  1  0.090646  0  0.111171  0.122681  0  0.990159  0
H  H34  1  0.02188251  0.96563972  0.04838585  1  0.110852  0  0.103303  0.102277  0  1.034274  0
H  H35  1  0.06476909  0.13490351  0.06114726  1  0.065232  0  0.103097  0.109272  0  1.012449  0
H  H36  1  0.25799738  0.23867201  0.10208603  1  0.094922  0  0.100734  0.097524  0  1.023236  0
H  H37  1  0.83290623  0.52453019  0.97398147  1  0.091635  0  0.100662  0.164912  0  1.01375  0
H  H38  1  0.74944378  0.48043592  0.89218115  1  0.117383  0  0.103439  0.166578  0  1.02059  0
H  H39  1  0.70342037  0.54252673  0.95936542  1  0.055023  0  0.107748  0.16203  0  0.966265  0
H  H40  1  0.73433416  0.54932700  0.74229453  1  0.088862  0  0.104427  0.129137  0  1.010941  0
H  H41  1  0.67197932  0.63242538  0.76335445  1  0.111802  0  0.103403  0.127568  0  1.01917  0
H  H42  1  0.65391583  0.53816144  0.82456337  1  0.08324  0  0.111357  0.131853  0  0.994045  0
H  H43  1  0.85393975  0.77960156  0.78383783  1  0.078344  0  0.103173  0.12188  0  1.01822  0
H  H44  1  0.89791150  0.70495261  0.72803641  1  0.060971  0  0.102804  0.117123  0  1.009474  0
H  H45  1  0.97539306  0.75326505  0.81077073  1  0.094819  0  0.113607  0.137254  0  0.988705  0
H  H46  1  0.09550853  0.02735697  0.24571228  1  0.11835  0  0.107632  0.119918  0  1.011908  0
H  H47  1  0.98808909  0.88742510  0.16984688  1  0.075987  0  0.097776  0.095386  0  1.037304  0
H  H48  1  0.79287272  0.78512562  0.20662597  1  0.049839  0  0.105579  0.104397  0  0.988473  0
H  H49  1  0.80656157  0.96209541  0.39221781  1  0.093292  0  0.104482  0.108405  0  1.011538  0
H  H50  1  0.50867351  0.69851265  0.47380044  1  0.107085  0  0.108724  0.119295  0  0.990204  0
H  H51  1  0.59758365  0.80637137  0.21562661  1  0.101192  0  0.107654  0.114961  0  0.996274  0
H  H52  1  0.36556932  0.50757301  0.38462189  1  0.090463  0  0.111233  0.122742  0  0.990051  0
H  H53  1  0.02186984  0.46563385  0.45160822  1  0.110956  0  0.103227  0.102244  0  1.034205  0
H  H54  1  0.06477504  0.63489857  0.43884998  1  0.065312  0  0.103123  0.109319  0  1.012498  0
H  H55  1  0.25800353  0.73866032  0.39791914  1  0.095133  0  0.100763  0.097553  0  1.023339  0
H  H56  1  0.83291049  0.02453112  0.52602397  1  0.091569  0  0.100696  0.164947  0  1.013706  0
H  H57  1  0.74944764  0.98043679  0.60782211  1  0.117351  0  0.103446  0.166572  0  1.02058  0
H  H58  1  0.70341934  0.04252141  0.54063406  1  0.055187  0  0.107797  0.162141  0  0.966204  0
H  H59  1  0.73433240  0.04932998  0.75770546  1  0.088906  0  0.104426  0.12912  0  1.01098  0
H  H60  1  0.67197495  0.13242428  0.73664384  1  0.111723  0  0.103401  0.127562  0  1.019199  0
H  H61  1  0.65391631  0.03816191  0.67543784  1  0.083246  0  0.111376  0.131886  0  0.994002  0
H  H62  1  0.85393866  0.27960053  0.71616336  1  0.078338  0  0.103178  0.121905  0  1.018185  0
H  H63  1  0.89790939  0.20495142  0.77196261  1  0.060943  0  0.102813  0.117132  0  1.009481  0
H  H64  1  0.97538919  0.25326479  0.68923145  1  0.094893  0  0.113582  0.137233  0  0.988792  0
H  H65  1  0.90449718  0.47264692  0.74571432  1  0.118434  0  0.107635  0.119865  0  1.012059  0
H  H66  1  0.01191350  0.61257713  0.66984939  1  0.075949  0  0.097809  0.095448  0  1.037338  0
H  H67  1  0.20712910  0.71487513  0.70662422  1  0.04982  0  0.105573  0.104419  0  0.988498  0
H  H68  1  0.19345488  0.53789655  0.89221356  1  0.093329  0  0.10446  0.108386  0  1.011395  0
H  H69  1  0.49132254  0.80148041  0.97379989  1  0.106796  0  0.108669  0.119202  0  0.990203  0
H  H70  1  0.40241908  0.69363141  0.71562466  1  0.101281  0  0.107639  0.114884  0  0.996296  0
H  H71  1  0.63442529  0.99242513  0.88462201  1  0.090381  0  0.111211  0.122704  0  0.990151  0
H  H72  1  0.97812758  0.03436873  0.95160744  1  0.110938  0  0.103246  0.102233  0  1.034232  0
H  H73  1  0.93522602  0.86510354  0.93885046  1  0.065207  0  0.103098  0.109276  0  1.012499  0
H  H74  1  0.74199788  0.76133711  0.89791833  1  0.095132  0  0.10077  0.097581  0  1.023289  0
H  H75  1  0.16709134  0.47546654  0.02601957  1  0.091631  0  0.100673  0.164944  0  1.013724  0
H  H76  1  0.25055681  0.51956219  0.10781934  1  0.1174  0  0.103417  0.16654  0  1.020608  0
H  H77  1  0.29657769  0.45746932  0.04063507  1  0.055014  0  0.107794  0.162088  0  0.966299  0
H  H78  1  0.26566960  0.45067456  0.25770541  1  0.08885  0  0.104431  0.129161  0  1.0109  0
H  H79  1  0.32802427  0.36757756  0.23664494  1  0.111793  0  0.103406  0.127571  0  1.01927  0
H  H80  1  0.34608332  0.46183874  0.17543656  1  0.083217  0  0.111346  0.131855  0  0.994014  0
H  H81  1  0.14605939  0.22039862  0.21616321  1  0.078374  0  0.103147  0.121847  0  1.018264  0
H  H82  1  0.10208827  0.29504894  0.27196574  1  0.061258  0  0.102795  0.117139  0  1.009386  0
H  H83  1  0.02460464  0.24673719  0.18923087  1  0.094833  0  0.113606  0.13727  0  0.988643  0
C  C84  1  0.98064185  0.91534286  0.63083962  1  1.531807  0  0.226736  0.606442  0  4.157171  0
C  C85  1  0.04352749  0.99771916  0.67656476  1  -0.014187  0  -0.022078  -0.039274  0  3.984535  0
C  C86  1  0.99130199  0.01784365  0.73954647  1  -0.005985  0  -0.079788  -0.085382  0  3.922162  0
C  C87  1  0.05127730  0.09578586  0.78130533  1  -0.043313  0  -0.091151  -0.081317  0  4.017967  0
C  C88  1  0.16183585  0.15322117  0.76095063  1  -0.065987  0  -0.077408  -0.106841  0  3.939491  0
C  C89  1  0.21453363  0.13395050  0.69795073  1  0.000793  0  -0.005726  0.071882  0  4.011751  0
C  C90  1  0.15420461  0.05540699  0.65639345  1  -0.031679  0  -0.080382  -0.129472  0  3.927482  0
C  C91  1  0.33144557  0.19462766  0.67581717  1  0.004319  0  0.001009  0.055995  0  3.980468  0
C  C92  1  0.35910934  0.22489394  0.60220674  1  0.028233  0  -0.014027  -0.069281  0  3.944936  0
C  C93  1  0.47192753  0.27947009  0.58353842  1  -0.046762  0  -0.08156  -0.139976  0  3.954508  0
C  C94  1  0.55902935  0.30823590  0.63645200  1  -0.020651  0  0.000159  0.047889  0  3.979799  0
C  C95  1  0.53230970  0.27677951  0.70973966  1  -0.011925  0  -0.005819  -0.04515  0  3.931243  0
C  C96  1  0.42013646  0.21985691  0.72792631  1  -0.069456  0  -0.082698  -0.148389  0  3.94848  0
C  C97  1  0.27207401  0.20758981  0.54196682  1  1.551251  0  0.226431  0.608697  0  4.16952  0
C  C98  1  0.62091960  0.30418136  0.77023923  1  1.572786  0  0.202935  0.570517  0  4.232592  0
C  C99  1  0.67565056  0.36989851  0.61273558  1  0.060166  0  -0.004023  0.07338  0  4.013691  0
C  C100  1  0.69981448  0.46399058  0.60368514  1  -0.054749  0  -0.075724  -0.129791  0  3.920871  0
C  C101  1  0.80841630  0.52309598  0.58029537  1  -0.026466  0  -0.021845  -0.045902  0  3.992907  0
C  C102  1  0.89362239  0.48750374  0.56545833  1  -0.094021  0  -0.083731  -0.097838  0  3.972221  0
C  C103  1  0.86976391  0.39351399  0.57325201  1  -0.012684  0  -0.089193  -0.07819  0  3.995419  0
C  C104  1  0.76110196  0.33502701  0.59658530  1  -0.092459  0  -0.081893  -0.114821  0  3.947991  0
C  C105  1  0.83167993  0.62351285  0.57251719  1  1.54595  0  0.221949  0.594987  0  4.174291  0
C  C106  1  0.15382290  0.87215886  0.39405248  1  1.364911  0  0.252131  0.519896  0  4.02297  0
C  C107  1  0.22090985  0.96193680  0.43135890  1  -0.110203  0  -0.239005  -0.521797  0  3.903213  0
C  C108  1  0.28659917  0.91216708  0.28713052  1  0.21637  0  -0.135607  -0.271674  0  3.865598  0
C  C109  1  0.10935426  0.77415383  0.28518191  1  0.244009  0  -0.138654  -0.275705  0  3.895674  0
C  C110  1  0.01936826  0.58465469  0.13083871  1  1.532041  0  0.226713  0.606442  0  4.157443  0
C  C111  1  0.95647957  0.50227893  0.17656338  1  -0.014387  0  -0.02213  -0.039236  0  3.98448  0
C  C112  1  0.00870316  0.48215200  0.23954557  1  -0.005945  0  -0.079801  -0.085349  0  3.92222  0
C  C113  1  0.94872291  0.40420966  0.28130561  1  -0.042836  0  -0.09119  -0.081453  0  4.01803  0
C  C114  1  0.83816234  0.34677853  0.26095057  1  -0.066337  0  -0.077439  -0.106812  0  3.939461  0
C  C115  1  0.78546147  0.36604732  0.19795016  1  0.000761  0  -0.005664  0.071984  0  4.011783  0
C  C116  1  0.84579941  0.44459098  0.15639048  1  -0.031069  0  -0.080367  -0.129562  0  3.927444  0
C  C117  1  0.66855039  0.30537367  0.17581849  1  0.004162  0  0.000891  0.055803  0  3.980711  0
C  C118  1  0.64089330  0.27510418  0.10220923  1  0.02827  0  -0.013941  -0.069207  0  3.944964  0
C  C119  1  0.52807280  0.22052808  0.08354058  1  -0.046889  0  -0.081566  -0.140005  0  3.954706  0
C  C120  1  0.44096741  0.19176348  0.13645264  1  -0.021115  0  9.7e-05  0.047737  0  3.979862  0
C  C121  1  0.46769356  0.22322930  0.20973968  1  -0.011618  0  -0.005849  -0.045275  0  3.931449  0
C  C122  1  0.57986101  0.28014977  0.22792777  1  -0.069605  0  -0.082616  -0.148082  0  3.948584  0
C  C123  1  0.72792746  0.29240368  0.04196642  1  1.551356  0  0.226431  0.608696  0  4.169568  0
C  C124  1  0.37906851  0.19581899  0.27023717  1  1.572964  0  0.202955  0.570512  0  4.232725  0
C  C125  1  0.32434248  0.13009957  0.11273977  1  0.060386  0  -0.003984  0.073499  0  4.01342  0
C  C126  1  0.30018511  0.03600960  0.10368672  1  -0.054747  0  -0.075773  -0.130023  0  3.920976  0
C  C127  1  0.19158044  0.97690514  0.08029814  1  -0.026395  0  -0.021816  -0.045763  0  3.992664  0
C  C128  1  0.10637463  0.01249930  0.06545741  1  -0.093907  0  -0.083761  -0.097898  0  3.97199  0
C  C129  1  0.13024022  0.10649248  0.07325038  1  -0.012727  0  -0.08918  -0.07812  0  3.99564  0
C  C130  1  0.23889542  0.16497525  0.09658733  1  -0.092407  0  -0.081804  -0.114712  0  3.947973  0
C  C131  1  0.16831175  0.87648760  0.07251514  1  1.545937  0  0.22191  0.594884  0  4.17411  0
C  C132  1  0.84617822  0.62783789  0.89405340  1  1.3649  0  0.252146  0.52  0  4.0229  0
C  C133  1  0.77909001  0.53805915  0.93135947  1  -0.110279  0  -0.239003  -0.521816  0  3.903123  0
C  C134  1  0.71340425  0.58783412  0.78713221  1  0.216448  0  -0.1356  -0.27157  0  3.865675  0
C  C135  1  0.89064630  0.72584806  0.78518319  1  0.244062  0  -0.138695  -0.27566  0  3.895727  0
C  C136  1  0.01935746  0.08465594  0.36916087  1  1.531583  0  0.226756  0.606455  0  4.157177  0
C  C137  1  0.95647294  0.00228033  0.32343794  1  -0.014292  0  -0.022138  -0.039256  0  3.984578  0
C  C138  1  0.00869890  0.98215859  0.26045402  1  -0.006272  0  -0.079725  -0.085298  0  3.921979  0
C  C139  1  0.94872264  0.90421432  0.21869682  1  -0.042939  0  -0.091209  -0.081476  0  4.017952  0
C  C140  1  0.83816233  0.84678038  0.23905263  1  -0.066145  0  -0.077357  -0.106666  0  3.939407  0
C  C141  1  0.78546474  0.86604623  0.30205308  1  0.00098  0  -0.005712  0.071851  0  4.011955  0
C  C142  1  0.84579808  0.94458701  0.34361258  1  -0.031484  0  -0.080387  -0.129541  0  3.927806  0
C  C143  1  0.66855389  0.80537321  0.32418442  1  0.004546  0  0.000925  0.055967  0  3.9805  0
C  C144  1  0.64089398  0.77510143  0.39779320  1  0.028255  0  -0.013995  -0.069361  0  3.944919  0
C  C145  1  0.52807231  0.72052114  0.41645985  1  -0.046684  0  -0.081569  -0.139947  0  3.954447  0
C  C146  1  0.44096653  0.69175188  0.36354738  1  -0.021278  0  0.000108  0.047724  0  3.979821  0
C  C147  1  0.46768879  0.72322273  0.29026138  1  -0.011941  0  -0.00587  -0.04533  0  3.931215  0
C  C148  1  0.57986126  0.78014189  0.27207528  1  -0.069702  0  -0.082654  -0.148259  0  3.948438  0
C  C149  1  0.72792931  0.79240556  0.45803477  1  1.551216  0  0.226306  0.608495  0  4.169705  0
C  C150  1  0.37906588  0.69581329  0.22976459  1  1.572955  0  0.203021  0.570732  0  4.232722  0
C  C151  1  0.32434192  0.63009753  0.38725882  1  0.06039  0  -0.003996  0.07353  0  4.0136  0
C  C152  1  0.30018309  0.53600616  0.39630815  1  -0.054682  0  -0.07579  -0.130125  0  3.920894  0
C  C153  1  0.19157778  0.47690006  0.41969903  1  -0.02625  0  -0.021867  -0.045746  0  3.992508  0
C  C154  1  0.10637388  0.51249712  0.43453773  1  -0.094387  0  -0.083658  -0.097761  0  3.971689  0
C  C155  1  0.13024443  0.60649239  0.42674460  1  -0.01287  0  -0.089166  -0.078193  0  3.995831  0
C  C156  1  0.23889513  0.66497041  0.40341685  1  -0.092473  0  -0.081911  -0.114801  0  3.948498  0
C  C157  1  0.16831178  0.37647975  0.42748330  1  1.546391  0  0.221922  0.594983  0  4.173768  0
C  C158  1  0.84617786  0.12783788  0.60594579  1  1.364837  0  0.252039  0.519791  0  4.023021  0
C  C159  1  0.77908709  0.03805856  0.56864214  1  -0.110389  0  -0.239054  -0.52189  0  3.903104  0
C  C160  1  0.71340092  0.08783517  0.71286775  1  0.216398  0  -0.135595  -0.271565  0  3.865656  0
C  C161  1  0.89064313  0.22584772  0.71481802  1  0.244032  0  -0.138698  -0.275705  0  3.895763  0
C  C162  1  0.98064223  0.41534069  0.86915735  1  1.531824  0  0.226735  0.606411  0  4.157371  0
C  C163  1  0.04353126  0.49771370  0.82343102  1  -0.014195  0  -0.022078  -0.039271  0  3.984648  0
C  C164  1  0.99130414  0.51784337  0.76045104  1  -0.006023  0  -0.079733  -0.085209  0  3.922322  0
C  C165  1  0.05128136  0.59578777  0.71869432  1  -0.043202  0  -0.091197  -0.081477  0  4.018042  0
C  C166  1  0.16184255  0.65322028  0.73904937  1  -0.065855  0  -0.077438  -0.106827  0  3.939441  0
C  C167  1  0.21454103  0.63395148  0.80204978  1  0.000691  0  -0.005659  0.071979  0  4.011727  0
C  C168  1  0.15420678  0.55540371  0.84360613  1  -0.031537  0  -0.080393  -0.129526  0  3.9274  0
C  C169  1  0.33144969  0.69462857  0.82418034  1  0.004471  0  0.000953  0.055877  0  3.980577  0
C  C170  1  0.35910806  0.72489737  0.89778904  1  0.028269  0  -0.013984  -0.069276  0  3.945039  0
C  C171  1  0.47192647  0.77947760  0.91645936  1  -0.046504  0  -0.081566  -0.139931  0  3.954553  0
C  C172  1  0.55903231  0.80824495  0.86354785  1  -0.021193  0  0.000145  0.047784  0  3.979838  0
C  C173  1  0.53230904  0.77677845  0.79026081  1  -0.011882  0  -0.005876  -0.04537  0  3.931311  0
C  C174  1  0.42013903  0.71985935  0.77207161  1  -0.069935  0  -0.082655  -0.148117  0  3.948365  0
C  C175  1  0.27207185  0.70759512  0.95803130  1  1.551284  0  0.226444  0.608719  0  4.169547  0
C  C176  1  0.62093126  0.80418256  0.72976609  1  1.577099  0  0.202939  0.570645  0  4.232645  0
C  C177  1  0.67565585  0.86990405  0.88726127  1  0.060395  0  -0.004024  0.073521  0  4.013631  0
C  C178  1  0.69981510  0.96399815  0.89630823  1  -0.054237  0  -0.075714  -0.129997  0  3.920892  0
C  C179  1  0.80842153  0.02310124  0.91969903  1  -0.026675  0  -0.021925  -0.045837  0  3.992637  0
C  C180  1  0.89362863  0.98750638  0.93453865  1  -0.094507  0  -0.083656  -0.09771  0  3.971745  0
C  C181  1  0.86976079  0.89351527  0.92674347  1  -0.012556  0  -0.089134  -0.078134  0  3.995594  0
C  C182  1  0.76110257  0.83503112  0.90341371  1  -0.092445  0  -0.081885  -0.114857  0  3.948394  0
C  C183  1  0.83168417  0.12351946  0.92748368  1  1.546423  0  0.221994  0.595035  0  4.173941  0
C  C184  1  0.15381839  0.37216022  0.10594875  1  1.364841  0  0.252131  0.520037  0  4.023162  0
C  C185  1  0.22090996  0.46193759  0.06864102  1  -0.110246  0  -0.238999  -0.521842  0  3.903253  0
C  C186  1  0.28659999  0.41216675  0.21286773  1  0.21641  0  -0.135569  -0.271566  0  3.865648  0
C  C187  1  0.10935237  0.27415281  0.21482062  1  0.243679  0  -0.138629  -0.275579  0  3.895473  0
N  N188  1  0.18280072  0.85486786  0.32600395  1  -1.201331  0  -0.27153  -0.017056  0  3.669397  0
N  N189  1  0.81720081  0.64513116  0.82600543  1  -1.201374  0  -0.271483  -0.017121  0  3.669571  0
N  N190  1  0.81719812  0.14513163  0.67399377  1  -1.201286  0  -0.271484  -0.017054  0  3.669488  0
N  N191  1  0.18280121  0.35486834  0.17399616  1  -1.201184  0  -0.27152  -0.017233  0  3.669497  0
O  O192  1  0.17816346  0.21698716  0.55778716  1  -1.164639  0  -0.308106  -0.545432  0  2.371863  0
O  O193  1  0.89009378  0.85636359  0.65823164  1  -1.188509  0  -0.308588  -0.565189  0  2.467703  0
O  O194  1  0.02144667  0.90868889  0.56683160  1  -1.169137  0  -0.314984  -0.559034  0  2.363958  0
O  O195  1  0.30105115  0.18806414  0.47822119  1  -1.168309  0  -0.317897  -0.557541  0  2.350532  0
O  O196  1  0.62272107  0.23572856  0.81095345  1  -1.160748  0  -0.33627  -0.5638  0  2.286905  0
O  O197  1  0.68407056  0.38621150  0.77909849  1  -1.1738  0  -0.306589  -0.538855  0  2.171571  0
O  O198  1  0.75174687  0.65038550  0.59203638  1  -1.178206  0  -0.313402  -0.554332  0  2.380431  0
O  O199  1  0.92980512  0.67590632  0.54743108  1  -1.166162  0  -0.317702  -0.556986  0  2.323252  0
O  O200  1  0.06924401  0.81065252  0.42585978  1  -1.19509  0  -0.314807  -0.528515  0  2.36405  0
O  O201  1  0.82183288  0.28300215  0.05779274  1  -1.164823  0  -0.308131  -0.54543  0  2.371904  0
O  O202  1  0.10991129  0.64363181  0.15823774  1  -1.188648  0  -0.308515  -0.565156  0  2.467811  0
O  O203  1  0.97856531  0.59130541  0.06682785  1  -1.169154  0  -0.314956  -0.559011  0  2.364  0
O  O204  1  0.69895208  0.31193561  0.97822259  1  -1.16822  0  -0.317834  -0.557456  0  2.350535  0
O  O205  1  0.37727256  0.26428062  0.31095296  1  -1.16097  0  -0.336296  -0.563887  0  2.286756  0
O  O206  1  0.31592715  0.11380122  0.27909662  1  -1.173706  0  -0.306572  -0.538709  0  2.171985  0
O  O207  1  0.24824156  0.84961144  0.09204368  1  -1.17799  0  -0.313431  -0.554335  0  2.380359  0
O  O208  1  0.07019587  0.82409696  0.04741816  1  -1.166415  0  -0.317693  -0.556903  0  2.323036  0
O  O209  1  0.93075698  0.68934413  0.92585940  1  -1.194996  0  -0.314782  -0.52849  0  2.364005  0
O  O210  1  0.82183877  0.78300408  0.44221112  1  -1.164734  0  -0.308091  -0.545365  0  2.371892  0
O  O211  1  0.10990070  0.14364209  0.34176885  1  -1.188574  0  -0.308662  -0.565282  0  2.467726  0
O  O212  1  0.97855713  0.09130579  0.43317110  1  -1.168927  0  -0.314932  -0.559  0  2.364044  0
O  O213  1  0.69895848  0.81194156  0.52177930  1  -1.16824  0  -0.317793  -0.557344  0  2.350632  0
O  O214  1  0.37727296  0.76427436  0.18904538  1  -1.16084  0  -0.336441  -0.564081  0  2.286629  0
O  O215  1  0.31592323  0.61380312  0.22090698  1  -1.173798  0  -0.306523  -0.538721  0  2.1723  0
O  O216  1  0.24824896  0.34960917  0.40796024  1  -1.178189  0  -0.313414  -0.554384  0  2.380501  0
O  O217  1  0.07019023  0.32408903  0.45257494  1  -1.166444  0  -0.31771  -0.557039  0  2.322904  0
O  O218  1  0.93075897  0.18934560  0.57413849  1  -1.194977  0  -0.314687  -0.528364  0  2.364092  0
O  O219  1  0.17816170  0.71698977  0.94220775  1  -1.164825  0  -0.308129  -0.545411  0  2.371999  0
O  O220  1  0.89008947  0.35636493  0.84176552  1  -1.188569  0  -0.308604  -0.56523  0  2.46773  0
O  O221  1  0.02144728  0.40868584  0.93316544  1  -1.169147  0  -0.315014  -0.559  0  2.364076  0
O  O222  1  0.30104513  0.68806732  0.02177846  1  -1.168157  0  -0.317859  -0.55749  0  2.350449  0
O  O223  1  0.62273721  0.73572714  0.68905362  1  -1.165473  0  -0.336327  -0.563942  0  2.286873  0
O  O224  1  0.68407637  0.88621203  0.72090221  1  -1.173347  0  -0.306531  -0.538801  0  2.171636  0
O  O225  1  0.75174880  0.15039216  0.90796511  1  -1.178182  0  -0.313471  -0.554453  0  2.380521  0
O  O226  1  0.92980834  0.17590735  0.95257680  1  -1.166447  0  -0.317719  -0.557007  0  2.322961  0
O  O227  1  0.06923676  0.31065466  0.07414385  1  -1.195001  0  -0.314808  -0.528557  0  2.364206  0
