# generated using pymatgen
data_SmH5C10O9
_symmetry_space_group_name_H-M   'P 1'
_cell_length_a   6.28602238
_cell_length_b   9.29669898
_cell_length_c   9.66258763
_cell_angle_alpha   87.93732202
_cell_angle_beta   73.86924837
_cell_angle_gamma   76.94935859
_symmetry_Int_Tables_number   1
_chemical_formula_structural   SmH5C10O9
_chemical_formula_sum   'Sm2 H10 C20 O18'
_cell_volume   528.21662715
_cell_formula_units_Z   2
loop_
 _symmetry_equiv_pos_site_id
 _symmetry_equiv_pos_as_xyz
  1  'x, y, z'
loop_
 _atom_site_type_symbol
 _atom_site_label
 _atom_site_symmetry_multiplicity
 _atom_site_fract_x
 _atom_site_fract_y
 _atom_site_fract_z
 _atom_site_occupancy
 _atom_site_hle17_bader_spin_density
 _atom_site_hle17_ddec_charge
 _atom_site_hle17_ddec_spin_density
 _atom_site_hle17_ddec_sum_bond_order
 _atom_site_hle17_magmom
 _atom_site_hse06_10hf_bader_spin_density
 _atom_site_hse06_10hf_ddec_charge
 _atom_site_hse06_10hf_ddec_spin_density
 _atom_site_hse06_10hf_ddec_sum_bond_order
 _atom_site_hse06_10hf_magmom
 _atom_site_hse06_bader_spin_density
 _atom_site_hse06_ddec_charge
 _atom_site_hse06_ddec_spin_density
 _atom_site_hse06_ddec_sum_bond_order
 _atom_site_hse06_magmom
 _atom_site_pbe_bader_spin_density
 _atom_site_pbe_cm5_charge
 _atom_site_pbe_ddec_charge
 _atom_site_pbe_ddec_spin_density
 _atom_site_pbe_ddec_sum_bond_order
 _atom_site_pbe_magmom
Sm  Sm0  1  0.14993616  0.05818409  0.77938251  1  0  2.324326  0  1.591714  0  0  2.2332  0  1.937166  0  0  2.277684  0  1.894689  0  0  1.519957  2.139469  0  2.083894  0
Sm  Sm1  1  0.85006828  0.94181726  0.22061667  1  0  2.324275  0  1.591746  0  0  2.233166  0  1.937202  0  0  2.277638  0  1.894733  0  0  1.519948  2.139432  0  2.083934  0
H  H2  1  0.20536058  0.56544533  0.86960663  1  0  0.118842  0  0.923521  0  0  0.132264  0  0.976139  0  0  0.135887  0  0.974404  0  0  0.118637  0.129511  0  0.97789  0
H  H3  1  0.79463635  0.43455380  0.13039193  1  0  0.118904  0  0.923451  0  0  0.132319  0  0.976062  0  0  0.135944  0  0.974334  0  0  0.11866  0.129566  0  0.977815  0
H  H4  1  0.68311681  0.65919882  0.60650004  1  0  0.126825  0  0.939617  0  0  0.135604  0  0.999124  0  0  0.140186  0  0.995609  0  0  0.116749  0.131853  0  1.002915  0
H  H5  1  0.31688305  0.34080141  0.39350001  1  0  0.126814  0  0.939605  0  0  0.135586  0  0.99913  0  0  0.140169  0  0.995612  0  0  0.116738  0.131835  0  1.002921  0
H  H6  1  0.73149061  0.92722044  0.88316649  1  0  0.457491  0  0.834544  0  0  0.425735  0  0.899103  0  0  0.435393  0  0.885026  0  0  0.313996  0.418805  0  0.909018  0
H  H7  1  0.26851001  0.07277759  0.11683246  1  0  0.457527  0  0.834493  0  0  0.425763  0  0.899059  0  0  0.435421  0  0.884982  0  0  0.313992  0.418836  0  0.90897  0
H  H8  1  0.01982420  0.42355899  0.75946817  1  0  0.423848  0  0.869746  0  0  0.392314  0  0.945694  0  0  0.404909  0  0.927805  0  0  0.317675  0.383607  0  0.957905  0
H  H9  1  0.98017235  0.57644124  0.24053249  1  0  0.423853  0  0.869737  0  0  0.392323  0  0.945679  0  0  0.404918  0  0.927789  0  0  0.31768  0.383618  0  0.957887  0
H  H10  1  0.76386661  0.94167832  0.71663050  1  0  0.470719  0  0.78175  0  0  0.449629  0  0.83568  0  0  0.458368  0  0.822881  0  0  0.337589  0.442849  0  0.8456  0
H  H11  1  0.23613081  0.05832412  0.28336786  1  0  0.470755  0  0.781703  0  0  0.449668  0  0.835622  0  0  0.458408  0  0.822823  0  0  0.337618  0.442894  0  0.845534  0
C  C12  1  0.40395642  0.38965274  0.96201814  1  0  -0.054551  0  3.702465  0  0  -0.041942  0  3.940489  0  0  -0.046767  0  3.959206  0  0  -0.002036  -0.040142  0  3.930084  0
C  C13  1  0.59604016  0.61034748  0.03798562  1  0  -0.054608  0  3.70263  0  0  -0.042009  0  3.940647  0  0  -0.046832  0  3.959362  0  0  -0.002098  -0.040209  0  3.930242  0
C  C14  1  0.33431574  0.53680405  0.92754471  1  0  -0.064926  0  3.671309  0  0  -0.102823  0  3.929471  0  0  -0.102724  0  3.947333  0  0  -0.068289  -0.102364  0  3.919874  0
C  C15  1  0.66568209  0.46319728  0.07245672  1  0  -0.064947  0  3.671335  0  0  -0.102822  0  3.929485  0  0  -0.102732  0  3.947354  0  0  -0.068291  -0.102368  0  3.919892  0
C  C16  1  0.57151837  0.35302386  0.03586495  1  0  -0.027407  0  3.680503  0  0  -0.015746  0  3.919398  0  0  -0.017974  0  3.936344  0  0  0.00963  -0.015936  0  3.909501  0
C  C17  1  0.42847948  0.64697746  0.96413854  1  0  -0.027366  0  3.680548  0  0  -0.01573  0  3.919395  0  0  -0.017958  0  3.936337  0  0  0.00963  -0.015923  0  3.909498  0
C  C18  1  0.30153150  0.27646051  0.91623178  1  0  0.677926  0  3.873421  0  0  0.624912  0  4.17144  0  0  0.659028  0  4.161958  0  0  0.217546  0.60271  0  4.171811  0
C  C19  1  0.69846507  0.72353971  0.08377095  1  0  0.677895  0  3.87353  0  0  0.624902  0  4.171532  0  0  0.659018  0  4.162046  0  0  0.217538  0.602697  0  4.171906  0
C  C20  1  0.65643219  0.20200086  0.08475007  1  0  0.70163  0  3.888415  0  0  0.649529  0  4.194824  0  0  0.684897  0  4.182039  0  0  0.222054  0.627587  0  4.193178  0
C  C21  1  0.34356563  0.79800047  0.91525136  1  0  0.701533  0  3.888606  0  0  0.649588  0  4.194762  0  0  0.684958  0  4.181976  0  0  0.222084  0.627648  0  4.193113  0
C  C22  1  0.60336561  0.59000800  0.55785717  1  0  -0.073055  0  3.666401  0  0  -0.112987  0  3.92957  0  0  -0.112614  0  3.946856  0  0  -0.073013  -0.112792  0  3.919301  0
C  C23  1  0.39663882  0.40999335  0.44213994  1  0  -0.073053  0  3.666467  0  0  -0.112974  0  3.929628  0  0  -0.112599  0  3.946913  0  0  -0.072998  -0.112784  0  3.919361  0
C  C24  1  0.66324382  0.43607970  0.57065475  1  0  -0.073938  0  3.710299  0  0  -0.063503  0  3.951754  0  0  -0.070056  0  3.972924  0  0  -0.005374  -0.059088  0  3.93965  0
C  C25  1  0.33675440  0.56392052  0.42934664  1  0  -0.074013  0  3.710336  0  0  -0.063584  0  3.951789  0  0  -0.070139  0  3.972962  0  0  -0.00544  -0.059168  0  3.939681  0
C  C26  1  0.44114546  0.65670763  0.48794060  1  0  -0.031623  0  3.630815  0  0  -0.02057  0  3.867855  0  0  -0.022147  0  3.885036  0  0  0.009484  -0.021151  0  3.858263  0
C  C27  1  0.55885566  0.34329372  0.51205712  1  0  -0.031685  0  3.630946  0  0  -0.020647  0  3.867976  0  0  -0.022222  0  3.885155  0  0  0.009445  -0.021231  0  3.858391  0
C  C28  1  0.83523355  0.37411242  0.64843839  1  0  0.691059  0  3.764676  0  0  0.641284  0  4.065057  0  0  0.675063  0  4.055458  0  0  0.251408  0.617514  0  4.070417  0
C  C29  1  0.16476427  0.62588892  0.35156200  1  0  0.691149  0  3.764604  0  0  0.641382  0  4.06497  0  0  0.675163  0  4.055367  0  0  0.251462  0.617612  0  4.07033  0
C  C30  1  0.39206967  0.82427803  0.47879795  1  0  0.762074  0  3.835288  0  0  0.714961  0  4.132459  0  0  0.750783  0  4.118148  0  0  0.250636  0.689997  0  4.139263  0
C  C31  1  0.60793514  0.17572222  0.52119913  1  0  0.761969  0  3.835501  0  0  0.714894  0  4.132605  0  0  0.750712  0  4.118305  0  0  0.25061  0.689922  0  4.139418  0
O  O32  1  0.36485324  0.14076599  0.94174987  1  0  -0.662968  0  2.033615  0  0  -0.608048  0  2.265691  0  0  -0.631286  0  2.256303  0  0  -0.327304  -0.58729  0  2.271516  0
O  O33  1  0.63514575  0.85923202  0.05825145  1  0  -0.662908  0  2.033571  0  0  -0.608061  0  2.265725  0  0  -0.631302  0  2.256341  0  0  -0.327301  -0.587302  0  2.271552  0
O  O34  1  0.83879553  0.94524038  0.79170297  1  0  -0.915628  0  1.872217  0  0  -0.879685  0  2.074219  0  0  -0.896469  0  2.043031  0  0  -0.650257  -0.860098  0  2.10078  0
O  O35  1  0.16120063  0.05476096  0.20829669  1  0  -0.915686  0  1.872131  0  0  -0.879735  0  2.074129  0  0  -0.896514  0  2.04294  0  0  -0.650278  -0.860154  0  2.100686  0
O  O36  1  0.15056470  0.31653972  0.84819359  1  0  -0.737539  0  2.147167  0  0  -0.686706  0  2.395741  0  0  -0.7135  0  2.386861  0  0  -0.365151  -0.662796  0  2.401093  0
O  O37  1  0.84943429  0.68345829  0.15180773  1  0  -0.737541  0  2.147242  0  0  -0.686694  0  2.395794  0  0  -0.713489  0  2.386913  0  0  -0.365153  -0.662782  0  2.401145  0
O  O38  1  0.54643448  0.15773417  0.20235341  1  0  -0.673455  0  2.013731  0  0  -0.631407  0  2.255893  0  0  -0.655606  0  2.24587  0  0  -0.354719  -0.608658  0  2.262428  0
O  O39  1  0.45357074  0.84226496  0.79764570  1  0  -0.673425  0  2.013757  0  0  -0.631432  0  2.255847  0  0  -0.655624  0  2.245797  0  0  -0.354724  -0.608685  0  2.262383  0
O  O40  1  0.85254894  0.12709582  0.01525214  1  0  -0.785937  0  2.11404  0  0  -0.745054  0  2.378578  0  0  -0.769958  0  2.367074  0  0  -0.407395  -0.713859  0  2.384083  0
O  O41  1  0.14745092  0.87290441  0.98474791  1  0  -0.785905  0  2.114173  0  0  -0.745066  0  2.378623  0  0  -0.769978  0  2.367127  0  0  -0.4074  -0.713875  0  2.38413  0
O  O42  1  0.91240053  0.47478756  0.70170824  1  0  -0.538408  0  2.084973  0  0  -0.486577  0  2.297481  0  0  -0.509453  0  2.282585  0  0  -0.312317  -0.47079  0  2.308381  0
O  O43  1  0.08760049  0.52520936  0.29829171  1  0  -0.538442  0  2.084913  0  0  -0.486614  0  2.297421  0  0  -0.50949  0  2.282523  0  0  -0.312331  -0.470827  0  2.308321  0
O  O44  1  0.89958190  0.23868949  0.66259237  1  0  -0.649302  0  2.011573  0  0  -0.613988  0  2.259803  0  0  -0.633563  0  2.247906  0  0  -0.330473  -0.592647  0  2.270635  0
O  O45  1  0.10042128  0.76131075  0.33740812  1  0  -0.649305  0  2.011529  0  0  -0.614022  0  2.259805  0  0  -0.633595  0  2.247906  0  0  -0.330472  -0.592681  0  2.270634  0
O  O46  1  0.52693004  0.87816371  0.37868142  1  0  -0.752201  0  2.047632  0  0  -0.715817  0  2.308869  0  0  -0.740961  0  2.295855  0  0  -0.400125  -0.688446  0  2.321172  0
O  O47  1  0.47307479  0.12183653  0.62131773  1  0  -0.752168  0  2.047685  0  0  -0.715789  0  2.308884  0  0  -0.740932  0  2.295871  0  0  -0.400113  -0.688414  0  2.32119  0
O  O48  1  0.22789431  0.89863687  0.57448690  1  0  -0.713757  0  2.006997  0  0  -0.674532  0  2.255074  0  0  -0.699072  0  2.241607  0  0  -0.388875  -0.647791  0  2.266849  0
O  O49  1  0.77211014  0.10136446  0.42551435  1  0  -0.713664  0  2.00707  0  0  -0.674459  0  2.255135  0  0  -0.698995  0  2.241675  0  0  -0.388842  -0.647712  0  2.26691  0
