# generated using pymatgen
data_NiH20C18(N2O3)2
_symmetry_space_group_name_H-M   'P 1'
_cell_length_a   7.42963180
_cell_length_b   8.55916271
_cell_length_c   8.79379504
_cell_angle_alpha   97.07515582
_cell_angle_beta   115.44313287
_cell_angle_gamma   108.88827557
_symmetry_Int_Tables_number   1
_chemical_formula_structural   NiH20C18(N2O3)2
_chemical_formula_sum   'Ni1 H20 C18 N4 O6'
_cell_volume   454.71790678
_cell_formula_units_Z   1
loop_
 _symmetry_equiv_pos_site_id
 _symmetry_equiv_pos_as_xyz
  1  'x, y, z'
loop_
 _atom_site_type_symbol
 _atom_site_label
 _atom_site_symmetry_multiplicity
 _atom_site_fract_x
 _atom_site_fract_y
 _atom_site_fract_z
 _atom_site_occupancy
 _atom_site_hle17_bader_spin_density
 _atom_site_hle17_ddec_charge
 _atom_site_hle17_ddec_spin_density
 _atom_site_hle17_ddec_sum_bond_order
 _atom_site_hle17_magmom
 _atom_site_hse06_10hf_bader_spin_density
 _atom_site_hse06_10hf_ddec_charge
 _atom_site_hse06_10hf_ddec_spin_density
 _atom_site_hse06_10hf_ddec_sum_bond_order
 _atom_site_hse06_10hf_magmom
 _atom_site_hse06_bader_spin_density
 _atom_site_hse06_ddec_charge
 _atom_site_hse06_ddec_spin_density
 _atom_site_hse06_ddec_sum_bond_order
 _atom_site_hse06_magmom
 _atom_site_pbe_bader_spin_density
 _atom_site_pbe_cm5_charge
 _atom_site_pbe_ddec_charge
 _atom_site_pbe_ddec_spin_density
 _atom_site_pbe_ddec_sum_bond_order
 _atom_site_pbe_magmom
Ni  Ni0  1  0.49999864  0.50000085  0.50000119  1  0  0.647817  0  2.209344  0  0  0.616296  0  2.663734  0  0  0.701976  0  2.579126  0  0  0.59222  0.566232  0  2.718634  0
H  H1  1  0.19972582  0.37282341  0.84749916  1  0  0.323588  0  0.893246  0  0  0.30511  0  0.952656  0  0  0.313301  0  0.946202  0  0  0.319879  0.299241  0  0.957404  0
H  H2  1  0.80027202  0.62717316  0.15250491  1  0  0.323519  0  0.893325  0  0  0.305163  0  0.952566  0  0  0.313341  0  0.946111  0  0  0.319874  0.299301  0  0.957312  0
H  H3  1  0.33283805  0.26672780  0.12154340  1  0  0.103217  0  0.92145  0  0  0.118115  0  0.975284  0  0  0.11977  0  0.972136  0  0  0.147488  0.116628  0  0.977832  0
H  H4  1  0.66716026  0.73327261  0.87846254  1  0  0.103355  0  0.921315  0  0  0.118189  0  0.975212  0  0  0.119844  0  0.972065  0  0  0.147494  0.116731  0  0.977724  0
H  H5  1  0.41853179  0.83585793  0.44167934  1  0  0.118407  0  0.973446  0  0  0.130166  0  1.031932  0  0  0.132586  0  1.031058  0  0  0.107186  0.128266  0  1.03292  0
H  H6  1  0.58146249  0.16414121  0.55831710  1  0  0.118447  0  0.973344  0  0  0.130163  0  1.031884  0  0  0.132582  0  1.031013  0  0  0.107171  0.128264  0  1.032872  0
H  H7  1  0.32996732  0.04212898  0.27368422  1  0  0.097687  0  0.979411  0  0  0.106359  0  1.045477  0  0  0.109585  0  1.043579  0  0  0.097376  0.104003  0  1.04689  0
H  H8  1  0.67003231  0.95786904  0.72631269  1  0  0.097687  0  0.979378  0  0  0.106364  0  1.045443  0  0  0.109588  0  1.043549  0  0  0.097379  0.104006  0  1.046863  0
H  H9  1  0.18862968  0.96235494  0.95039184  1  0  0.078237  0  0.966098  0  0  0.091871  0  1.025276  0  0  0.094148  0  1.025026  0  0  0.094771  0.090231  0  1.025527  0
H  H10  1  0.81137049  0.03764441  0.04960317  1  0  0.078219  0  0.966105  0  0  0.091874  0  1.025262  0  0  0.09415  0  1.025012  0  0  0.094769  0.090231  0  1.025515  0
H  H11  1  0.14499605  0.68178336  0.78639202  1  0  0.113813  0  0.983358  0  0  0.124608  0  1.041673  0  0  0.128043  0  1.039026  0  0  0.102152  0.121953  0  1.043874  0
H  H12  1  0.85500294  0.31821337  0.21360449  1  0  0.113824  0  0.98338  0  0  0.124595  0  1.041723  0  0  0.12803  0  1.039073  0  0  0.102141  0.121941  0  1.043919  0
H  H13  1  0.03144669  0.96818560  0.33846073  1  0  0.101634  0  0.946159  0  0  0.112751  0  1.012821  0  0  0.115222  0  1.011596  0  0  0.098292  0.110989  0  1.013725  0
H  H14  1  0.96855297  0.03181490  0.66154225  1  0  0.101597  0  0.94619  0  0  0.112721  0  1.012827  0  0  0.115206  0  1.011588  0  0  0.098286  0.110959  0  1.013733  0
H  H15  1  0.82625356  0.02942244  0.34498145  1  0  0.115426  0  0.913747  0  0  0.133213  0  0.967046  0  0  0.133942  0  0.968585  0  0  0.107537  0.132742  0  0.965978  0
H  H16  1  0.17374234  0.97057670  0.65501781  1  0  0.115434  0  0.913811  0  0  0.133221  0  0.967098  0  0  0.133949  0  0.96864  0  0  0.107539  0.13275  0  0.966034  0
H  H17  1  0.86200707  0.32975214  0.49511891  1  0  0.395278  0  0.906728  0  0  0.370759  0  0.967617  0  0  0.380562  0  0.95326  0  0  0.281786  0.363976  0  0.977565  0
H  H18  1  0.13799190  0.67024707  0.50488252  1  0  0.395306  0  0.906756  0  0  0.370783  0  0.967601  0  0  0.380587  0  0.953241  0  0  0.281787  0.363998  0  0.977552  0
H  H19  1  0.76704612  0.44970998  0.39847797  1  0  0.386968  0  0.934461  0  0  0.352578  0  1.008022  0  0  0.363514  0  0.991449  0  0  0.273249  0.344677  0  1.020015  0
H  H20  1  0.23294988  0.55028913  0.60152359  1  0  0.387034  0  0.934347  0  0  0.352646  0  1.007923  0  0  0.363584  0  0.991349  0  0  0.27328  0.344752  0  1.019906  0
C  C21  1  0.31627817  0.38779574  0.11997931  1  0  0.266344  0  3.616122  0  0  0.203714  0  3.894736  0  0  0.225629  0  3.902408  0  0  0.169919  0.189253  0  3.889913  0
C  C22  1  0.68371853  0.61220465  0.88002381  1  0  0.266146  0  3.61602  0  0  0.203564  0  3.89464  0  0  0.225452  0  3.902309  0  0  0.169886  0.189095  0  3.889815  0
C  C23  1  0.36017944  0.80441365  0.30053713  1  0  -0.143866  0  3.733916  0  0  -0.164939  0  3.982707  0  0  -0.167502  0  4.002663  0  0  -0.098877  -0.163404  0  3.969695  0
C  C24  1  0.63982519  0.19558833  0.69946316  1  0  -0.143881  0  3.734062  0  0  -0.16491  0  3.98288  0  0  -0.167473  0  4.002835  0  0  -0.098887  -0.163376  0  3.969871  0
C  C25  1  0.30796222  0.91661461  0.20496377  1  0  -0.091766  0  3.795688  0  0  -0.108484  0  4.054528  0  0  -0.11078  0  4.076597  0  0  -0.105531  -0.106933  0  4.039735  0
C  C26  1  0.69204052  0.08338993  0.79503286  1  0  -0.091785  0  3.795948  0  0  -0.108508  0  4.054789  0  0  -0.110805  0  4.076865  0  0  -0.10551  -0.106958  0  4.040001  0
C  C27  1  0.22922951  0.87193055  0.02140456  1  0  -0.074976  0  3.803434  0  0  -0.092409  0  4.060687  0  0  -0.095175  0  4.084328  0  0  -0.101884  -0.090551  0  4.044708  0
C  C28  1  0.77077692  0.12806641  0.97859217  1  0  -0.074973  0  3.803372  0  0  -0.092416  0  4.060624  0  0  -0.095182  0  4.084266  0  0  -0.10193  -0.090556  0  4.044647  0
C  C29  1  0.20020915  0.71441956  0.92707078  1  0  -0.140546  0  3.746208  0  0  -0.159539  0  3.994218  0  0  -0.162234  0  4.014542  0  0  -0.098026  -0.157609  0  3.980587  0
C  C30  1  0.79979909  0.28558381  0.07292977  1  0  -0.140495  0  3.74623  0  0  -0.15951  0  3.994226  0  0  -0.162203  0  4.01455  0  0  -0.09793  -0.157581  0  3.980593  0
C  C31  1  0.25383091  0.60254932  0.02319982  1  0  0.146952  0  3.78579  0  0  0.139739  0  4.029424  0  0  0.142919  0  4.052281  0  0  0.090988  0.137648  0  4.013871  0
C  C32  1  0.74618261  0.39745544  0.97680497  1  0  0.146946  0  3.786  0  0  0.139831  0  4.029533  0  0  0.142985  0  4.052386  0  0  0.090982  0.137756  0  4.01398  0
C  C33  1  0.33245672  0.64549473  0.20745038  1  0  0.127746  0  3.79246  0  0  0.127595  0  4.037233  0  0  0.13211  0  4.061289  0  0  0.083782  0.124728  0  4.021446  0
C  C34  1  0.66755169  0.35450611  0.79254873  1  0  0.127707  0  3.792437  0  0  0.127486  0  4.037242  0  0  0.132  0  4.061307  0  0  0.083764  0.124619  0  4.021449  0
C  C35  1  0.14909720  0.22973062  0.49534805  1  0  0.697129  0  3.783084  0  0  0.653494  0  4.084369  0  0  0.691013  0  4.07731  0  0  0.22626  0.627561  0  4.088777  0
C  C36  1  0.85089707  0.77027101  0.50465331  1  0  0.697055  0  3.783232  0  0  0.653493  0  4.084401  0  0  0.69099  0  4.077369  0  0  0.226169  0.627556  0  4.088813  0
C  C37  1  0.99371459  0.03883906  0.42482180  1  0  -0.239919  0  3.659972  0  0  -0.28305  0  3.913773  0  0  -0.289211  0  3.921959  0  0  -0.162039  -0.278414  0  3.907733  0
C  C38  1  0.00628410  0.96116273  0.57517877  1  0  -0.239921  0  3.660058  0  0  -0.283044  0  3.913793  0  0  -0.289209  0  3.921977  0  0  -0.162023  -0.278409  0  3.907759  0
N  N39  1  0.24610648  0.43921138  0.97345973  1  0  -0.33704  0  3.390215  0  0  -0.279089  0  3.632513  0  0  -0.296562  0  3.643684  0  0  -0.373609  -0.267397  0  3.624871  0
N  N40  1  0.75389650  0.56078414  0.02654020  1  0  -0.336943  0  3.390285  0  0  -0.279096  0  3.632465  0  0  -0.296495  0  3.643574  0  0  -0.373619  -0.267459  0  3.624884  0
N  N41  1  0.36962499  0.50736493  0.26309608  1  0  -0.35277  0  3.31793  0  0  -0.309264  0  3.625527  0  0  -0.341626  0  3.638283  0  0  -0.359281  -0.290185  0  3.618503  0
N  N42  1  0.63037678  0.49263692  0.73690666  1  0  -0.352717  0  3.317872  0  0  -0.309192  0  3.625447  0  0  -0.341562  0  3.638225  0  0  -0.359256  -0.290098  0  3.618408  0
O  O43  1  0.27160577  0.27427036  0.42609625  1  0  -0.534758  0  2.126538  0  0  -0.500551  0  2.418333  0  0  -0.5453  0  2.409805  0  0  -0.283604  -0.47061  0  2.423594  0
O  O44  1  0.72839131  0.72573142  0.57390150  1  0  -0.534737  0  2.126584  0  0  -0.500551  0  2.418349  0  0  -0.545292  0  2.409829  0  0  -0.283615  -0.470613  0  2.423614  0
O  O45  1  0.14632173  0.33170476  0.61119249  1  0  -0.656603  0  2.016168  0  0  -0.592189  0  2.229876  0  0  -0.619427  0  2.220503  0  0  -0.309401  -0.573294  0  2.236172  0
O  O46  1  0.85367173  0.66829562  0.38880500  1  0  -0.656603  0  2.016236  0  0  -0.592245  0  2.22989  0  0  -0.619483  0  2.220537  0  0  -0.309355  -0.573335  0  2.23618  0
O  O47  1  0.72672590  0.32883033  0.40262413  1  0  -0.824071  0  1.830455  0  0  -0.788679  0  2.005565  0  0  -0.805493  0  1.973323  0  0  -0.604496  -0.776593  0  2.028037  0
O  O48  1  0.27327264  0.67117150  0.59737299  1  0  -0.824154  0  1.830352  0  0  -0.788795  0  2.005473  0  0  -0.805599  0  1.973198  0  0  -0.604532  -0.776711  0  2.027948  0
