# generated using pymatgen
data_CoH8(C5N4)2
_symmetry_space_group_name_H-M   'P 1'
_cell_length_a   7.13286655
_cell_length_b   8.81235821
_cell_length_c   9.92998895
_cell_angle_alpha   111.02923415
_cell_angle_beta   101.97307913
_cell_angle_gamma   101.46743680
_symmetry_Int_Tables_number   1
_chemical_formula_structural   CoH8(C5N4)2
_chemical_formula_sum   'Co2 H16 C20 N16'
_cell_volume   543.80786406
_cell_formula_units_Z   2
loop_
 _symmetry_equiv_pos_site_id
 _symmetry_equiv_pos_as_xyz
  1  'x, y, z'
loop_
 _atom_site_type_symbol
 _atom_site_label
 _atom_site_symmetry_multiplicity
 _atom_site_fract_x
 _atom_site_fract_y
 _atom_site_fract_z
 _atom_site_occupancy
 _atom_site_hle17_ddec_charge
 _atom_site_hle17_ddec_spin_density
 _atom_site_hle17_ddec_sum_bond_order
 _atom_site_hle17_magmom
 _atom_site_hse06_10hf_ddec_charge
 _atom_site_hse06_10hf_ddec_spin_density
 _atom_site_hse06_10hf_ddec_sum_bond_order
 _atom_site_hse06_10hf_magmom
 _atom_site_hse06_ddec_charge
 _atom_site_hse06_ddec_spin_density
 _atom_site_hse06_ddec_sum_bond_order
 _atom_site_hse06_magmom
 _atom_site_pbe_cm5_charge
 _atom_site_pbe_ddec_charge
 _atom_site_pbe_ddec_spin_density
 _atom_site_pbe_ddec_sum_bond_order
 _atom_site_pbe_magmom
Co  Co0  1  0.12076928  0.38951342  0.39166836  1  0.60905  -1.552357  2.76752  -1.233  0.603294  -1.080277  3.211307  -0.918  0.658793  -1.091184  3.146823  -0.941  0.714481  0.572517  -1.020488  3.250291  -0.855
Co  Co1  1  0.87922733  0.61049723  0.60833393  1  0.609207  1.552349  2.767627  1.233  0.603362  1.080265  3.211475  0.918  0.658968  1.091174  3.146913  0.941  0.714508  0.572542  1.020451  3.25052  0.855
H  H2  1  0.94757239  0.20476122  0.55702576  1  0.08097  -0.00074  0.97296  -0.001  0.087057  -0.000239  1.042684  0.0  0.089583  -0.000224  1.040277  0.0  0.117716  0.085678  -0.000249  1.04338  0.0
H  H3  1  0.05242182  0.79524307  0.44297410  1  0.080966  0.00074  0.97299  0.001  0.087034  0.000239  1.042738  0.0  0.089561  0.000224  1.040332  0.0  0.117711  0.085656  0.00025  1.043432  0.0
H  H4  1  0.68801846  0.92439707  0.47626332  1  0.104153  7.2e-05  0.979198  0.0  0.113533  -8.8e-05  1.042239  0.0  0.116864  -9.1e-05  1.041731  0.0  0.104437  0.110434  -7.9e-05  1.043941  0.0
H  H5  1  0.31197378  0.07560976  0.52374310  1  0.104115  -7.3e-05  0.979237  0.0  0.11352  8.8e-05  1.042263  0.0  0.116842  9.1e-05  1.041767  0.0  0.104401  0.110415  7.9e-05  1.043962  0.0
H  H6  1  0.50539227  0.75143189  0.19661191  1  0.097721  -0.000593  0.940964  -0.001  0.109854  -2.9e-05  0.999621  0.0  0.113471  -3.8e-05  0.995669  0.0  0.108261  0.106824  -8e-06  1.003126  0.0
H  H7  1  0.49461558  0.24856691  0.80339633  1  0.097767  0.000592  0.940897  0.001  0.109892  2.9e-05  0.999572  0.0  0.113501  3.8e-05  0.995627  0.0  0.108283  0.10686  8e-06  1.003079  0.0
H  H8  1  0.59360167  0.86203904  0.01411311  1  0.111424  0.000243  0.979426  0.001  0.118109  0.000176  1.048336  0.0  0.121974  0.000175  1.046672  0.0  0.105791  0.114995  0.000163  1.050183  0.0
H  H9  1  0.40639945  0.13794961  0.98589384  1  0.111388  -0.000243  0.9794  -0.001  0.118035  -0.000176  1.048348  0.0  0.121898  -0.000175  1.046691  0.0  0.105803  0.114923  -0.000163  1.05019  0.0
H  H10  1  0.70088017  0.97919745  0.87319359  1  0.113158  0.000106  0.959128  0.001  0.120355  -0.000109  1.025637  0.0  0.123888  -0.000113  1.024949  0.0  0.108113  0.118052  -9.6e-05  1.026149  0.0
H  H11  1  0.29912778  0.02080144  0.12680664  1  0.113128  -0.000103  0.95912  -0.001  0.120306  0.000109  1.025648  0.0  0.123838  0.000113  1.024961  0.0  0.108068  0.117994  9.6e-05  1.026159  0.0
H  H12  1  0.85877780  0.12850165  0.73751430  1  0.094679  -0.000533  0.94594  -0.001  0.107642  -1.3e-05  1.005001  0.0  0.110609  -5.4e-05  1.00213  0.0  0.107589  0.105961  4.1e-05  1.006252  0.0
H  H13  1  0.14122733  0.87149348  0.26248126  1  0.094689  0.000532  0.945941  0.001  0.107651  1.3e-05  1.004998  0.0  0.110615  5.4e-05  1.002129  0.0  0.107571  0.105966  -4.1e-05  1.006245  0.0
H  H14  1  0.15452588  0.39706695  0.89100378  1  0.10611  -1.7e-05  0.966232  0.0  0.115004  -6.7e-05  1.026846  0.0  0.11836  -4.1e-05  1.026569  0.0  0.107448  0.112739  -0.000111  1.026776  0.0
H  H15  1  0.84546503  0.60293230  0.10899093  1  0.106139  1.8e-05  0.966185  0.0  0.115016  6.7e-05  1.02684  0.0  0.118372  4.1e-05  1.026565  0.0  0.107438  0.112755  0.000111  1.026759  0.0
H  H16  1  0.26583773  0.50335856  0.17191263  1  0.078696  -0.000724  0.977075  -0.001  0.083253  -0.000193  1.049934  0.0  0.086642  -0.000152  1.045915  0.0  0.115686  0.080567  -0.000231  1.05323  0.0
H  H17  1  0.73415515  0.49664199  0.82807776  1  0.078606  0.000723  0.977133  0.001  0.083194  0.000193  1.049975  0.0  0.086584  0.000152  1.045955  0.0  0.115654  0.080513  0.000232  1.053272  0.0
C  C18  1  0.86468569  0.12400252  0.43865114  1  0.123533  0.01668  3.688429  0.02  0.09285  0.004381  3.943499  0.005  0.105321  0.003066  3.955467  0.004  0.044321  0.083542  0.004846  3.937055  0.006
C  C19  1  0.13531135  0.87600169  0.56135114  1  0.123581  -0.016678  3.688414  -0.02  0.0929  -0.00438  3.943441  -0.005  0.105363  -0.003068  3.955409  -0.004  0.044331  0.083594  -0.004846  3.936998  -0.006
C  C20  1  0.71859006  0.96972143  0.39201405  1  -0.120923  -0.00799  3.724049  -0.01  -0.132558  -0.000921  3.971343  -0.001  -0.138175  -0.001124  3.986109  -0.001  -0.087371  -0.130122  -0.000404  3.964817  -0.001
C  C21  1  0.28140457  0.03028408  0.60799131  1  -0.120863  0.007986  3.724096  0.01  -0.132535  0.00092  3.971365  0.001  -0.138147  0.001124  3.986136  0.001  -0.087333  -0.130089  0.000406  3.964828  0.001
C  C22  1  0.61798169  0.87438127  0.23767861  1  -0.005744  0.020576  3.716257  0.023  -0.022441  0.005635  3.96236  0.006  -0.013405  0.003411  3.97296  0.004  -0.07159  -0.029757  0.007234  3.957808  0.008
C  C23  1  0.38202335  0.12561762  0.76232621  1  -0.005813  -0.02057  3.716256  -0.023  -0.022492  -0.005634  3.962352  -0.006  -0.013447  -0.003412  3.972951  -0.004  -0.071597  -0.029801  -0.007233  3.957796  -0.008
C  C24  1  0.66709263  0.93693610  0.13513342  1  -0.13723  -0.009151  3.715861  -0.012  -0.155297  -0.001268  3.960206  -0.002  -0.162821  -0.001121  3.978218  -0.002  -0.078755  -0.150552  -0.001142  3.949948  -0.002
C  C25  1  0.33291239  0.06305894  0.86487016  1  -0.137194  0.009148  3.715981  0.012  -0.15525  0.001267  3.960388  0.002  -0.162777  0.001122  3.978398  0.002  -0.078802  -0.150502  0.001142  3.950129  0.002
C  C26  1  0.81714733  0.09125254  0.18873285  1  0.159443  0.015229  3.749475  0.017  0.156474  0.004485  3.990306  0.005  0.166041  0.002812  4.006164  0.003  0.111868  0.149176  0.00562  3.980808  0.006
C  C27  1  0.18285633  0.90874259  0.81126550  1  0.159512  -0.015227  3.749457  -0.017  0.156501  -0.004485  3.990282  -0.005  0.166067  -0.002814  4.00614  -0.003  0.111917  0.149204  -0.005619  3.980794  -0.006
C  C28  1  0.89410354  0.16571864  0.09452301  1  0.159904  0.016323  3.749813  0.018  0.154645  0.00475  3.994242  0.005  0.164776  0.002964  4.010046  0.004  0.110741  0.148094  0.005451  3.983972  0.006
C  C29  1  0.10590059  0.83427391  0.90547459  1  0.159911  -0.016291  3.749931  -0.018  0.154663  -0.004746  3.994304  -0.005  0.164794  -0.002964  4.010112  -0.004  0.110731  0.148111  -0.005448  3.98404  -0.006
C  C30  1  0.82329822  0.09744538  0.93669094  1  -0.130018  -0.009506  3.705858  -0.012  -0.148904  -0.001418  3.956379  -0.002  -0.156139  -0.001311  3.97359  -0.002  -0.077769  -0.145614  -0.001147  3.946324  -0.002
C  C31  1  0.17671453  0.90255091  0.06330415  1  -0.129997  0.009463  3.705758  0.012  -0.148915  0.001418  3.956368  0.002  -0.15615  0.001314  3.973575  0.002  -0.07772  -0.145615  0.001147  3.946311  0.002
C  C32  1  0.91333055  0.18079173  0.86062639  1  -0.011095  0.021234  3.721641  0.024  -0.031169  0.005977  3.97349  0.007  -0.022389  0.003544  3.985531  0.004  -0.072977  -0.037522  0.007275  3.966108  0.008
C  C33  1  0.08667695  0.81920591  0.13937136  1  -0.011071  -0.021199  3.721648  -0.024  -0.031152  -0.005979  3.973476  -0.007  -0.022371  -0.003547  3.98552  -0.004  -0.07293  -0.037501  -0.007274  3.966083  -0.008
C  C34  1  0.07485375  0.32868084  0.94432774  1  -0.113585  -0.008259  3.738695  -0.011  -0.122864  -0.000797  3.983351  -0.001  -0.130282  -0.001021  4.000742  -0.001  -0.081975  -0.117671  -0.000268  3.972236  -0.001
C  C35  1  0.92514620  0.67131954  0.05566772  1  -0.113608  0.008227  3.738717  0.011  -0.12288  0.000794  3.98338  0.001  -0.130299  0.00102  4.000774  0.001  -0.081947  -0.117683  0.000269  3.972265  0.001
C  C36  1  0.13984895  0.38960292  0.10116848  1  0.131045  0.016996  3.672353  0.019  0.101803  0.004541  3.923418  0.005  0.114428  0.003193  3.933944  0.004  0.048528  0.092389  0.00506  3.918015  0.005
C  C37  1  0.86014957  0.61039748  0.89882676  1  0.131082  -0.016967  3.672453  -0.019  0.101794  -0.004537  3.923508  -0.005  0.114417  -0.003192  3.934042  -0.004  0.048476  0.092382  -0.00506  3.918113  -0.005
N  N38  1  0.91449517  0.18444971  0.34003083  1  -0.268007  -0.004483  3.360165  -0.009  -0.213448  0.003489  3.627788  0.005  -0.235283  0.003031  3.640966  0.005  -0.330677  -0.201686  0.003432  3.62058  0.005
N  N39  1  0.08549758  0.81555073  0.65996958  1  -0.268174  0.00448  3.360357  0.009  -0.213543  -0.003487  3.627914  -0.005  -0.235386  -0.00303  3.641102  -0.005  -0.330732  -0.201779  -0.003428  3.620721  -0.005
N  N40  1  0.05154694  0.31164704  0.17608257  1  -0.275635  -0.00525  3.353884  -0.01  -0.222111  0.002394  3.624785  0.004  -0.24345  0.002355  3.636694  0.004  -0.332328  -0.210061  0.001932  3.617686  0.003
N  N41  1  0.94845295  0.68834945  0.82391464  1  -0.27563  0.00523  3.354008  0.01  -0.222058  -0.002393  3.624848  -0.004  -0.243419  -0.002354  3.636789  -0.004  -0.332287  -0.210005  -0.001929  3.617762  -0.003
N  N42  1  0.13698831  0.46634385  0.60333836  1  -0.470962  0.022347  2.914326  0.033  -0.499378  0.013882  3.263956  0.018  -0.53371  0.00905  3.273291  0.012  -0.292742  -0.477324  0.017699  3.257973  0.023
N  N43  1  0.86301361  0.53366934  0.39665952  1  -0.470921  -0.02235  2.914222  -0.033  -0.499338  -0.013884  3.263845  -0.018  -0.53368  -0.009051  3.273197  -0.012  -0.292701  -0.477283  -0.017696  3.257874  -0.023
N  N44  1  0.27913230  0.52948251  0.71655171  1  0.376468  -0.004909  4.14181  -0.01  0.420466  0.003376  4.451182  0.003  0.438665  0.001594  4.487555  0.001  0.089496  0.407878  0.00463  4.42605  0.004
N  N45  1  0.72086814  0.47052299  0.28344548  1  0.37634  0.004918  4.141899  0.01  0.420342  -0.003376  4.451292  -0.003  0.438541  -0.001594  4.487672  -0.001  0.089391  0.407754  -0.00463  4.426156  -0.004
N  N46  1  0.40411046  0.59024135  0.83388269  1  -0.366647  0.044199  2.378048  0.059  -0.382357  0.026587  2.618972  0.035  -0.401549  0.024712  2.635657  0.033  -0.178392  -0.366531  0.028663  2.605827  0.037
N  N47  1  0.59588319  0.40975392  0.16611820  1  -0.366532  -0.044203  2.378151  -0.059  -0.382233  -0.026581  2.619061  -0.035  -0.401422  -0.024705  2.635742  -0.033  -0.178295  -0.366401  -0.028657  2.605909  -0.037
N  N48  1  0.31887790  0.59450284  0.42529610  1  -0.420115  0.062763  2.805157  0.089  -0.450709  0.034322  3.127138  0.048  -0.483991  0.031851  3.14123  0.046  -0.265341  -0.425215  0.037437  3.114767  0.051
N  N49  1  0.68111437  0.40551552  0.57471507  1  -0.420171  -0.062743  2.805369  -0.089  -0.450778  -0.034321  3.127329  -0.048  -0.484073  -0.03185  3.141449  -0.046  -0.265341  -0.425283  -0.03743  3.114975  -0.051
N  N50  1  0.48203383  0.66392181  0.51608319  1  0.369094  -0.007371  4.134101  -0.016  0.423394  0.006991  4.431944  0.009  0.443037  0.005734  4.469908  0.008  0.08864  0.409288  0.007917  4.40304  0.01
N  N51  1  0.51796839  0.33608100  0.48392145  1  0.369127  0.007368  4.134257  0.016  0.423471  -0.00699  4.432019  -0.009  0.443114  -0.005731  4.469985  -0.008  0.088643  0.409364  -0.007916  4.403114  -0.01
N  N52  1  0.35391269  0.26025174  0.39883347  1  -0.395546  -0.024305  2.590081  -0.035  -0.426517  -0.008994  2.880259  -0.01  -0.451295  -0.001836  2.892823  0.0  -0.213218  -0.406097  -0.014746  2.868659  -0.018
N  N53  1  0.64609147  0.73973699  0.60115988  1  -0.395526  0.024294  2.59019  0.035  -0.426486  0.008994  2.880428  0.01  -0.451268  0.001837  2.893003  0.0  -0.213224  -0.406073  0.014749  2.868847  0.018
