# generated using pymatgen
data_CoP2H12C14S(NO3)2
_symmetry_space_group_name_H-M   'P 1'
_cell_length_a   9.23483844
_cell_length_b   9.57614210
_cell_length_c   10.02564103
_cell_angle_alpha   110.05482788
_cell_angle_beta   90.00012698
_cell_angle_gamma   89.99997710
_symmetry_Int_Tables_number   1
_chemical_formula_structural   CoP2H12C14S(NO3)2
_chemical_formula_sum   'Co2 P4 H24 C28 S2 N4 O12'
_cell_volume   832.84918308
_cell_formula_units_Z   2
loop_
 _symmetry_equiv_pos_site_id
 _symmetry_equiv_pos_as_xyz
  1  'x, y, z'
loop_
 _atom_site_type_symbol
 _atom_site_label
 _atom_site_symmetry_multiplicity
 _atom_site_fract_x
 _atom_site_fract_y
 _atom_site_fract_z
 _atom_site_occupancy
 _atom_site_pbe_cm5_charge
 _atom_site_pbe_ddec_charge
 _atom_site_pbe_ddec_spin_density
 _atom_site_pbe_ddec_sum_bond_order
 _atom_site_pbe_magmom
Co  Co0  1  0.35674043  0.47987218  0.10684377  1  0.704675  0.992343  2.823695  2.418589  2.582
Co  Co1  1  0.85674037  0.52012930  0.89315666  1  0.70466  0.992304  2.823698  2.418586  2.582
P  P2  1  0.40129261  0.22901554  0.25831741  1  0.362304  1.277619  0.004269  5.406269  0.005
P  P3  1  0.90129316  0.77098372  0.74168338  1  0.362288  1.277649  0.004268  5.406174  0.005
P  P4  1  0.50306007  0.58880768  0.86308138  1  0.365388  1.311208  0.012375  5.408469  0.013
P  P5  1  0.00306023  0.41119365  0.13691828  1  0.365363  1.311106  0.012376  5.408566  0.013
H  H6  1  0.62674489  0.78225319  0.83631371  1  0.299249  0.400797  0.000187  0.94383  0.001
H  H7  1  0.12674628  0.21774597  0.16368449  1  0.29924  0.400785  0.000187  0.943848  0.001
H  H8  1  0.55712741  0.05261079  0.15173218  1  0.353653  0.420226  -8e-05  0.833126  0.0
H  H9  1  0.05712581  0.94738835  0.84826487  1  0.353628  0.420207  -8e-05  0.833073  0.0
H  H10  1  0.16151492  0.39048034  0.44671111  1  0.099028  0.09862  1.7e-05  1.061288  0.0
H  H11  1  0.66151401  0.60951662  0.55328543  1  0.099018  0.098638  1.7e-05  1.061306  0.0
H  H12  1  0.19843626  0.56430808  0.71326094  1  0.108648  0.135038  -2.9e-05  0.999838  0.0
H  H13  1  0.69843586  0.43569112  0.28673642  1  0.108633  0.135052  -2.9e-05  0.999864  0.0
H  H14  1  0.45821630  0.55258435  0.40846983  1  0.110519  0.080736  0.000225  1.065497  0.001
H  H15  1  0.95821771  0.44741717  0.59152983  1  0.110504  0.080712  0.000225  1.065495  0.001
H  H16  1  0.44461694  0.76644760  0.63762246  1  0.106576  0.12299  0.000279  1.034938  0.0
H  H17  1  0.94462005  0.23355280  0.36237680  1  0.106591  0.123009  0.000278  1.034904  0.0
H  H18  1  0.27851319  0.03048795  0.39831900  1  0.104932  0.112178  0.000288  1.044129  0.0
H  H19  1  0.77851225  0.96951350  0.60168026  1  0.104942  0.112165  0.000288  1.044153  0.0
H  H20  1  0.30377689  0.80662127  0.17963292  1  0.122741  0.105159  0.000306  0.98545  0.001
H  H21  1  0.80377570  0.19338130  0.82036677  1  0.122734  0.105143  0.000306  0.985433  0.001
H  H22  1  0.14852440  0.34129058  0.85969439  1  0.11821  0.082346  0.001023  1.026829  0.001
H  H23  1  0.64852681  0.65870747  0.14030648  1  0.118207  0.082347  0.001023  1.026841  0.001
H  H24  1  0.14460315  0.12698384  0.63207554  1  0.105143  0.116285  0.000306  1.015585  0.0
H  H25  1  0.64460385  0.87301310  0.36792495  1  0.105148  0.116267  0.000306  1.015638  0.0
H  H26  1  0.56412338  0.00099328  0.74620544  1  0.108837  0.127676  0.000341  1.017979  0.0
H  H27  1  0.06412250  0.99900918  0.25379572  1  0.108848  0.127648  0.000341  1.018017  0.0
H  H28  1  0.55312503  0.22466573  0.96482350  1  0.119797  0.095772  0.000464  0.989695  0.001
H  H29  1  0.05312588  0.77533673  0.03517863  1  0.119803  0.095775  0.000464  0.98968  0.001
C  C30  1  0.38281821  0.31496757  0.44665365  1  -0.044379  -0.315282  0.000847  3.997278  0.001
C  C31  1  0.88281727  0.68503281  0.55334547  1  -0.044399  -0.315324  0.000847  3.997283  0.001
C  C32  1  0.26054650  0.39639200  0.50681380  1  -0.101613  -0.099578  0.000765  4.058756  0.001
C  C33  1  0.76054545  0.60360609  0.49318830  1  -0.10158  -0.099545  0.000765  4.058778  0.001
C  C34  1  0.28161470  0.49141384  0.64856511  1  -0.097079  -0.077639  0.000591  3.991693  0.001
C  C35  1  0.78161226  0.50858315  0.35143567  1  -0.09706  -0.07768  0.000591  3.991752  0.001
C  C36  1  0.42068054  0.48205452  0.69661734  1  -0.033765  -0.296806  0.002811  3.954828  0.004
C  C37  1  0.92067690  0.51794254  0.30338176  1  -0.033733  -0.29673  0.002811  3.954859  0.004
C  C38  1  0.42030008  0.66105098  0.41173583  1  0.039719  0.090094  -0.002021  3.969181  -0.001
C  C39  1  0.92029936  0.33895052  0.58826474  1  0.039746  0.090085  -0.00202  3.969185  -0.001
C  C40  1  0.41318043  0.78034659  0.53812937  1  -0.085255  -0.174934  0.000578  3.929375  0.002
C  C41  1  0.91318270  0.21965491  0.46187019  1  -0.085324  -0.174979  0.000578  3.929293  0.002
C  C42  1  0.36018976  0.91690218  0.53698960  1  0.011213  0.106631  -0.004677  3.982967  -0.002
C  C43  1  0.86018884  0.08310040  0.46301220  1  0.011246  0.106658  -0.004677  3.982905  -0.002
C  C44  1  0.31739730  0.92621365  0.40613220  1  -0.08283  -0.176299  0.00092  3.945391  0.002
C  C45  1  0.81739561  0.07378781  0.59386815  1  -0.082833  -0.176272  0.00092  3.945409  0.002
C  C46  1  0.33087873  0.80226305  0.28387024  1  0.048187  0.101087  -0.003268  3.931661  -0.002
C  C47  1  0.83087729  0.19773953  0.71613050  1  0.048151  0.101008  -0.003267  3.931716  -0.002
C  C48  1  0.23901649  0.26381049  0.82985459  1  0.048112  0.105004  -0.008273  3.941833  -0.005
C  C49  1  0.73901785  0.73618759  0.17014747  1  0.04814  0.105036  -0.008273  3.941873  -0.005
C  C50  1  0.23760757  0.14451492  0.70272593  1  -0.080819  -0.155317  0.001838  3.916157  0.003
C  C51  1  0.73760810  0.85548427  0.29727649  1  -0.080855  -0.155344  0.001838  3.916209  0.003
C  C52  1  0.35470001  0.04562815  0.66931539  1  0.009999  0.102574  -0.010782  3.98217  -0.006
C  C53  1  0.85470059  0.95437221  0.33068666  1  0.010004  0.102601  -0.010783  3.98212  -0.006
C  C54  1  0.46952942  0.07331217  0.76653657  1  -0.082833  -0.171249  0.002143  3.930284  0.004
C  C55  1  0.96952869  0.92669045  0.23346547  1  -0.082834  -0.171218  0.002142  3.930442  0.004
C  C56  1  0.46375142  0.19694868  0.88931191  1  0.044055  0.096064  -0.00693  3.962297  -0.004
C  C57  1  0.96375153  0.80305283  0.11068975  1  0.044053  0.096076  -0.006931  3.962396  -0.004
S  S58  1  0.52271793  0.35411558  0.56716238  1  0.123645  0.253023  -0.000377  3.010682  0.0
S  S59  1  0.02271546  0.64588131  0.43283684  1  0.123625  0.253002  -0.000377  3.010717  0.0
N  N60  1  0.38062408  0.67037535  0.28582008  1  -0.333072  -0.26687  0.025837  3.57856  0.038
N  N61  1  0.88062367  0.32962725  0.71418077  1  -0.333032  -0.266737  0.025836  3.578507  0.038
N  N62  1  0.34968123  0.29041374  0.92265514  1  -0.328882  -0.274533  0.025245  3.617406  0.048
N  N63  1  0.84968130  0.70958662  0.07734491  1  -0.328881  -0.27455  0.025244  3.617451  0.048
O  O64  1  0.64633168  0.51125478  0.86457637  1  -0.373847  -0.775065  0.043379  2.431612  0.066
O  O65  1  0.14633289  0.48874660  0.13542659  1  -0.373842  -0.775046  0.043379  2.43166  0.066
O  O66  1  0.39923490  0.60128973  0.98408117  1  -0.365574  -0.745315  0.044112  2.35113  0.064
O  O67  1  0.89923711  0.39870955  0.01591562  1  -0.365582  -0.745274  0.044112  2.351132  0.064
O  O68  1  0.52417789  0.75111819  0.85933722  1  -0.389887  -0.669224  0.003192  2.219588  0.006
O  O69  1  0.02417813  0.24888204  0.14066311  1  -0.38988  -0.669198  0.003192  2.219582  0.006
O  O70  1  0.45658639  0.34799077  0.20088540  1  -0.365592  -0.768189  0.037903  2.376584  0.052
O  O71  1  0.95659038  0.65201073  0.79911724  1  -0.365614  -0.768216  0.037903  2.376517  0.052
O  O72  1  0.26170809  0.15134917  0.19610025  1  -0.369132  -0.729231  0.000186  2.159508  0.001
O  O73  1  0.76170767  0.84865005  0.80389724  1  -0.36912  -0.729243  0.000186  2.159478  0.001
O  O74  1  0.52974425  0.11192853  0.24869502  1  -0.380066  -0.637943  0.002318  2.215825  0.004
O  O75  1  0.02974244  0.88807060  0.75130197  1  -0.380013  -0.637912  0.002318  2.21577  0.004
