# generated using pymatgen
data_CdH13C11N2O5
_symmetry_space_group_name_H-M   'P 1'
_cell_length_a   8.50159251
_cell_length_b   10.75848049
_cell_length_c   17.10783944
_cell_angle_alpha   104.26186152
_cell_angle_beta   98.68933155
_cell_angle_gamma   88.32799649
_symmetry_Int_Tables_number   1
_chemical_formula_structural   CdH13C11N2O5
_chemical_formula_sum   'Cd4 H52 C44 N8 O20'
_cell_volume   1499.06981092
_cell_formula_units_Z   4
loop_
 _symmetry_equiv_pos_site_id
 _symmetry_equiv_pos_as_xyz
  1  'x, y, z'
loop_
 _atom_site_type_symbol
 _atom_site_label
 _atom_site_symmetry_multiplicity
 _atom_site_fract_x
 _atom_site_fract_y
 _atom_site_fract_z
 _atom_site_occupancy
 _atom_site_pbe_bader_charge
 _atom_site_pbe_bader_spin_density
 _atom_site_pbe_cm5_charge
 _atom_site_pbe_ddec_charge
 _atom_site_pbe_ddec_spin_density
 _atom_site_pbe_ddec_sum_bond_order
 _atom_site_pbe_magmom
Cd  Cd0  1  0.72311665  0.25088740  0.75252971  1  1.226489  0  0.748825  0.862104  0  2.11447  0
Cd  Cd1  1  0.27688672  0.74910975  0.24747752  1  1.226388  0  0.748782  0.862074  0  2.114274  0
Cd  Cd2  1  0.03350484  0.70313968  0.75245319  1  1.262198  0  0.760408  0.854714  0  2.164699  0
Cd  Cd3  1  0.96649862  0.29686221  0.24754833  1  1.262178  0  0.760408  0.854718  0  2.164822  0
H  H4  1  0.97862627  0.06026343  0.78645361  1  0.651511  0  0.284432  0.389512  0  0.952021  0
H  H5  1  0.02137128  0.93973856  0.21355275  1  0.651381  0  0.284457  0.389609  0  0.951931  0
H  H6  1  0.96988757  0.07968131  0.69837516  1  0.6219  0  0.319145  0.402862  0  0.874473  0
H  H7  1  0.03009701  0.92032562  0.30163042  1  0.621752  0  0.319145  0.402804  0  0.874541  0
H  H8  1  0.99258825  0.46955821  0.81277434  1  0.637664  0  0.287618  0.380903  0  0.958371  0
H  H9  1  0.00739748  0.53044772  0.18722824  1  0.638017  0  0.287624  0.380845  0  0.958452  0
H  H10  1  0.99367209  0.43773058  0.71939327  1  0.65552  0  0.295565  0.400333  0  0.925739  0
H  H11  1  0.00632655  0.56226851  0.28061098  1  0.655508  0  0.295555  0.400327  0  0.92577  0
H  H12  1  0.40894286  0.31448885  0.69103873  1  0.420673  0  0.306309  0.252502  0  0.919131  0
H  H13  1  0.59105093  0.68550833  0.30895785  1  0.420769  0  0.306275  0.25252  0  0.919142  0
H  H14  1  0.61340150  0.14839253  0.85892677  1  0.468883  0  0.289633  0.24605  0  0.984917  0
H  H15  1  0.38659342  0.85160271  0.14106902  1  0.468779  0  0.289594  0.245982  0  0.985025  0
H  H16  1  0.74400121  0.60284762  0.81120048  1  0.125877  0  0.117089  0.092229  0  1.016675  0
H  H17  1  0.25599154  0.39715345  0.18880364  1  0.126416  0  0.117087  0.092211  0  1.016658  0
H  H18  1  0.34292505  0.51577407  0.61892651  1  0.126085  0  0.109427  0.122238  0  1.009011  0
H  H19  1  0.65707822  0.48422109  0.38107223  1  0.126059  0  0.109437  0.122288  0  1.008988  0
H  H20  1  0.48986188  0.62394871  0.53734626  1  0.107827  0  0.106809  0.110341  0  1.014139  0
H  H21  1  0.51014168  0.37605608  0.46265864  1  0.107667  0  0.106813  0.110383  0  1.014119  0
H  H22  1  0.76194206  0.71671181  0.59852817  1  0.103105  0  0.121373  0.094779  0  0.980569  0
H  H23  1  0.23805444  0.28329594  0.40147724  1  0.103041  0  0.121356  0.094766  0  0.980623  0
H  H24  1  0.51099870  0.51807986  0.83801756  1  0.043589  0  0.108561  0.089041  0  0.978469  0
H  H25  1  0.48899857  0.48191345  0.16198045  1  0.043559  0  0.108549  0.089026  0  0.978372  0
H  H26  1  0.32683553  0.51668922  0.77267188  1  0.09018  0  0.103289  0.091146  0  1.024321  0
H  H27  1  0.67316423  0.48330885  0.22732470  1  0.090109  0  0.103288  0.091091  0  1.024338  0
H  H28  1  0.24767761  0.30912774  0.79416062  1  0.083947  0  0.105018  0.094905  0  0.989447  0
H  H29  1  0.75231845  0.69086557  0.20583496  1  0.083954  0  0.105059  0.094962  0  0.989468  0
H  H30  1  0.42557145  0.33017036  0.86584182  1  0.078903  0  0.109569  0.089794  0  0.963171  0
H  H31  1  0.57442704  0.66982484  0.13415364  1  0.078786  0  0.109569  0.089847  0  0.963118  0
H  H32  1  0.32534378  0.10105747  0.81755744  1  0.049526  0  0.101875  0.08101  0  0.983442  0
H  H33  1  0.67465363  0.89894158  0.18243970  1  0.049511  0  0.101885  0.081048  0  0.983458  0
H  H34  1  0.35595364  0.10038815  0.71757938  1  0.049657  0  0.111833  0.091691  0  0.951976  0
H  H35  1  0.64404486  0.89960706  0.28241667  1  0.049781  0  0.11184  0.091723  0  0.951842  0
H  H36  1  0.72954077  0.95861204  0.78449056  1  0.085062  0  0.108501  0.098413  0  1.027587  0
H  H37  1  0.27046383  0.04138885  0.21550622  1  0.085113  0  0.108533  0.098458  0  1.027598  0
H  H38  1  0.56006450  0.93917231  0.70833993  1  0.043212  0  0.110685  0.094598  0  0.96791  0
H  H39  1  0.43993882  0.06082570  0.29165398  1  0.043333  0  0.110708  0.094677  0  0.968005  0
H  H40  1  0.32147834  0.83645788  0.72133923  1  0.115701  0  0.113918  0.090259  0  1.030345  0
H  H41  1  0.67852723  0.16353532  0.27865587  1  0.115751  0  0.113877  0.090168  0  1.030458  0
H  H42  1  0.68628007  0.93864073  0.93163535  1  0.092938  0  0.105798  0.107661  0  1.019189  0
H  H43  1  0.31371868  0.06136407  0.06836218  1  0.092964  0  0.105796  0.107676  0  1.0191  0
H  H44  1  0.53137392  0.81556249  0.00110276  1  0.0651  0  0.109416  0.116103  0  0.990762  0
H  H45  1  0.46862712  0.18443938  0.99889274  1  0.064958  0  0.109413  0.11613  0  0.99073  0
H  H46  1  0.27432844  0.71222594  0.92788566  1  0.155626  0  0.116673  0.097488  0  1.020053  0
H  H47  1  0.72568436  0.28777101  0.07210937  1  0.155546  0  0.116726  0.097495  0  1.020123  0
H  H48  1  0.95469274  0.10606194  0.95442451  1  0.118143  0  0.107704  0.133607  0  1.007478  0
H  H49  1  0.04530847  0.89394385  0.04558154  1  0.117959  0  0.107668  0.133521  0  1.007588  0
H  H50  1  0.98395551  0.39922610  0.04949654  1  0.118678  0  0.107336  0.134806  0  1.020616  0
H  H51  1  0.01603378  0.60077980  0.95050572  1  0.118706  0  0.107319  0.134708  0  1.020697  0
H  H52  1  0.75898714  0.14948136  0.46711638  1  0.099827  0  0.103243  0.121555  0  0.994442  0
H  H53  1  0.24102574  0.85051567  0.53288918  1  0.099702  0  0.103318  0.121622  0  0.994664  0
H  H54  1  0.93108478  0.41169725  0.53767458  1  0.164634  0  0.104044  0.133819  0  1.033562  0
H  H55  1  0.06891176  0.58831426  0.46232147  1  0.164828  0  0.104025  0.1338  0  1.033645  0
C  C56  1  0.68399604  0.60429272  0.75034327  1  0.525674  0  0.049303  0.042022  0  3.926832  0
C  C57  1  0.31599916  0.39571121  0.24966147  1  0.527604  0  0.049286  0.042098  0  3.926591  0
C  C58  1  0.53356986  0.54857958  0.72142896  1  -0.048012  0  -0.006513  0.049946  0  3.971157  0
C  C59  1  0.46643237  0.45142042  0.27857394  1  -0.051048  0  -0.006534  0.049919  0  3.971082  0
C  C60  1  0.46275170  0.55426708  0.64306381  1  -0.057973  0  -0.065957  -0.081039  0  3.906032  0
C  C61  1  0.53725174  0.44573386  0.35693815  1  -0.057949  0  -0.065966  -0.081129  0  3.906099  0
C  C62  1  0.54356039  0.61558406  0.59775101  1  -0.092858  0  -0.084224  -0.124932  0  3.988232  0
C  C63  1  0.45643960  0.38442077  0.40225363  1  -0.092659  0  -0.084214  -0.124921  0  3.988205  0
C  C64  1  0.69371596  0.66785679  0.63139363  1  0.522365  0  0.051872  0.093245  0  3.942511  0
C  C65  1  0.30628177  0.33215192  0.36861436  1  0.522094  0  0.051975  0.093343  0  3.94244  0
C  C66  1  0.45211842  0.48711251  0.77452784  1  0.267007  0  -0.071173  -0.086853  0  3.952331  0
C  C67  1  0.54788488  0.51288361  0.22547104  1  0.267269  0  -0.071184  -0.086743  0  3.952036  0
C  C68  1  0.37564365  0.28714223  0.80185746  1  0.243139  0  -0.070608  -0.053869  0  3.911866  0
C  C69  1  0.62435479  0.71285104  0.19813712  1  0.242734  0  -0.070622  -0.053964  0  3.911819  0
C  C70  1  0.39896782  0.14296390  0.78256671  1  0.278602  0  -0.070112  -0.051784  0  3.939469  0
C  C71  1  0.60103193  0.85703415  0.21742811  1  0.278619  0  -0.070171  -0.051863  0  3.939412  0
C  C72  1  0.60043142  0.97230070  0.77429220  1  0.32582  0  -0.069419  -0.083854  0  3.942307  0
C  C73  1  0.39957077  0.02769925  0.22570367  1  0.325657  0  -0.06945  -0.08398  0  3.942454  0
C  C74  1  0.37420187  0.83353163  0.78320047  1  0.435617  0  0.043265  0.027261  0  3.936273  0
C  C75  1  0.62580606  0.16646059  0.21679465  1  0.435541  0  0.043285  0.027274  0  3.936282  0
C  C76  1  0.51781985  0.89629415  0.81965923  1  -0.018414  0  -0.010164  0.045635  0  3.96338  0
C  C77  1  0.48218815  0.10370094  0.18033575  1  -0.017905  0  -0.010221  0.045681  0  3.963544  0
C  C78  1  0.57536002  0.89044033  0.89978152  1  -0.03398  0  -0.065301  -0.074187  0  3.924052  0
C  C79  1  0.42464455  0.10955959  0.10021394  1  -0.03427  0  -0.065321  -0.074272  0  3.924149  0
C  C80  1  0.48925202  0.82237174  0.93892768  1  0.04532  0  -0.083427  -0.12458  0  3.985214  0
C  C81  1  0.51075135  0.17762819  0.06106770  1  0.045764  0  -0.083425  -0.124603  0  3.985278  0
C  C82  1  0.34653277  0.76279989  0.89783585  1  0.399358  0  0.047776  0.088576  0  3.933345  0
C  C83  1  0.65347645  0.23719615  0.10215936  1  0.399137  0  0.047789  0.088536  0  3.93358  0
C  C84  1  0.97993413  0.90263642  0.88835275  1  1.519634  0  0.189766  0.590283  0  4.241351  0
C  C85  1  0.02006468  0.09736843  0.11165297  1  1.519775  0  0.189738  0.590269  0  4.241333  0
C  C86  1  0.98091705  0.00950282  0.96242453  1  -0.109802  0  -0.086787  -0.184386  0  3.909528  0
C  C87  1  0.01908529  0.99050102  0.03758013  1  0.001366  0  -0.086675  -0.184004  0  3.909417  0
C  C88  1  0.85266470  0.37375104  0.92629171  1  1.540564  0  0.198295  0.616651  0  4.209805  0
C  C89  1  0.14734010  0.62625658  0.07370962  1  1.540221  0  0.198366  0.616819  0  4.209139  0
C  C90  1  0.96428037  0.44434476  0.99828870  1  -0.113173  0  -0.088934  -0.185128  0  3.895695  0
C  C91  1  0.03570883  0.55565731  0.00171414  1  0.000493  0  -0.088919  -0.185016  0  3.895398  0
C  C92  1  0.77337166  0.24551644  0.59709369  1  1.515499  0  0.181409  0.599242  0  4.235811  0
C  C93  1  0.22663400  0.75447779  0.40291150  1  1.51576  0  0.18144  0.599307  0  4.235765  0
C  C94  1  0.80546182  0.23514798  0.51288247  1  -0.073923  0  -0.093614  -0.19135  0  3.930921  0
C  C95  1  0.19455499  0.76486337  0.48712206  1  -0.073964  0  -0.093616  -0.191372  0  3.930837  0
C  C96  1  0.88604538  0.32476799  0.49231572  1  -0.054323  0  -0.083331  -0.167223  0  3.88454  0
C  C97  1  0.11394607  0.67523019  0.50768319  1  -0.05445  0  -0.083302  -0.16721  0  3.884183  0
C  C98  1  0.91086296  0.31438336  0.40663573  1  1.526969  0  0.182515  0.584124  0  4.252914  0
C  C99  1  0.08913814  0.68561951  0.59336402  1  1.526744  0  0.182525  0.584149  0  4.252914  0
N  N100  1  0.76262913  0.66186249  0.70643251  1  -1.24344  0  -0.329643  -0.233778  0  3.533453  0
N  N101  1  0.23736378  0.33814435  0.29357367  1  -1.242884  0  -0.329707  -0.233925  0  3.53317  0
N  N102  1  0.46109932  0.34561289  0.75056782  1  -1.054908  0  -0.478255  -0.329697  0  3.442428  0
N  N103  1  0.53889677  0.65438138  0.24942849  1  -1.054484  0  -0.478178  -0.32973  0  3.442416  0
N  N104  1  0.56861208  0.11099685  0.79852326  1  -1.123399  0  -0.487225  -0.338248  0  3.493381  0
N  N105  1  0.43139010  0.88900309  0.20147144  1  -1.123352  0  -0.48713  -0.338184  0  3.493504  0
N  N106  1  0.29051976  0.76841466  0.82089797  1  -1.218654  0  -0.328012  -0.230758  0  3.525337  0
N  N107  1  0.70948935  0.23157754  0.17909723  1  -1.218895  0  -0.328048  -0.230675  0  3.525373  0
O  O108  1  0.97106596  0.78705183  0.89250455  1  -1.159415  0  -0.324413  -0.551906  0  2.165603  0
O  O109  1  0.02892089  0.21295216  0.10749549  1  -1.159568  0  -0.324391  -0.55194  0  2.165532  0
O  O110  1  0.96546804  0.12781951  0.75426131  1  -1.244922  0  -0.582365  -0.74632  0  1.994481  0
O  O111  1  0.03450931  0.87218366  0.24574375  1  -1.244644  0  -0.582366  -0.746321  0  1.994372  0
O  O112  1  0.99223490  0.93337301  0.82143643  1  -1.177857  0  -0.326183  -0.577666  0  2.250579  0
O  O113  1  0.00776028  0.06662995  0.17856757  1  -1.177989  0  -0.326207  -0.577752  0  2.250551  0
O  O114  1  0.05109056  0.49018184  0.77124876  1  -1.262465  0  -0.58317  -0.748225  0  2.053862  0
O  O115  1  0.94890815  0.50981918  0.22875637  1  -1.262717  0  -0.583153  -0.748124  0  2.053971  0
O  O116  1  0.85248794  0.40395806  0.85739562  1  -1.172833  0  -0.33383  -0.57989  0  2.290858  0
O  O117  1  0.14751207  0.59604866  0.14260580  1  -1.172588  0  -0.333787  -0.579905  0  2.290737  0
O  O118  1  0.76408554  0.28831014  0.93586271  1  -1.184304  0  -0.327681  -0.571962  0  2.109451  0
O  O119  1  0.23592015  0.71168876  0.06412683  1  -1.184303  0  -0.327736  -0.572058  0  2.109051  0
O  O120  1  0.83544657  0.33729939  0.65592327  1  -1.192361  0  -0.335177  -0.580108  0  2.224661  0
O  O121  1  0.16455783  0.66269199  0.34408315  1  -1.192264  0  -0.33522  -0.580169  0  2.224591  0
O  O122  1  0.68412847  0.16004641  0.60859245  1  -1.14878  0  -0.356724  -0.577722  0  2.084413  0
O  O123  1  0.31587712  0.83994587  0.39140835  1  -1.148969  0  -0.356768  -0.577753  0  2.084336  0
O  O124  1  0.91629002  0.41889252  0.38412949  1  -1.164214  0  -0.329288  -0.558485  0  2.148892  0
O  O125  1  0.08373243  0.58110819  0.61587033  1  -1.16419  0  -0.329251  -0.558449  0  2.148815  0
O  O126  1  0.92426619  0.20414569  0.35868313  1  -1.170222  0  -0.346823  -0.577639  0  2.140726  0
O  O127  1  0.07572177  0.79585540  0.64131538  1  -1.169986  0  -0.346891  -0.577673  0  2.140714  0
