# generated using pymatgen
data_AgH4C5SNO3
_symmetry_space_group_name_H-M   'P 1'
_cell_length_a   5.40351068
_cell_length_b   7.96982307
_cell_length_c   8.09435718
_cell_angle_alpha   93.61983431
_cell_angle_beta   89.98274650
_cell_angle_gamma   109.53102741
_symmetry_Int_Tables_number   1
_chemical_formula_structural   AgH4C5SNO3
_chemical_formula_sum   'Ag2 H8 C10 S2 N2 O6'
_cell_volume   327.79072557
_cell_formula_units_Z   2
loop_
 _symmetry_equiv_pos_site_id
 _symmetry_equiv_pos_as_xyz
  1  'x, y, z'
loop_
 _atom_site_type_symbol
 _atom_site_label
 _atom_site_symmetry_multiplicity
 _atom_site_fract_x
 _atom_site_fract_y
 _atom_site_fract_z
 _atom_site_occupancy
 _atom_site_hle17_bader_spin_density
 _atom_site_hle17_ddec_charge
 _atom_site_hle17_ddec_spin_density
 _atom_site_hle17_ddec_sum_bond_order
 _atom_site_hle17_magmom
 _atom_site_hse06_10hf_bader_spin_density
 _atom_site_hse06_10hf_ddec_charge
 _atom_site_hse06_10hf_ddec_spin_density
 _atom_site_hse06_10hf_ddec_sum_bond_order
 _atom_site_hse06_10hf_magmom
 _atom_site_hse06_bader_spin_density
 _atom_site_hse06_ddec_charge
 _atom_site_hse06_ddec_spin_density
 _atom_site_hse06_ddec_sum_bond_order
 _atom_site_hse06_magmom
 _atom_site_pbe_bader_spin_density
 _atom_site_pbe_cm5_charge
 _atom_site_pbe_ddec_charge
 _atom_site_pbe_ddec_spin_density
 _atom_site_pbe_ddec_sum_bond_order
 _atom_site_pbe_magmom
Ag  Ag0  1  0.11464707  0.99934536  0.49884678  1  0  0.586443  0  1.323456  0  0  0.444466  0  1.739109  0  0  0.473092  0  1.695577  0  0  0.48998  0.424864  0  1.769311  0
Ag  Ag1  1  0.20198251  0.00143903  0.00113144  1  0  0.754949  0  1.122531  0  0  0.658021  0  1.524042  0  0  0.683704  0  1.47693  0  0  0.470425  0.639231  0  1.557328  0
H  H2  1  0.33454489  0.71109006  0.53185724  1  0  0.083456  0  0.963571  0  0  0.092522  0  1.028164  0  0  0.09423  0  1.027585  0  0  0.115081  0.091223  0  1.028662  0
H  H3  1  0.61987123  0.28515171  0.46869872  1  0  0.083513  0  0.963464  0  0  0.093282  0  1.027132  0  0  0.094872  0  1.026664  0  0  0.114946  0.092057  0  1.027543  0
H  H4  1  0.21727817  0.40879254  0.64868170  1  0  0.110514  0  0.97214  0  0  0.118295  0  1.038072  0  0  0.120874  0  1.038128  0  0  0.10906  0.116397  0  1.038276  0
H  H5  1  0.80723192  0.58766789  0.35333396  1  0  0.10853  0  0.973734  0  0  0.116343  0  1.039755  0  0  0.118857  0  1.039951  0  0  0.10816  0.114508  0  1.039825  0
H  H6  1  0.70100929  0.80673684  0.75792148  1  0  0.097741  0  0.954444  0  0  0.103777  0  1.021718  0  0  0.106506  0  1.019108  0  0  0.118796  0.10161  0  1.02399  0
H  H7  1  0.89617783  0.19645990  0.23980234  1  0  0.097542  0  0.955206  0  0  0.103515  0  1.022991  0  0  0.106319  0  1.020185  0  0  0.118266  0.101375  0  1.02519  0
H  H8  1  0.56003640  0.51121860  0.88203775  1  0  0.125604  0  0.942801  0  0  0.134865  0  1.002178  0  0  0.137819  0  1.001682  0  0  0.114223  0.13272  0  1.00268  0
H  H9  1  0.05335234  0.49260976  0.11689151  1  0  0.125734  0  0.942019  0  0  0.135402  0  1.000606  0  0  0.138483  0  1.00001  0  0  0.113966  0.133184  0  1.00118  0
C  C10  1  0.16371626  0.65988218  0.60883340  1  0  0.126487  0  3.669907  0  0  0.098607  0  3.911399  0  0  0.104643  0  3.930498  0  0  0.045943  0.094605  0  3.898564  0
C  C11  1  0.50212635  0.33791154  0.39129222  1  0  0.127273  0  3.668927  0  0  0.098996  0  3.910172  0  0  0.105102  0  3.929331  0  0  0.045869  0.094938  0  3.897288  0
C  C12  1  0.09806003  0.49336337  0.67277301  1  0  -0.109881  0  3.707945  0  0  -0.131077  0  3.949935  0  0  -0.136575  0  3.972474  0  0  -0.079941  -0.127614  0  3.935097  0
C  C13  1  0.60414167  0.50458200  0.32822377  1  0  -0.106904  0  3.70658  0  0  -0.128026  0  3.949318  0  0  -0.133535  0  3.971885  0  0  -0.078704  -0.124557  0  3.934445  0
C  C14  1  0.87439496  0.43577559  0.76855299  1  0  -0.05419  0  3.688938  0  0  -0.025675  0  3.920754  0  0  -0.027422  0  3.940137  0  0  0.004105  -0.024834  0  3.908431  0
C  C15  1  0.44056735  0.56433401  0.23177690  1  0  -0.053867  0  3.687611  0  0  -0.026436  0  3.920988  0  0  -0.028023  0  3.940117  0  0  0.003566  -0.025608  0  3.908685  0
C  C16  1  0.80882782  0.71438652  0.73469673  1  0  0.108577  0  3.691354  0  0  0.077229  0  3.947002  0  0  0.084341  0  3.96271  0  0  0.044484  0.072382  0  3.936709  0
C  C17  1  0.09589863  0.28720170  0.26385395  1  0  0.105455  0  3.693353  0  0  0.073821  0  3.949817  0  0  0.080911  0  3.965578  0  0  0.043371  0.068993  0  3.939497  0
C  C18  1  0.73068699  0.54931342  0.80361521  1  0  -0.10086  0  3.692449  0  0  -0.123648  0  3.939048  0  0  -0.128117  0  3.958751  0  0  -0.075816  -0.120827  0  3.926152  0
C  C19  1  0.18411847  0.45266069  0.19560971  1  0  -0.098986  0  3.688646  0  0  -0.121507  0  3.935024  0  0  -0.126061  0  3.954596  0  0  -0.074286  -0.118684  0  3.922229  0
S  S20  1  0.76771642  0.21325154  0.83508170  1  0  1.287081  0  5.683257  0  0  1.193953  0  6.188889  0  0  1.242584  0  6.166029  0  0  0.502648  1.160386  0  6.203181  0
S  S21  1  0.55917137  0.78697944  0.16559574  1  0  1.284451  0  5.685488  0  0  1.191402  0  6.191511  0  0  1.239998  0  6.168753  0  0  0.501363  1.15786  0  6.205776  0
N  N22  1  0.01811626  0.76718532  0.63571062  1  0  -0.301835  0  3.362204  0  0  -0.211237  0  3.639551  0  0  -0.228844  0  3.653331  0  0  -0.35127  -0.199391  0  3.630208  0
N  N23  1  0.25012469  0.23225983  0.36314747  1  0  -0.303878  0  3.365851  0  0  -0.213229  0  3.643571  0  0  -0.23085  0  3.657298  0  0  -0.351701  -0.201356  0  3.634285  0
O  O24  1  0.64247106  0.22334849  0.99551010  1  0  -0.670828  0  2.019468  0  0  -0.611613  0  2.292036  0  0  -0.635895  0  2.278636  0  0  -0.3396  -0.5941  0  2.300359  0
O  O25  1  0.42229542  0.77921656  0.00634361  1  0  -0.669402  0  2.02092  0  0  -0.610011  0  2.293539  0  0  -0.634284  0  2.280096  0  0  -0.338708  -0.59263  0  2.302117  0
O  O26  1  0.01210961  0.17072431  0.84655769  1  0  -0.703983  0  2.099001  0  0  -0.646484  0  2.402382  0  0  -0.669878  0  2.38253  0  0  -0.34964  -0.62967  0  2.415513  0
O  O27  1  0.84433739  0.82474558  0.15161682  1  0  -0.703171  0  2.096286  0  0  -0.645587  0  2.398867  0  0  -0.668968  0  2.379048  0  0  -0.34932  -0.628748  0  2.41177  0
O  O28  1  0.58611059  0.10569038  0.70409341  1  0  -0.667609  0  1.964559  0  0  -0.61968  0  2.238759  0  0  -0.641681  0  2.221187  0  0  -0.337482  -0.603819  0  2.250111  0
O  O29  1  0.49066206  0.89668953  0.29791029  1  0  -0.667958  0  1.963792  0  0  -0.620286  0  2.238315  0  0  -0.642202  0  2.220621  0  0  -0.337782  -0.604494  0  2.249677  0
