# generated using pymatgen
data_Zn8H26C45I6O31
_symmetry_space_group_name_H-M   'P 1'
_cell_length_a   18.31820646
_cell_length_b   18.64366533
_cell_length_c   18.41567862
_cell_angle_alpha   91.02933410
_cell_angle_beta   119.43538738
_cell_angle_gamma   118.88900015
_symmetry_Int_Tables_number   1
_chemical_formula_structural   Zn8H26C45I6O31
_chemical_formula_sum   'Zn8 H26 C45 I6 O31'
_cell_volume   4518.81635859
_cell_formula_units_Z   1
loop_
 _symmetry_equiv_pos_site_id
 _symmetry_equiv_pos_as_xyz
  1  'x, y, z'
loop_
 _atom_site_type_symbol
 _atom_site_label
 _atom_site_symmetry_multiplicity
 _atom_site_fract_x
 _atom_site_fract_y
 _atom_site_fract_z
 _atom_site_occupancy
 _atom_site_pbe_bader_charge
 _atom_site_pbe_bader_spin_density
 _atom_site_pbe_cm5_charge
 _atom_site_pbe_ddec_charge
 _atom_site_pbe_ddec_spin_density
 _atom_site_pbe_ddec_sum_bond_order
 _atom_site_pbe_magmom
Zn  Zn0  1  0.40765278  0.54381995  0.45888455  1  1.32579  0  0.677329  0.980794  0  2.339355  0
Zn  Zn1  1  0.58451340  0.54825463  0.45642323  1  1.313663  0  0.673954  0.974654  0  2.343093  0
Zn  Zn2  1  0.41123987  0.37369690  0.45505893  1  1.306263  0  0.6714  0.968954  0  2.353183  0
Zn  Zn3  1  0.58344705  0.54462941  0.62808084  1  1.318752  0  0.676081  0.97139  0  2.374853  0
Zn  Zn4  1  0.59214305  0.96163969  0.04106160  1  1.306063  0  0.67117  0.96035  0  2.383218  0
Zn  Zn5  1  0.57868020  0.12640446  0.03858510  1  1.304572  0  0.675958  0.969526  0  2.36111  0
Zn  Zn6  1  0.41372215  0.95143704  0.03963970  1  1.317129  0  0.673618  0.968797  0  2.367994  0
Zn  Zn7  1  0.41305680  0.95485262  0.86493270  1  1.317359  0  0.671781  0.968333  0  2.339635  0
H  H8  1  0.63623153  0.72670626  0.81475318  1  0.053307  0  0.099982  0.11323  0  0.963026  0
H  H9  1  0.38905768  0.20342075  0.59971554  1  0.121722  0  0.116802  0.127231  0  0.972353  0
H  H10  1  0.52885097  0.63703358  0.80222017  1  0.110692  0  0.087578  0.101416  0  1.045639  0
H  H11  1  0.09101942  0.78017169  0.68803131  1  0.113113  0  0.119325  0.120412  0  0.965459  0
H  H12  1  0.08187080  0.81473073  0.84669332  1  0.096356  0  0.113453  0.131955  0  0.978022  0
H  H13  1  0.90596819  0.72199154  0.60372137  1  0.118398  0  0.119823  0.11794  0  0.965059  0
H  H14  1  0.37128537  0.19892907  0.27094247  1  0.129439  0  0.1151  0.127553  0  0.974336  0
H  H15  1  0.54383003  0.35364906  0.27020986  1  0.107264  0  0.120275  0.144472  0  0.966343  0
H  H16  1  0.40199917  0.80353171  0.20385700  1  0.124046  0  0.115162  0.127141  0  0.968972  0
H  H17  1  0.57955947  0.80558648  0.22105381  1  0.103107  0  0.109207  0.135324  0  0.986508  0
H  H18  1  0.64021602  0.81941767  0.90485992  1  0.058686  0  0.111078  0.100416  0  0.945172  0
H  H19  1  0.34770510  0.74558802  0.69277750  1  0.115466  0  0.109702  0.11588  0  0.990012  0
H  H20  1  0.62235530  0.81655667  0.71752353  1  0.033589  0  0.098918  0.104787  0  0.960465  0
H  H21  1  0.61876054  0.90336535  0.80676837  1  -0.004536  0  0.098127  0.100351  0  0.966983  0
H  H22  1  0.99244703  0.29162810  0.35395267  1  0.061498  0  0.100291  0.035546  0  0.966482  0
H  H23  1  0.86259964  0.61288433  0.79315375  1  0.081893  0  0.101888  0.043372  0  0.980064  0
H  H24  1  0.61303849  0.26656048  0.35496355  1  0.066395  0  0.103329  0.042531  0  0.977211  0
H  H25  1  0.54386287  0.75697512  0.97103918  1  0.093978  0  0.102314  0.044313  0  0.985248  0
H  H26  1  0.24452923  0.61048095  0.71468983  1  0.104306  0  0.103155  0.044884  0  0.97472  0
H  H27  1  0.50224022  0.78829321  0.62721656  1  0.087626  0  0.083421  0.09012  0  1.024638  0
H  H28  1  0.49553016  0.87002400  0.71801776  1  0.048194  0  0.097244  0.102329  0  0.977261  0
H  H29  1  0.91164974  0.10470467  0.20182735  1  0.139572  0  0.117924  0.121252  0  0.967393  0
H  H30  1  0.91555845  0.27154265  0.19357641  1  0.10838  0  0.11972  0.141064  0  0.975422  0
H  H31  1  0.09929864  0.20743085  0.27659085  1  0.110983  0  0.116801  0.120489  0  0.9742  0
H  H32  1  0.40258128  0.09932989  0.67892270  1  0.111508  0  0.113796  0.113913  0  0.968262  0
H  H33  1  0.53536727  0.25912274  0.84493475  1  0.09747  0  0.09987  0.124497  0  1.023995  0
C  C34  1  0.77197119  0.62664094  0.63421719  1  1.512685  0  0.225374  0.607494  0  4.187311  0
C  C35  1  0.11108902  0.31180182  0.33874911  1  -0.058226  0  -0.011461  -0.11019  0  3.8651  0
C  C36  1  0.44935478  0.16850460  0.71690226  1  -0.088284  0  -0.071095  -0.012026  0  3.979255  0
C  C37  1  0.22431171  0.36597591  0.38587817  1  1.552993  0  0.23025  0.617164  0  4.166859  0
C  C38  1  0.49291810  0.19177556  0.80488651  1  0.02828  0  -0.09248  -0.228649  0  3.894964  0
C  C39  1  0.45539741  0.22856776  0.66787551  1  0.032479  0  -0.076934  -0.070174  0  3.971914  0
C  C40  1  0.53169782  0.31222585  0.69256883  1  -0.275709  0  -0.052429  -0.094784  0  3.810458  0
C  C41  1  0.05453529  0.77178790  0.72262380  1  -0.081837  0  -0.059958  -0.019201  0  3.963294  0
C  C42  1  0.11398134  0.81795369  0.80934887  1  0.069819  0  -0.077956  -0.203837  0  3.864311  0
C  C43  1  0.94446515  0.71750253  0.66976589  1  -0.04941  0  -0.038075  -0.009945  0  3.879596  0
C  C44  1  0.88311018  0.66391506  0.69302087  1  -0.007897  0  -0.019473  -0.13433  0  3.888553  0
C  C45  1  0.38578891  0.65874021  0.66850080  1  -0.242303  0  -0.022285  0.07218  0  3.386677  0
C  C46  1  0.42904879  0.17604853  0.19994965  1  -0.278111  0  -0.020352  0.064685  0  3.87945  0
C  C47  1  0.51214411  0.18054444  0.21620685  1  0.037663  0  -0.021225  -0.145157  0  3.898976  0
C  C48  1  0.42794774  0.23067878  0.25599517  1  0.036459  0  -0.073463  -0.060068  0  4.013052  0
C  C49  1  0.47828647  0.62481057  0.35286038  1  1.644782  0  0.211689  0.623206  0  4.222376  0
C  C50  1  0.49037568  0.31816038  0.28759624  1  -0.054147  0  -0.081116  -0.215659  0  3.868485  0
C  C51  1  0.45814188  0.78767983  0.22604670  1  0.018301  0  -0.077066  -0.043647  0  3.997803  0
C  C52  1  0.51911339  0.81582576  0.19771406  1  -0.056793  0  -0.091454  -0.222739  0  3.888614  0
C  C53  1  0.46495070  0.73963388  0.28775005  1  -0.211603  0  -0.046283  0.047667  0  3.922489  0
C  C54  1  0.46592186  0.66808161  0.28383885  1  -0.147595  0  -0.060315  -0.128288  0  3.836081  0
C  C55  1  0.48861711  0.13102125  0.85543643  1  1.530721  0  0.219357  0.64503  0  4.174694  0
C  C56  1  0.49682296  0.69659250  0.69915115  1  0.017916  0  -0.020462  -0.005641  0  3.792703  0
C  C57  1  0.50910629  0.86415164  0.13462353  1  1.567066  0  0.224164  0.653763  0  4.157616  0
C  C58  1  0.77337536  0.14224629  0.12744716  1  1.570948  0  0.222759  0.641045  0  4.182079  0
C  C59  1  0.22610696  0.87221848  0.86118395  1  1.533034  0  0.223753  0.646879  0  4.166084  0
C  C60  1  0.50761349  0.12702725  0.15009016  1  1.615119  0  0.225494  0.63053  0  4.193012  0
C  C61  1  0.51565662  0.36496504  0.63319888  1  1.61125  0  0.219343  0.618575  0  4.189202  0
C  C62  1  0.49753153  0.85548443  0.86064258  1  1.598643  0  0.233411  0.600876  0  4.130266  0
C  C63  1  0.48959865  0.37129018  0.34772117  1  1.550562  0  0.221888  0.646367  0  4.174396  0
C  C64  1  0.50281943  0.64227006  0.64108959  1  1.583037  0  0.224921  0.593036  0  4.116688  0
C  C65  1  0.55948475  0.70206580  0.79627552  1  -0.057577  0  -0.170406  -0.213738  0  3.860554  0
C  C66  1  0.56260946  0.76028556  0.85932478  1  -0.03316  0  -0.088755  -0.091511  0  3.821673  0
C  C67  1  0.49640550  0.79280263  0.80461840  1  0.042734  0  -0.007558  0.000364  0  3.764875  0
C  C68  1  0.54401146  0.79020770  0.69579502  1  -0.064242  0  -0.16132  -0.172927  0  3.855518  0
C  C69  1  0.06110520  0.34470514  0.35897750  1  0.960336  0  0.09238  0.279091  0  3.994973  0
C  C70  1  0.91542351  0.63562328  0.77228067  1  0.95466  0  0.096648  0.285697  0  3.959372  0
C  C71  1  0.61191248  0.23337855  0.30327426  1  0.960742  0  0.092908  0.285521  0  3.973927  0
C  C72  1  0.54041175  0.71713339  0.92250339  1  0.94949  0  0.096768  0.302413  0  3.889168  0
C  C73  1  0.32321027  0.66682656  0.76617136  1  0.928713  0  0.101435  0.305899  0  3.901149  0
C  C74  1  0.54191241  0.84618100  0.75656743  1  0.015707  0  -0.155037  -0.174774  0  3.841472  0
C  C75  1  0.38684094  0.71622181  0.73181293  1  -0.054809  0  -0.097202  -0.151907  0  3.837453  0
C  C76  1  0.94709221  0.17495029  0.22062374  1  -0.022296  0  -0.064554  -0.027966  0  3.988498  0
C  C77  1  0.88558819  0.20285504  0.18390714  1  -0.039646  0  -0.073606  -0.210351  0  3.854672  0
C  C78  1  0.05642674  0.23119221  0.27978679  1  -0.060122  0  -0.05105  -0.044439  0  3.917874  0
I  I79  1  0.67750641  0.38019625  0.81155378  1  0.162372  0  0.095279  0.015469  0  1.399951  0
I  I80  1  0.28236393  0.08598473  0.08352696  1  0.147111  0  0.094539  0.007772  0  1.299591  0
I  I81  1  0.47749196  0.79784311  0.39748230  1  0.120869  0  0.073593  -0.01052  0  1.302633  0
I  I82  1  0.44594416  0.60017881  0.17555469  1  0.168782  0  0.103715  0.038675  0  1.317865  0
I  I83  1  0.28474220  0.65087779  0.53324502  1  0.096555  0  0.061374  -0.032776  0  1.439576  0
I  I84  1  0.31688837  0.52180815  0.66775354  1  0.051669  0  0.060993  -0.047502  0  1.371499  0
O  O85  1  0.49640392  0.50134433  0.49856402  1  -1.225261  0  -0.571441  -1.03167  0  2.518686  0
O  O86  1  0.27111035  0.89963378  0.94517032  1  -1.143982  0  -0.318244  -0.552703  0  2.304796  0
O  O87  1  0.55208016  0.16955018  0.11536678  1  -1.146141  0  -0.29959  -0.521041  0  2.308735  0
O  O88  1  0.72845156  0.61420936  0.67407302  1  -1.161068  0  -0.313045  -0.548366  0  2.344174  0
O  O89  1  0.43059353  0.87170283  0.81926437  1  -1.178469  0  -0.313014  -0.541073  0  2.336676  0
O  O90  1  0.46075309  0.04585047  0.13640042  1  -1.148371  0  -0.309946  -0.54309  0  2.340662  0
O  O91  1  0.57043265  0.89162250  0.94227086  1  -1.186406  0  -0.310851  -0.552133  0  2.385694  0
O  O92  1  0.73517536  0.06087403  0.10886290  1  -1.183112  0  -0.31633  -0.549989  0  2.321273  0
O  O93  1  0.26816849  0.88633846  0.81990034  1  -1.158891  0  -0.316329  -0.551963  0  2.309977  0
O  O94  1  0.53713517  0.16775174  0.93852743  1  -1.158852  0  -0.317823  -0.542556  0  2.302046  0
O  O95  1  0.43413343  0.87129079  0.10047762  1  -1.17001  0  -0.315393  -0.543179  0  2.312082  0
O  O96  1  0.40613560  0.58908213  0.36276689  1  -1.162629  0  -0.305971  -0.523666  0  2.330307  0
O  O97  1  0.26842409  0.44778758  0.41142001  1  -1.130351  0  -0.300339  -0.524822  0  2.381467  0
O  O98  1  0.55943446  0.62704177  0.39371421  1  -1.166417  0  -0.313837  -0.539557  0  2.325478  0
O  O99  1  0.44789028  0.32358365  0.55043803  1  -1.168706  0  -0.31361  -0.540152  0  2.307224  0
O  O100  1  0.55316249  0.45340504  0.37326712  1  -1.167021  0  -0.31393  -0.544019  0  2.293197  0
O  O101  1  0.55421773  0.61094200  0.67961574  1  -1.164121  0  -0.30316  -0.52221  0  2.370789  0
O  O102  1  0.42792012  0.33133950  0.36936920  1  -1.16831  0  -0.317843  -0.551552  0  2.314253  0
O  O103  1  0.45899463  0.63534971  0.55970858  1  -1.179354  0  -0.313779  -0.549875  0  2.437799  0
O  O104  1  0.09006031  0.42053580  0.38179837  1  -1.050348  0  -0.262804  -0.344941  0  2.154923  0
O  O105  1  0.98949641  0.63185238  0.80882538  1  -1.064465  0  -0.26141  -0.344788  0  2.093699  0
O  O106  1  0.68748445  0.23773888  0.31919951  1  -1.048872  0  -0.264484  -0.341684  0  2.069507  0
O  O107  1  0.57027039  0.44671477  0.67131340  1  -1.180316  0  -0.316279  -0.541435  0  2.399398  0
O  O108  1  0.52624233  0.64633238  0.92424855  1  -1.09211  0  -0.274924  -0.36469  0  2.130864  0
O  O109  1  0.35264446  0.68983464  0.84312062  1  -1.068589  0  -0.237784  -0.321243  0  2.151462  0
O  O110  1  0.73034559  0.61080325  0.55121610  1  -1.158238  0  -0.312174  -0.540578  0  2.319605  0
O  O111  1  0.26600613  0.32499043  0.39528167  1  -1.161757  0  -0.317755  -0.555379  0  2.330086  0
O  O112  1  0.49921607  0.99874269  0.99502774  1  -1.216256  0  -0.571619  -1.030126  0  2.52973  0
O  O113  1  0.44021029  0.04993394  0.81507599  1  -1.16714  0  -0.321413  -0.558854  0  2.292785  0
O  O114  1  0.57801247  0.89484928  0.11975916  1  -1.16632  0  -0.318216  -0.54805  0  2.285919  0
O  O115  1  0.72515079  0.17843793  0.10333111  1  -1.147893  0  -0.310905  -0.536486  0  2.283797  0
