# generated using pymatgen
data_HgH11C13(BrN)2
_symmetry_space_group_name_H-M   'P 1'
_cell_length_a   9.89849353
_cell_length_b   10.84718738
_cell_length_c   14.26438585
_cell_angle_alpha   110.23995801
_cell_angle_beta   90.00022040
_cell_angle_gamma   89.99998102
_symmetry_Int_Tables_number   1
_chemical_formula_structural   HgH11C13(BrN)2
_chemical_formula_sum   'Hg4 H44 C52 Br8 N8'
_cell_volume   1437.00677293
_cell_formula_units_Z   4
loop_
 _symmetry_equiv_pos_site_id
 _symmetry_equiv_pos_as_xyz
  1  'x, y, z'
loop_
 _atom_site_type_symbol
 _atom_site_label
 _atom_site_symmetry_multiplicity
 _atom_site_fract_x
 _atom_site_fract_y
 _atom_site_fract_z
 _atom_site_occupancy
 _atom_site_hle17_bader_spin_density
 _atom_site_hle17_ddec_charge
 _atom_site_hle17_ddec_spin_density
 _atom_site_hle17_ddec_sum_bond_order
 _atom_site_hle17_magmom
 _atom_site_hse06_10hf_bader_spin_density
 _atom_site_hse06_10hf_ddec_charge
 _atom_site_hse06_10hf_ddec_spin_density
 _atom_site_hse06_10hf_ddec_sum_bond_order
 _atom_site_hse06_10hf_magmom
 _atom_site_hse06_bader_spin_density
 _atom_site_hse06_ddec_charge
 _atom_site_hse06_ddec_spin_density
 _atom_site_hse06_ddec_sum_bond_order
 _atom_site_hse06_magmom
 _atom_site_pbe_bader_spin_density
 _atom_site_pbe_cm5_charge
 _atom_site_pbe_ddec_charge
 _atom_site_pbe_ddec_spin_density
 _atom_site_pbe_ddec_sum_bond_order
 _atom_site_pbe_magmom
Hg  Hg0  1  0.42087068  0.31184287  0.95585527  1  0  0.654132  0  2.11306  0  0  0.499714  0  2.612139  0  0  0.550305  0  2.581222  0  0  0.451289  0.46475  0  2.633995  0
Hg  Hg1  1  0.92087687  0.68816083  0.54414280  1  0  0.654168  0  2.113065  0  0  0.499763  0  2.612133  0  0  0.550354  0  2.581213  0  0  0.451274  0.464799  0  2.633987  0
Hg  Hg2  1  0.57912853  0.68815914  0.04414426  1  0  0.654162  0  2.11308  0  0  0.49975  0  2.612155  0  0  0.550344  0  2.581234  0  0  0.451308  0.464789  0  2.63401  0
Hg  Hg3  1  0.07912335  0.31183823  0.45585595  1  0  0.654164  0  2.113065  0  0  0.499751  0  2.612141  0  0  0.550342  0  2.581221  0  0  0.451278  0.464788  0  2.633993  0
H  H4  1  0.62413903  0.33292572  0.60694318  1  0  0.10749  0  0.969967  0  0  0.118069  0  1.029652  0  0  0.121105  0  1.028139  0  0  0.100719  0.115872  0  1.030895  0
H  H5  1  0.12413843  0.66707074  0.89305777  1  0  0.107525  0  0.969921  0  0  0.1181  0  1.029601  0  0  0.121138  0  1.028092  0  0  0.100718  0.115902  0  1.030845  0
H  H6  1  0.37586322  0.66707234  0.39305670  1  0  0.107496  0  0.969947  0  0  0.118071  0  1.029635  0  0  0.121108  0  1.028124  0  0  0.100717  0.115874  0  1.030878  0
H  H7  1  0.87585978  0.33292929  0.10694264  1  0  0.10747  0  0.969977  0  0  0.118036  0  1.029661  0  0  0.121071  0  1.028151  0  0  0.100679  0.115838  0  1.030904  0
H  H8  1  0.59431723  0.94026873  0.61492764  1  0  0.107453  0  0.99759  0  0  0.110069  0  1.071532  0  0  0.113548  0  1.071006  0  0  0.094746  0.107563  0  1.072145  0
H  H9  1  0.09431579  0.05972965  0.88507515  1  0  0.107432  0  0.997594  0  0  0.11009  0  1.071498  0  0  0.113572  0  1.070971  0  0  0.094743  0.107585  0  1.07211  0
H  H10  1  0.40568703  0.05973029  0.38507531  1  0  0.107397  0  0.997625  0  0  0.110058  0  1.071532  0  0  0.113537  0  1.071004  0  0  0.094749  0.107552  0  1.072144  0
H  H11  1  0.90567434  0.94027236  0.11492438  1  0  0.107489  0  0.997583  0  0  0.110134  0  1.071491  0  0  0.113616  0  1.070965  0  0  0.094777  0.107628  0  1.072104  0
H  H12  1  0.65307758  0.09024035  0.52186099  1  0  0.094858  0  0.932347  0  0  0.108123  0  0.988095  0  0  0.110573  0  0.986651  0  0  0.109513  0.106459  0  0.989029  0
H  H13  1  0.15307434  0.90975613  0.97814144  1  0  0.094767  0  0.93241  0  0  0.108084  0  0.988105  0  0  0.110535  0  0.98666  0  0  0.109502  0.106422  0  0.989038  0
H  H14  1  0.34692568  0.90975770  0.47814099  1  0  0.094775  0  0.932429  0  0  0.108094  0  0.988119  0  0  0.110546  0  0.986674  0  0  0.109505  0.106431  0  0.989053  0
H  H15  1  0.84691680  0.09024390  0.02185897  1  0  0.094829  0  0.93242  0  0  0.108103  0  0.988161  0  0  0.110554  0  0.986717  0  0  0.109511  0.10644  0  0.989095  0
H  H16  1  0.52210174  0.41545812  0.77937100  1  0  0.078421  0  0.978237  0  0  0.085041  0  1.047739  0  0  0.087287  0  1.046053  0  0  0.102748  0.083624  0  1.048541  0
H  H17  1  0.02210021  0.58454121  0.72062905  1  0  0.078398  0  0.978267  0  0  0.08502  0  1.047765  0  0  0.087264  0  1.046084  0  0  0.102741  0.083603  0  1.048567  0
H  H18  1  0.47790152  0.58454291  0.22062898  1  0  0.07842  0  0.978245  0  0  0.085045  0  1.047743  0  0  0.087289  0  1.046063  0  0  0.102755  0.083629  0  1.048543  0
H  H19  1  0.97790001  0.41545589  0.27936987  1  0  0.078409  0  0.978258  0  0  0.085029  0  1.047762  0  0  0.087273  0  1.046079  0  0  0.102762  0.083612  0  1.048564  0
H  H20  1  0.68137551  0.83608920  0.81890032  1  0  0.086709  0  0.967574  0  0  0.093989  0  1.035872  0  0  0.097416  0  1.034032  0  0  0.0881  0.091395  0  1.037371  0
H  H21  1  0.18136886  0.16391522  0.68109941  1  0  0.086776  0  0.967546  0  0  0.094028  0  1.035868  0  0  0.097452  0  1.034033  0  0  0.088151  0.091439  0  1.03737  0
H  H22  1  0.31863078  0.16391869  0.18110220  1  0  0.086764  0  0.967575  0  0  0.094023  0  1.035887  0  0  0.097445  0  1.034054  0  0  0.088173  0.091433  0  1.037389  0
H  H23  1  0.81863137  0.83608781  0.31889689  1  0  0.08675  0  0.967568  0  0  0.094014  0  1.035883  0  0  0.097438  0  1.034049  0  0  0.08815  0.091423  0  1.037385  0
H  H24  1  0.68176930  0.59693994  0.72972629  1  0  0.088473  0  0.960925  0  0  0.098246  0  1.023815  0  0  0.101203  0  1.022578  0  0  0.089193  0.095858  0  1.025326  0
H  H25  1  0.18176407  0.40306445  0.77027694  1  0  0.088521  0  0.960817  0  0  0.098252  0  1.02376  0  0  0.101203  0  1.022521  0  0  0.089185  0.095864  0  1.02527  0
H  H26  1  0.31823699  0.40306695  0.27027877  1  0  0.088513  0  0.960825  0  0  0.098244  0  1.023765  0  0  0.101194  0  1.022525  0  0  0.089181  0.095856  0  1.025274  0
H  H27  1  0.81823313  0.59693857  0.22972076  1  0  0.088496  0  0.960842  0  0  0.098235  0  1.02376  0  0  0.101184  0  1.022523  0  0  0.089197  0.095846  0  1.025272  0
H  H28  1  0.30746244  0.62788450  0.58444788  1  0  0.082867  0  0.994565  0  0  0.087792  0  1.067755  0  0  0.090993  0  1.066004  0  0  0.081319  0.085567  0  1.068925  0
H  H29  1  0.80746070  0.37211311  0.91555667  1  0  0.082834  0  0.99465  0  0  0.087773  0  1.067824  0  0  0.090976  0  1.066071  0  0  0.08133  0.085546  0  1.068995  0
H  H30  1  0.69254284  0.37211256  0.41555523  1  0  0.082762  0  0.994693  0  0  0.087723  0  1.067855  0  0  0.090928  0  1.066098  0  0  0.081295  0.0855  0  1.069023  0
H  H31  1  0.19253649  0.62788203  0.08444033  1  0  0.082793  0  0.994719  0  0  0.087773  0  1.067834  0  0  0.090979  0  1.066077  0  0  0.081326  0.08555  0  1.069002  0
H  H32  1  0.30853149  0.87021409  0.67221654  1  0  0.085339  0  0.951321  0  0  0.097242  0  1.011029  0  0  0.099844  0  1.010474  0  0  0.093317  0.095164  0  1.011997  0
H  H33  1  0.80853238  0.12978152  0.82779099  1  0  0.08537  0  0.951231  0  0  0.097224  0  1.010998  0  0  0.099823  0  1.010444  0  0  0.093314  0.095148  0  1.011967  0
H  H34  1  0.69146974  0.12978098  0.32778815  1  0  0.085377  0  0.951263  0  0  0.097263  0  1.01099  0  0  0.099862  0  1.010438  0  0  0.093319  0.095185  0  1.011959  0
H  H35  1  0.19146987  0.87021165  0.17220618  1  0  0.085385  0  0.951267  0  0  0.097264  0  1.010998  0  0  0.099867  0  1.010442  0  0  0.093306  0.095187  0  1.011967  0
H  H36  1  0.49311907  0.49221844  0.61022174  1  0  0.083524  0  0.984451  0  0  0.092577  0  1.050684  0  0  0.095451  0  1.049299  0  0  0.088139  0.090481  0  1.051589  0
H  H37  1  0.99311209  0.50777840  0.88978029  1  0  0.08347  0  0.984589  0  0  0.092502  0  1.050852  0  0  0.095374  0  1.049471  0  0  0.088118  0.090407  0  1.051757  0
H  H38  1  0.50689126  0.50778058  0.38978190  1  0  0.083486  0  0.984547  0  0  0.092523  0  1.050818  0  0  0.095397  0  1.049436  0  0  0.088116  0.090428  0  1.051722  0
H  H39  1  0.00688208  0.49221577  0.11021504  1  0  0.083481  0  0.984453  0  0  0.092533  0  1.050708  0  0  0.095409  0  1.049321  0  0  0.088114  0.090438  0  1.051612  0
H  H40  1  0.41895909  0.89070878  0.92168093  1  0  0.066058  0  0.944089  0  0  0.079156  0  1.011336  0  0  0.07962  0  1.012089  0  0  0.097391  0.077332  0  1.012887  0
H  H41  1  0.91896668  0.10929194  0.57831914  1  0  0.066112  0  0.944008  0  0  0.079244  0  1.011204  0  0  0.079709  0  1.011955  0  0  0.097428  0.077419  0  1.012759  0
H  H42  1  0.58103508  0.10929126  0.07831878  1  0  0.066112  0  0.944031  0  0  0.079221  0  1.011251  0  0  0.079685  0  1.012003  0  0  0.097426  0.077398  0  1.012805  0
H  H43  1  0.08103658  0.89070714  0.42167821  1  0  0.066124  0  0.944085  0  0  0.079215  0  1.011295  0  0  0.07968  0  1.012047  0  0  0.097434  0.077392  0  1.012847  0
H  H44  1  0.35194548  0.04226588  0.00643147  1  0  0.062488  0  0.951759  0  0  0.076723  0  1.022414  0  0  0.077129  0  1.021688  0  0  0.095316  0.076261  0  1.022805  0
H  H45  1  0.85195105  0.95773668  0.49357156  1  0  0.062433  0  0.951748  0  0  0.076681  0  1.022391  0  0  0.077082  0  1.021668  0  0  0.095272  0.076239  0  1.022768  0
H  H46  1  0.64804565  0.95773513  0.99356990  1  0  0.06243  0  0.951777  0  0  0.07668  0  1.022426  0  0  0.077084  0  1.0217  0  0  0.095278  0.076244  0  1.022799  0
H  H47  1  0.14805120  0.04226633  0.50642614  1  0  0.06244  0  0.9517  0  0  0.076657  0  1.022373  0  0  0.07706  0  1.021649  0  0  0.095259  0.076203  0  1.022758  0
C  C48  1  0.59579139  0.26453587  0.64408014  1  0  -0.082063  0  3.697516  0  0  -0.096587  0  3.945991  0  0  -0.101098  0  3.964394  0  0  -0.075602  -0.094089  0  3.933242  0
C  C49  1  0.09578955  0.73546351  0.85592152  1  0  -0.082155  0  3.697387  0  0  -0.096659  0  3.94585  0  0  -0.101174  0  3.964255  0  0  -0.075585  -0.094158  0  3.933098  0
C  C50  1  0.40421085  0.73546515  0.35592053  1  0  -0.082148  0  3.697367  0  0  -0.096667  0  3.945855  0  0  -0.10118  0  3.964259  0  0  -0.075635  -0.094167  0  3.933105  0
C  C51  1  0.90420360  0.26453750  0.14407985  1  0  -0.082077  0  3.697577  0  0  -0.096548  0  3.945991  0  0  -0.101059  0  3.964395  0  0  -0.075511  -0.094046  0  3.933237  0
C  C52  1  0.57876562  0.04601667  0.64891688  1  0  -0.136439  0  3.697458  0  0  -0.155385  0  3.945894  0  0  -0.162189  0  3.967722  0  0  -0.078202  -0.151038  0  3.931106  0
C  C53  1  0.07876267  0.95398072  0.85108560  1  0  -0.136514  0  3.697462  0  0  -0.155514  0  3.945921  0  0  -0.162322  0  3.96775  0  0  -0.078264  -0.151167  0  3.931133  0
C  C54  1  0.42123865  0.95398237  0.35108466  1  0  -0.136388  0  3.697371  0  0  -0.155396  0  3.94581  0  0  -0.162198  0  3.967636  0  0  -0.078229  -0.151048  0  3.931023  0
C  C55  1  0.92122746  0.04601637  0.14891402  1  0  -0.136442  0  3.697462  0  0  -0.155431  0  3.945943  0  0  -0.162238  0  3.967771  0  0  -0.078274  -0.151086  0  3.931161  0
C  C56  1  0.52631447  0.09968358  0.74577423  1  0  0.151995  0  3.750888  0  0  0.148501  0  3.993807  0  0  0.152797  0  4.01575  0  0  0.114062  0.146043  0  3.978487  0
C  C57  1  0.02631099  0.90031670  0.75422819  1  0  0.151917  0  3.750771  0  0  0.148453  0  3.993676  0  0  0.15275  0  4.015617  0  0  0.114064  0.145996  0  3.978357  0
C  C58  1  0.47368980  0.90031938  0.25422837  1  0  0.151873  0  3.750772  0  0  0.14847  0  3.993662  0  0  0.152766  0  4.015602  0  0  0.114088  0.146013  0  3.978342  0
C  C59  1  0.97368418  0.09967943  0.24576767  1  0  0.15188  0  3.750811  0  0  0.148357  0  3.993775  0  0  0.152651  0  4.015718  0  0  0.114071  0.1459  0  3.978456  0
C  C60  1  0.61313938  0.12995202  0.59758240  1  0  0.006653  0  3.707238  0  0  -0.012041  0  3.957892  0  0  -0.008961  0  3.975446  0  0  -0.06216  -0.013284  0  3.945031  0
C  C61  1  0.11313573  0.87004540  0.90242088  1  0  0.006896  0  3.707188  0  0  -0.01185  0  3.957828  0  0  -0.008767  0  3.975379  0  0  -0.062097  -0.013094  0  3.944968  0
C  C62  1  0.38686388  0.87004700  0.40242124  1  0  0.00682  0  3.707149  0  0  -0.011919  0  3.957801  0  0  -0.008838  0  3.975352  0  0  -0.062123  -0.013163  0  3.944942  0
C  C63  1  0.88685439  0.12995464  0.09757953  1  0  0.006674  0  3.707295  0  0  -0.012036  0  3.957934  0  0  -0.008954  0  3.975485  0  0  -0.062194  -0.01328  0  3.945075  0
C  C64  1  0.54134296  0.31113700  0.74025997  1  0  0.13838  0  3.674613  0  0  0.107442  0  3.922075  0  0  0.114264  0  3.940263  0  0  0.053858  0.103637  0  3.908297  0
C  C65  1  0.04134060  0.68886233  0.75974083  1  0  0.138523  0  3.674515  0  0  0.107582  0  3.921968  0  0  0.114405  0  3.940153  0  0  0.053959  0.103777  0  3.908189  0
C  C66  1  0.45866029  0.68886403  0.25973931  1  0  0.138426  0  3.674466  0  0  0.107485  0  3.92194  0  0  0.114307  0  3.940125  0  0  0.053907  0.10368  0  3.908161  0
C  C67  1  0.95865659  0.31113771  0.24025888  1  0  0.138527  0  3.674608  0  0  0.107569  0  3.92206  0  0  0.114393  0  3.940243  0  0  0.053935  0.103763  0  3.908281  0
C  C68  1  0.49566554  0.01359951  0.80493133  1  0  0.194163  0  3.707895  0  0  0.177385  0  3.955882  0  0  0.189348  0  3.970555  0  0  0.15827  0.169265  0  3.94572  0
C  C69  1  0.99566539  0.98640128  0.69507037  1  0  0.194195  0  3.707846  0  0  0.177387  0  3.955875  0  0  0.189349  0  3.970551  0  0  0.158243  0.169267  0  3.945715  0
C  C70  1  0.50433368  0.98640347  0.19507057  1  0  0.194243  0  3.707921  0  0  0.177333  0  3.956071  0  0  0.189294  0  3.970747  0  0  0.158223  0.169213  0  3.945908  0
C  C71  1  0.00433484  0.01359484  0.30492689  1  0  0.194098  0  3.708175  0  0  0.177353  0  3.956122  0  0  0.189316  0  3.970798  0  0  0.158201  0.169231  0  3.945962  0
C  C72  1  0.49511465  0.86905678  0.75113936  1  0  -0.009826  0  3.821937  0  0  0.016212  0  4.044307  0  0  0.013494  0  4.067562  0  0  -0.020682  0.018127  0  4.028417  0
C  C73  1  0.99511308  0.13094204  0.74886181  1  0  -0.00996  0  3.821988  0  0  0.016106  0  4.044338  0  0  0.013385  0  4.067606  0  0  -0.020706  0.018027  0  4.028447  0
C  C74  1  0.50488558  0.13094226  0.24886149  1  0  -0.009882  0  3.82205  0  0  0.016193  0  4.044435  0  0  0.013475  0  4.067695  0  0  -0.020721  0.018105  0  4.028548  0
C  C75  1  0.00488614  0.86905900  0.25113606  1  0  -0.009789  0  3.821949  0  0  0.016241  0  4.044313  0  0  0.013522  0  4.067577  0  0  -0.020639  0.018163  0  4.028414  0
C  C76  1  0.59948311  0.79128795  0.76713160  1  0  -0.105158  0  3.749452  0  0  -0.125573  0  3.995838  0  0  -0.128042  0  4.017254  0  0  -0.095213  -0.123337  0  3.980947  0
C  C77  1  0.09947875  0.20871341  0.73286990  1  0  -0.10522  0  3.749401  0  0  -0.125608  0  3.99579  0  0  -0.128075  0  4.017205  0  0  -0.095278  -0.123384  0  3.980907  0
C  C78  1  0.40052115  0.20871306  0.23287047  1  0  -0.105205  0  3.749536  0  0  -0.125596  0  3.995917  0  0  -0.12806  0  4.017328  0  0  -0.095282  -0.123366  0  3.981033  0
C  C79  1  0.90052552  0.79128761  0.26713008  1  0  -0.105317  0  3.749512  0  0  -0.125725  0  3.995915  0  0  -0.128192  0  4.017328  0  0  -0.095365  -0.123499  0  3.981029  0
C  C80  1  0.59943552  0.65588142  0.71668219  1  0  -0.068877  0  3.785564  0  0  -0.082056  0  4.038939  0  0  -0.084744  0  4.061359  0  0  -0.097121  -0.080505  0  4.023609  0
C  C81  1  0.09942836  0.34411993  0.78332001  1  0  -0.068964  0  3.785397  0  0  -0.082115  0  4.038802  0  0  -0.084791  0  4.061212  0  0  -0.097137  -0.080561  0  4.023475  0
C  C82  1  0.40057279  0.34411958  0.28332058  1  0  -0.068939  0  3.785432  0  0  -0.082065  0  4.038818  0  0  -0.084742  0  4.061226  0  0  -0.097098  -0.080511  0  4.023486  0
C  C83  1  0.90056985  0.65588112  0.21667647  1  0  -0.068861  0  3.785449  0  0  -0.081987  0  4.038841  0  0  -0.084662  0  4.061248  0  0  -0.09711  -0.080431  0  4.023512  0
C  C84  1  0.38953567  0.67423924  0.63553667  1  0  -0.061384  0  3.765238  0  0  -0.071267  0  4.01076  0  0  -0.073529  0  4.032265  0  0  -0.095449  -0.06962  0  3.996112  0
C  C85  1  0.88953265  0.32575749  0.86446576  1  0  -0.061317  0  3.765351  0  0  -0.071222  0  4.010881  0  0  -0.073485  0  4.032388  0  0  -0.095448  -0.06957  0  3.996231  0
C  C86  1  0.61046961  0.32575881  0.36446600  1  0  -0.061183  0  3.765258  0  0  -0.071089  0  4.010789  0  0  -0.073351  0  4.032295  0  0  -0.095363  -0.069445  0  3.996139  0
C  C87  1  0.11046656  0.67424159  0.13553089  1  0  -0.061356  0  3.765347  0  0  -0.07127  0  4.010886  0  0  -0.073534  0  4.032396  0  0  -0.09545  -0.069625  0  3.996237  0
C  C88  1  0.39020558  0.80994686  0.68463735  1  0  -0.105058  0  3.744455  0  0  -0.125213  0  3.988608  0  0  -0.127362  0  4.010196  0  0  -0.09502  -0.124103  0  3.974281  0
C  C89  1  0.89020436  0.19004890  0.81536342  1  0  -0.104979  0  3.744393  0  0  -0.125095  0  3.988545  0  0  -0.127241  0  4.010136  0  0  -0.094958  -0.123989  0  3.974215  0
C  C90  1  0.60979667  0.19005022  0.31536227  1  0  -0.105187  0  3.744429  0  0  -0.125328  0  3.988599  0  0  -0.127476  0  4.010188  0  0  -0.095046  -0.124213  0  3.974267  0
C  C91  1  0.10979789  0.80994429  0.18463165  1  0  -0.104997  0  3.744332  0  0  -0.125133  0  3.98848  0  0  -0.127284  0  4.010076  0  0  -0.094946  -0.124023  0  3.974146  0
C  C92  1  0.49483963  0.59766446  0.65073439  1  0  -0.056765  0  3.753915  0  0  -0.072265  0  4.000006  0  0  -0.073743  0  4.02117  0  0  -0.092077  -0.071218  0  3.985305  0
C  C93  1  0.99483145  0.40233729  0.84926966  1  0  -0.056692  0  3.754029  0  0  -0.072175  0  4.000096  0  0  -0.073653  0  4.021257  0  0  -0.092058  -0.071131  0  3.9854  0
C  C94  1  0.50516969  0.40233751  0.34927004  1  0  -0.056696  0  3.753982  0  0  -0.072213  0  4.00009  0  0  -0.073691  0  4.021251  0  0  -0.092074  -0.071168  0  3.985394  0
C  C95  1  0.00516171  0.59766374  0.15072961  1  0  -0.056683  0  3.753814  0  0  -0.072212  0  3.999928  0  0  -0.073691  0  4.021093  0  0  -0.092039  -0.071166  0  3.985226  0
C  C96  1  0.44169598  0.99477307  0.96323647  1  0  0.00421  0  3.683511  0  0  -0.04874  0  3.943105  0  0  -0.045742  0  3.956468  0  0  -0.06791  -0.050294  0  3.934083  0
C  C97  1  0.94170034  0.00522866  0.53676324  1  0  0.004267  0  3.68335  0  0  -0.048728  0  3.942955  0  0  -0.045721  0  3.95631  0  0  -0.067866  -0.050295  0  3.933927  0
C  C98  1  0.55829920  0.00522894  0.03676307  1  0  0.004278  0  3.683374  0  0  -0.048698  0  3.942992  0  0  -0.045701  0  3.956365  0  0  -0.067877  -0.050273  0  3.933962  0
C  C99  1  0.05830089  0.99477140  0.46323368  1  0  0.004096  0  3.683572  0  0  -0.048768  0  3.943025  0  0  -0.045766  0  3.956382  0  0  -0.067921  -0.050328  0  3.934001  0
Br  Br100  1  0.62785425  0.42985502  0.07271260  1  0  -0.433971  0  1.102385  0  0  -0.374019  0  1.418711  0  0  -0.395959  0  1.39903  0  0  -0.209519  -0.359704  0  1.434409  0
Br  Br101  1  0.12785489  0.57014340  0.42728662  1  0  -0.433971  0  1.102376  0  0  -0.374012  0  1.418694  0  0  -0.395954  0  1.399017  0  0  -0.209514  -0.359697  0  1.434393  0
Br  Br102  1  0.37214698  0.57014404  0.92728685  1  0  -0.433964  0  1.102393  0  0  -0.374022  0  1.418732  0  0  -0.395962  0  1.399052  0  0  -0.209522  -0.359706  0  1.434434  0
Br  Br103  1  0.87214635  0.42985566  0.57271282  1  0  -0.433939  0  1.102365  0  0  -0.373989  0  1.418701  0  0  -0.395934  0  1.399027  0  0  -0.209494  -0.359673  0  1.434401  0
Br  Br104  1  0.19693002  0.28007305  0.03538366  1  0  -0.435909  0  1.02909  0  0  -0.378257  0  1.326208  0  0  -0.398324  0  1.312132  0  0  -0.222724  -0.363319  0  1.335949  0
Br  Br105  1  0.69693449  0.71993628  0.46461656  1  0  -0.43593  0  1.029139  0  0  -0.378288  0  1.326262  0  0  -0.398353  0  1.312188  0  0  -0.222715  -0.363347  0  1.336005  0
Br  Br106  1  0.80306819  0.71992699  0.96461675  1  0  -0.435911  0  1.029118  0  0  -0.378254  0  1.326232  0  0  -0.398321  0  1.312159  0  0  -0.222721  -0.363315  0  1.335974  0
Br  Br107  1  0.30306877  0.28006578  0.53537808  1  0  -0.435921  0  1.029132  0  0  -0.378278  0  1.326253  0  0  -0.398343  0  1.31218  0  0  -0.222714  -0.363337  0  1.335994  0
N  N108  1  0.47463026  0.06888243  0.89928386  1  0  -0.306729  0  3.138784  0  0  -0.24011  0  3.406977  0  0  -0.259647  0  3.425542  0  0  -0.309852  -0.226854  0  3.394516  0
N  N109  1  0.97463770  0.93111737  0.60071612  1  0  -0.306703  0  3.138622  0  0  -0.240114  0  3.406873  0  0  -0.259653  0  3.425436  0  0  -0.309842  -0.226861  0  3.394422  0
N  N110  1  0.52536289  0.93111661  0.10071769  1  0  -0.306773  0  3.138691  0  0  -0.240125  0  3.406947  0  0  -0.259663  0  3.425509  0  0  -0.309839  -0.226871  0  3.394496  0
N  N111  1  0.02536253  0.06888074  0.39928027  1  0  -0.306654  0  3.138835  0  0  -0.240075  0  3.406988  0  0  -0.259614  0  3.425553  0  0  -0.309841  -0.226821  0  3.394532  0
N  N112  1  0.50683180  0.23058386  0.78910958  1  0  -0.291061  0  3.259239  0  0  -0.214784  0  3.514456  0  0  -0.235057  0  3.537159  0  0  -0.296455  -0.200058  0  3.497023  0
N  N113  1  0.00683015  0.76941544  0.71089182  1  0  -0.291165  0  3.259197  0  0  -0.214905  0  3.514428  0  0  -0.235179  0  3.537127  0  0  -0.296564  -0.20018  0  3.496995  0
N  N114  1  0.49317247  0.76941715  0.21089179  1  0  -0.291038  0  3.259231  0  0  -0.214783  0  3.514432  0  0  -0.235057  0  3.537133  0  0  -0.296494  -0.200058  0  3.496999  0
N  N115  1  0.99316704  0.23058363  0.28910693  1  0  -0.291097  0  3.259141  0  0  -0.214818  0  3.514388  0  0  -0.23509  0  3.537086  0  0  -0.296515  -0.200093  0  3.496955  0
