# generated using pymatgen
data_CoH98C86(N2O)6
_symmetry_space_group_name_H-M   'P 1'
_cell_length_a   9.14779942
_cell_length_b   13.03882111
_cell_length_c   18.88363764
_cell_angle_alpha   97.38989465
_cell_angle_beta   93.27542401
_cell_angle_gamma   97.94985187
_symmetry_Int_Tables_number   1
_chemical_formula_structural   CoH98C86(N2O)6
_chemical_formula_sum   'Co1 H98 C86 N12 O6'
_cell_volume   2205.75308590
_cell_formula_units_Z   1
loop_
 _symmetry_equiv_pos_site_id
 _symmetry_equiv_pos_as_xyz
  1  'x, y, z'
loop_
 _atom_site_type_symbol
 _atom_site_label
 _atom_site_symmetry_multiplicity
 _atom_site_fract_x
 _atom_site_fract_y
 _atom_site_fract_z
 _atom_site_occupancy
 _atom_site_pbe_bader_charge
 _atom_site_pbe_bader_spin_density
 _atom_site_pbe_cm5_charge
 _atom_site_pbe_ddec_charge
 _atom_site_pbe_ddec_spin_density
 _atom_site_pbe_ddec_sum_bond_order
 _atom_site_pbe_magmom
Co  Co0  1  0.50000239  0.00000218  0.49999821  1  1.069766  -1.005989  0.695637  0.568501  -1.059795  2.872752  -0.985
H  H1  1  0.76209585  0.90045968  0.45710153  1  0.138008  2.2e-05  0.115543  0.080701  0.000156  1.082623  0.0
H  H2  1  0.23791734  0.09955225  0.54289762  1  0.137935  2.2e-05  0.115545  0.080696  0.000156  1.082603  0.0
H  H3  1  0.99866547  0.87754832  0.51957475  1  0.075837  0.000166  0.105117  0.106068  0.000134  1.010817  0.0
H  H4  1  0.00134670  0.12246905  0.48042650  1  0.076341  0.000166  0.105127  0.106138  0.000134  1.010891  0.0
H  H5  1  0.05097458  0.94614829  0.65148257  1  0.132716  -1.7e-05  0.108668  0.11436  4.1e-05  1.035191  0.0
H  H6  1  0.94902436  0.05386276  0.34852046  1  0.13244  -1.7e-05  0.108668  0.11431  4.1e-05  1.035215  0.0
H  H7  1  0.62964154  0.05754213  0.64246955  1  0.15886  -0.00019  0.122739  0.107092  0.000103  1.043309  0.0
H  H8  1  0.37034929  0.94245643  0.35752947  1  0.158893  -0.00019  0.122756  0.107174  0.000103  1.043264  0.0
H  H9  1  0.63946914  0.95457783  0.74833054  1  0.064384  3.8e-05  0.102736  0.112123  4.1e-05  1.025163  0.0
H  H10  1  0.36052704  0.04541447  0.25166955  1  0.064473  3.8e-05  0.102745  0.112147  4.1e-05  1.025117  0.0
H  H11  1  0.07263793  0.12653052  0.73964218  1  0.097485  -1.5e-05  0.099495  0.103882  -1.1e-05  1.065666  0.0
H  H12  1  0.92735253  0.87347112  0.26035977  1  0.097295  -1.5e-05  0.099465  0.103845  -1.1e-05  1.065771  0.0
H  H13  1  0.60162659  0.04510344  0.93433863  1  0.025143  0.0  0.092861  0.059002  0.0  0.968044  0.0
H  H14  1  0.39836547  0.95489044  0.06565995  1  0.025098  1e-06  0.092881  0.059042  1e-06  0.968004  0.0
H  H15  1  0.78271872  0.92972942  0.97063296  1  0.061412  -0.0  0.085083  0.116697  0.0  1.046449  0.0
H  H16  1  0.21727104  0.07026828  0.02937124  1  0.06135  -0.0  0.085082  0.116697  0.0  1.046389  0.0
H  H17  1  0.70477030  0.83169147  0.89890195  1  0.02058  -0.0  0.081277  0.112286  -0.0  1.020507  0.0
H  H18  1  0.29522186  0.16830151  0.10110395  1  0.020552  -0.0  0.081274  0.112247  -0.0  1.020428  0.0
H  H19  1  0.59631216  0.86881958  0.97052250  1  0.022571  -0.0  0.082074  0.110735  -0.0  1.021627  0.0
H  H20  1  0.40367528  0.13117731  0.02948264  1  0.022765  -0.0  0.081998  0.110668  0.0  1.021784  0.0
H  H21  1  0.39577032  0.91268267  0.88634975  1  0.031447  -0.0  0.081198  0.112652  0.0  1.036976  0.0
H  H22  1  0.60422268  0.08731043  0.11364877  1  0.031572  -0.0  0.081225  0.11266  0.0  1.036999  0.0
H  H23  1  0.49395203  0.86340207  0.81475991  1  0.008685  -0.0  0.082634  0.113065  -1e-06  1.016088  0.0
H  H24  1  0.50604195  0.13659022  0.18524014  1  0.008819  -0.0  0.082647  0.113067  -1e-06  1.016087  0.0
H  H25  1  0.43995135  0.98914330  0.81727414  1  0.074155  -1e-06  0.085412  0.123174  2e-06  1.035421  0.0
H  H26  1  0.56004480  0.01084901  0.18272490  1  0.074096  -1e-06  0.085411  0.123177  3e-06  1.035438  0.0
H  H27  1  0.11334820  0.21446527  0.93900324  1  0.045511  3e-06  0.093424  0.06011  3e-06  0.977402  0.0
H  H28  1  0.88664980  0.78553012  0.06099984  1  0.045281  3e-06  0.093391  0.060043  3e-06  0.977376  0.0
H  H29  1  0.25549569  0.07300840  0.89651100  1  0.02857  -1e-06  0.084021  0.116498  -0.0  1.032149  0.0
H  H30  1  0.74450014  0.92698697  0.10349256  1  0.028179  -1e-06  0.08402  0.116522  -0.0  1.032233  0.0
H  H31  1  0.36601149  0.19720458  0.89961036  1  -0.021093  1e-06  0.080367  0.106936  0.0  1.014231  0.0
H  H32  1  0.63398723  0.80278927  0.10039099  1  -0.021591  1e-06  0.080323  0.106884  0.0  1.014272  0.0
H  H33  1  0.28586153  0.12658596  0.81610795  1  0.04021  8e-06  0.085023  0.120467  1.4e-05  1.038817  0.0
H  H34  1  0.71413110  0.87340474  0.18389351  1  0.040121  8e-06  0.085011  0.120459  1.4e-05  1.038889  0.0
H  H35  1  0.05252688  0.34515383  0.85879432  1  0.009387  -0.0  0.081011  0.107425  -0.0  1.009902  0.0
H  H36  1  0.94747254  0.65484313  0.14120894  1  0.009451  -0.0  0.080991  0.107384  -0.0  1.0099  0.0
H  H37  1  0.17318938  0.29625920  0.79637640  1  0.042739  1e-06  0.088572  0.124214  1e-06  1.011325  0.0
H  H38  1  0.82681208  0.70373697  0.20362734  1  0.043128  1e-06  0.088601  0.124281  1e-06  1.011296  0.0
H  H39  1  0.24605275  0.35706799  0.88309387  1  0.035193  0.0  0.083235  0.111613  0.0  1.014848  0.0
H  H40  1  0.75394843  0.64292660  0.11691077  1  0.035632  0.0  0.083241  0.111642  0.0  1.014794  0.0
H  H41  1  0.73653951  0.24601916  0.90469126  1  0.023556  -0.0  0.097924  0.141531  -0.0  1.006881  0.0
H  H42  1  0.26346999  0.75397942  0.09530970  1  0.023523  -0.0  0.097877  0.141505  -0.0  1.006852  0.0
H  H43  1  0.79862168  0.34348233  0.98070400  1  0.096204  -0.0  0.101159  0.149772  0.0  0.981761  0.0
H  H44  1  0.20138621  0.65651392  0.01929563  1  0.096162  -0.0  0.101169  0.149747  0.0  0.981816  0.0
H  H45  1  0.63532669  0.25674675  0.98340390  1  0.06642  -0.0  0.099289  0.141096  -0.0  1.005345  0.0
H  H46  1  0.36467786  0.74325500  0.01659409  1  0.066342  -0.0  0.099286  0.141097  -0.0  1.005327  0.0
H  H47  1  0.97755554  0.06923563  0.07653168  1  0.121433  -0.0  0.109036  0.110703  0.0  1.047631  0.0
H  H48  1  0.02243416  0.93075661  0.92347094  1  0.121462  -0.0  0.109108  0.1108  0.0  1.047588  0.0
H  H49  1  0.00021979  0.08874356  0.21101330  1  0.105515  -6e-06  0.103381  0.099951  -4e-06  1.045588  0.0
H  H50  1  0.99976424  0.91124242  0.78898806  1  0.105728  -6e-06  0.103336  0.099935  -3e-06  1.045569  0.0
H  H51  1  0.88196682  0.23064925  0.27965134  1  0.070058  1.3e-05  0.108006  0.110803  1.4e-05  1.012462  0.0
H  H52  1  0.11803319  0.76934537  0.72035117  1  0.070147  1.3e-05  0.107989  0.110764  1.4e-05  1.012519  0.0
H  H53  1  0.62224315  0.50346525  0.20778691  1  0.068524  0.0  0.097511  0.142055  -0.0  1.006349  0.0
H  H54  1  0.37776398  0.49653255  0.79221340  1  0.068435  0.0  0.097487  0.14202  -0.0  1.006427  0.0
H  H55  1  0.58730539  0.39862806  0.13425994  1  0.055306  0.0  0.102393  0.149496  0.0  0.990231  0.0
H  H56  1  0.41270420  0.60137049  0.86574366  1  0.055299  0.0  0.102421  0.149464  0.0  0.990284  0.0
H  H57  1  0.75845526  0.47976300  0.14529727  1  0.069041  0.0  0.100683  0.145921  0.0  1.011439  0.0
H  H58  1  0.24154797  0.52023714  0.85470319  1  0.069066  0.0  0.100701  0.145925  0.0  1.011463  0.0
H  H59  1  0.72830118  0.69346514  0.42400210  1  0.061574  4.7e-05  0.099729  0.10395  5e-05  1.043436  0.0
H  H60  1  0.27169714  0.30653729  0.57600114  1  0.061621  4.7e-05  0.099767  0.104024  5e-05  1.043386  0.0
H  H61  1  0.32513809  0.47572400  0.39783976  1  0.077786  1.4e-05  0.096531  0.093183  1e-05  1.053346  0.0
H  H62  1  0.67486150  0.52427458  0.60215942  1  0.077795  1.4e-05  0.096516  0.093179  1e-05  1.053295  0.0
H  H63  1  0.90885170  0.55141923  0.28723779  1  0.013855  2e-06  0.095831  0.063436  -0.0  0.959499  0.0
H  H64  1  0.09114595  0.44858009  0.71276407  1  0.013816  3e-06  0.095817  0.063401  -0.0  0.959434  0.0
H  H65  1  0.95758625  0.42109697  0.36738475  1  0.033743  4e-06  0.081032  0.107454  0.0  1.055858  0.0
H  H66  1  0.04242510  0.57890554  0.63261557  1  0.033751  4e-06  0.081031  0.107512  0.0  1.055739  0.0
H  H67  1  0.99048009  0.52220412  0.44229986  1  -0.017752  1.2e-05  0.07983  0.108866  9e-06  1.026215  0.0
H  H68  1  0.00952677  0.47779758  0.55770135  1  -0.017354  1.2e-05  0.079857  0.108916  9e-06  1.02622  0.0
H  H69  1  0.11161026  0.52204291  0.37193277  1  0.011903  2.4e-05  0.083242  0.113231  2.2e-05  1.03044  0.0
H  H70  1  0.88839215  0.47796429  0.62806677  1  0.011973  2.3e-05  0.083213  0.113173  2.2e-05  1.030468  0.0
H  H71  1  0.07842373  0.70153387  0.34747528  1  0.037314  3e-05  0.085598  0.120628  3.2e-05  0.996646  0.0
H  H72  1  0.92157711  0.29846550  0.65252400  1  0.037317  3e-05  0.085571  0.120598  3.2e-05  0.996689  0.0
H  H73  1  0.97256966  0.71232209  0.42289950  1  0.005488  8e-06  0.078584  0.104958  7e-06  1.024354  0.0
H  H74  1  0.02742862  0.28768122  0.57709800  1  0.005492  8e-06  0.078638  0.105028  7e-06  1.02416  0.0
H  H75  1  0.89938811  0.73933450  0.33917916  1  0.058865  -5e-06  0.088252  0.129902  -0.0  1.042047  0.0
H  H76  1  0.10061172  0.26066568  0.66081806  1  0.059007  -5e-06  0.088235  0.129884  -0.0  1.042057  0.0
H  H77  1  0.49699983  0.26607777  0.29387712  1  0.030574  4e-06  0.095067  0.063326  2e-06  0.982387  0.0
H  H78  1  0.50300191  0.73392717  0.70611637  1  0.030449  4e-06  0.095028  0.063277  2e-06  0.982252  0.0
H  H79  1  0.26912707  0.18928830  0.34218537  1  0.032926  3.7e-05  0.080053  0.110465  4.5e-05  1.051714  0.0
H  H80  1  0.73087887  0.81071040  0.65780759  1  0.0329  3.7e-05  0.080005  0.110297  4.5e-05  1.051771  0.0
H  H81  1  0.24334383  0.31187587  0.38764371  1  0.006213  1e-06  0.080151  0.108596  -2e-06  1.016846  0.0
H  H82  1  0.75666245  0.68811805  0.61235461  1  0.006374  1e-06  0.080147  0.108537  -3e-06  1.016774  0.0
H  H83  1  0.39858581  0.25318402  0.41314018  1  0.043972  3.8e-05  0.079611  0.111815  7.6e-05  1.052746  0.0
H  H84  1  0.60142229  0.74680923  0.58685175  1  0.043999  3.8e-05  0.079585  0.111735  7.6e-05  1.052728  0.0
H  H85  1  0.37705966  0.36593072  0.20649835  1  0.007807  1e-06  0.083174  0.114013  1e-06  1.026779  0.0
H  H86  1  0.62294335  0.63407962  0.79350046  1  0.007879  1e-06  0.083192  0.114095  1e-06  1.026776  0.0
H  H87  1  0.23161484  0.37939729  0.26383473  1  0.032149  1e-06  0.083172  0.115397  -2e-06  1.008447  0.0
H  H88  1  0.76838853  0.62060912  0.73616529  1  0.032183  1e-06  0.083114  0.115308  -2e-06  1.008345  0.0
H  H89  1  0.25634790  0.25327534  0.22255144  1  0.055851  3e-06  0.082314  0.112812  0.0  1.0339  0.0
H  H90  1  0.74364967  0.74673034  0.77744363  1  0.055846  3e-06  0.08238  0.1129  0.0  1.034028  0.0
H  H91  1  0.29967828  0.55823360  0.50875150  1  0.116458  5.5e-05  0.108323  0.107039  0.0001  1.013406  0.0
H  H92  1  0.70031111  0.44177521  0.49124214  1  0.116441  5.5e-05  0.108328  0.107033  0.0001  1.013442  0.0
H  H93  1  0.18455172  0.69686093  0.58037877  1  0.06448  0.000117  0.108518  0.110887  6.7e-05  1.019649  0.0
H  H94  1  0.81544476  0.30315023  0.41961629  1  0.064751  0.000117  0.108532  0.110877  6.7e-05  1.01974  0.0
H  H95  1  0.27721108  0.88411115  0.57423765  1  0.137079  -0.000256  0.117324  0.08672  5e-05  1.057864  0.0
H  H96  1  0.72279642  0.11590000  0.42575973  1  0.137148  -0.000256  0.117304  0.086674  5e-05  1.058024  0.0
H  H97  1  0.56243657  0.80526853  0.42007675  1  0.126394  -0.000146  0.115991  0.084625  6.8e-05  1.086374  0.0
H  H98  1  0.43756695  0.19473404  0.57991866  1  0.12694  -0.000147  0.116048  0.084657  6.8e-05  1.086331  0.0
C  C99  1  0.78752418  0.93025543  0.51366624  1  0.505967  0.005133  0.034954  0.051689  0.005264  3.929897  0.003
C  C100  1  0.21248463  0.06975649  0.48633283  1  0.505317  0.005134  0.035005  0.051889  0.005264  3.92987  0.003
C  C101  1  0.92005575  0.91804694  0.54936384  1  -0.072826  -0.000713  -0.084316  -0.115243  -9.9e-05  4.002205  -0.001
C  C102  1  0.07995144  0.08196727  0.45063808  1  -0.073778  -0.000714  -0.084392  -0.115626  -9.9e-05  4.002654  -0.001
C  C103  1  0.94925675  0.95631694  0.62179523  1  -0.12044  0.0052  -0.070522  -0.085527  0.005299  3.907542  0.003
C  C104  1  0.05074656  0.04369412  0.37820736  1  -0.119623  0.005201  -0.070492  -0.085275  0.0053  3.907537  0.003
C  C105  1  0.84244542  0.00593246  0.65753975  1  0.024261  -0.000593  0.006515  0.051317  -5.9e-05  3.993173  -0.001
C  C106  1  0.15755062  0.99407000  0.34246081  1  0.024586  -0.000593  0.006523  0.051202  -5.9e-05  3.993165  -0.001
C  C107  1  0.71464556  0.01825308  0.61743274  1  0.422143  0.004752  0.044058  0.024022  0.004901  3.865717  0.003
C  C108  1  0.28535277  0.98175020  0.38256635  1  0.422175  0.004752  0.044061  0.024033  0.004901  3.865617  0.003
C  C109  1  0.85437163  0.03883986  0.73563806  1  0.021475  0.00016  -0.025746  0.036999  0.000144  4.08934  0.0
C  C110  1  0.14562259  0.96115866  0.26436419  1  0.021024  0.00016  -0.025737  0.036974  0.000144  4.089473  0.0
C  C111  1  0.73770643  0.00360091  0.77593684  1  -0.065084  -4.6e-05  -0.098861  -0.195567  -1.2e-05  3.987868  0.0
C  C112  1  0.26228973  0.99639140  0.22406273  1  -0.064973  -4.5e-05  -0.098878  -0.195606  -1.2e-05  3.987831  0.0
C  C113  1  0.74625457  0.02714230  0.85039258  1  0.01228  8e-06  -0.01109  0.007395  8e-06  3.898703  0.0
C  C114  1  0.25374145  0.97284921  0.14960744  1  0.012589  8e-06  -0.011074  0.007396  8e-06  3.898722  0.0
C  C115  1  0.87414235  0.09312220  0.88461684  1  0.342986  -2.7e-05  0.090938  0.108039  -1.4e-05  4.047238  0.0
C  C116  1  0.12585282  0.90687005  0.11538587  1  0.342852  -2.6e-05  0.090793  0.107976  -1.4e-05  4.047292  0.0
C  C117  1  0.99199143  0.13004046  0.84494685  1  -0.060527  1.1e-05  -0.008024  0.014238  1.5e-05  3.891518  0.0
C  C118  1  0.00800232  0.86995572  0.15505516  1  -0.060474  1.1e-05  -0.008067  0.014243  1.5e-05  3.891612  0.0
C  C119  1  0.98104782  0.10081568  0.77080876  1  -0.042165  -8.3e-05  -0.093298  -0.177206  -4.9e-05  3.974323  0.0
C  C120  1  0.01894313  0.89918282  0.22919395  1  -0.04209  -8.3e-05  -0.093209  -0.177096  -4.9e-05  3.974299  0.0
C  C121  1  0.62599555  0.98115745  0.89452308  1  0.037488  -2e-06  -0.086049  0.092154  -2e-06  3.882817  0.0
C  C122  1  0.37399677  0.01883717  0.10547822  1  0.037499  -2e-06  -0.085943  0.092217  -2e-06  3.882716  0.0
C  C123  1  0.68143267  0.89830953  0.93631932  1  -0.101379  -2e-06  -0.245584  -0.391869  -1e-06  3.905494  0.0
C  C124  1  0.31856079  0.10168506  0.06368359  1  -0.101426  -2e-06  -0.245544  -0.391779  -1e-06  3.90542  0.0
C  C125  1  0.48138484  0.93473290  0.85044869  1  -0.093193  -3e-06  -0.249331  -0.395462  -3e-06  3.926862  0.0
C  C126  1  0.51861065  0.06525630  0.14954950  1  -0.093558  -3e-06  -0.249427  -0.395539  -3e-06  3.927024  0.0
C  C127  1  0.12922184  0.19992406  0.88148979  1  0.014633  4e-06  -0.088088  0.087473  5e-06  3.882872  0.0
C  C128  1  0.87077289  0.80007131  0.11851375  1  0.014941  4e-06  -0.087926  0.087649  5e-06  3.88286  0.0
C  C129  1  0.26720673  0.14602348  0.87289130  1  -0.021291  1.8e-05  -0.247227  -0.390857  1.7e-05  3.910047  0.0
C  C130  1  0.73278769  0.85397033  0.12711209  1  -0.020317  1.7e-05  -0.247195  -0.390829  1.7e-05  3.910243  0.0
C  C131  1  0.15093689  0.30576564  0.85328841  1  -0.098204  -1e-06  -0.242421  -0.38764  -0.0  3.935382  0.0
C  C132  1  0.84906242  0.69423051  0.14671636  1  -0.099242  -1e-06  -0.242487  -0.387737  -1e-06  3.935418  0.0
C  C133  1  0.83366135  0.18800222  0.99529977  1  0.730622  -4e-06  0.162525  0.270488  -2e-06  3.938169  0.0
C  C134  1  0.16633680  0.81199396  0.00470286  1  0.730284  -4e-06  0.162558  0.270607  -2e-06  3.938141  0.0
C  C135  1  0.74616402  0.26243866  0.96326619  1  -0.08971  2e-06  -0.23666  -0.458229  2e-06  3.960342  0.0
C  C136  1  0.25384188  0.73755835  0.03673454  1  -0.089617  2e-06  -0.23663  -0.458182  2e-06  3.960255  0.0
C  C137  1  0.85585326  0.19945724  0.07486415  1  0.515312  3e-06  0.114581  0.142125  3e-06  4.014586  0.0
C  C138  1  0.14415095  0.80054211  0.92513732  1  0.515386  3e-06  0.114516  0.142134  3e-06  4.014595  0.0
C  C139  1  0.93163016  0.13057068  0.10883410  1  -0.006109  -1.3e-05  -0.068484  -0.134311  -5e-06  3.915521  0.0
C  C140  1  0.06836404  0.86942237  0.89116762  1  -0.006163  -1.3e-05  -0.068615  -0.134638  -5e-06  3.915672  0.0
C  C141  1  0.94366535  0.14200666  0.18332903  1  -0.084893  -1.2e-05  -0.067153  -0.022989  -8e-06  3.950339  0.0
C  C142  1  0.05633028  0.85798795  0.81667340  1  -0.08469  -1.1e-05  -0.067024  -0.022784  -8e-06  3.950205  0.0
C  C143  1  0.87931347  0.22045843  0.22145827  1  -0.003654  -7e-06  -0.066482  -0.119942  -1e-06  3.902065  0.0
C  C144  1  0.12068718  0.77953932  0.77854456  1  -0.004115  -7e-06  -0.06654  -0.120009  -1e-06  3.902145  0.0
C  C145  1  0.80664535  0.28651708  0.18331913  1  0.576935  -1e-06  0.115124  0.143111  1e-06  4.006018  0.0
C  C146  1  0.19336396  0.71348536  0.81668537  1  0.576866  -1e-06  0.11523  0.143241  1e-06  4.006013  0.0
C  C147  1  0.73244287  0.37059725  0.22055316  1  0.712213  -3e-06  0.166879  0.280866  -1e-06  3.93282  0.0
C  C148  1  0.26757073  0.62940524  0.77944879  1  0.712938  -2e-06  0.166845  0.280776  -1e-06  3.932856  0.0
C  C149  1  0.67064016  0.44309611  0.17507469  1  -0.103841  1e-06  -0.237198  -0.467263  1e-06  3.963601  0.0
C  C150  1  0.32936859  0.55690403  0.82492694  1  -0.104159  1e-06  -0.237174  -0.467124  1e-06  3.963789  0.0
C  C151  1  0.65554385  0.44940671  0.32910443  1  0.331199  -9e-05  0.092815  0.112704  -4.7e-05  4.039624  0.0
C  C152  1  0.34445643  0.55059497  0.67089666  1  0.331065  -9e-05  0.092867  0.112732  -4.7e-05  4.039745  0.0
C  C153  1  0.73824579  0.54725015  0.35918196  1  -0.033683  4.2e-05  -0.010871  0.005447  3.7e-05  3.893483  0.0
C  C154  1  0.26175419  0.45274996  0.64081950  1  -0.033759  4.3e-05  -0.010819  0.005517  3.7e-05  3.893467  0.0
C  C155  1  0.66674298  0.61764321  0.40152683  1  -0.07911  -0.000107  -0.097651  -0.18139  -5.2e-05  3.973694  0.0
C  C156  1  0.33325726  0.38235849  0.59847320  1  -0.079065  -0.000107  -0.097747  -0.181586  -5.2e-05  3.973781  0.0
C  C157  1  0.51758053  0.59382376  0.41569400  1  0.013265  0.000188  -0.022775  0.049701  0.000169  4.074517  0.0
C  C158  1  0.48241512  0.40617718  0.58430427  1  0.013423  0.000188  -0.02274  0.049832  0.000169  4.074215  0.0
C  C159  1  0.44097189  0.49532324  0.38741462  1  -0.070057  -9.7e-05  -0.096221  -0.181288  -2.8e-05  3.991089  0.0
C  C160  1  0.55902486  0.50467770  0.61258367  1  -0.070248  -9.7e-05  -0.09627  -0.181396  -2.8e-05  3.990964  0.0
C  C161  1  0.50659035  0.42236943  0.34424597  1  0.021475  0.000154  -0.010636  0.011058  0.000162  3.905121  0.0
C  C162  1  0.49341108  0.57763309  0.65575204  1  0.021434  0.000154  -0.01063  0.011032  0.000162  3.905164  0.0
C  C163  1  0.90071964  0.57249535  0.34525915  1  0.062995  4e-06  -0.084057  0.094751  0.0  3.878417  0.0
C  C164  1  0.09927999  0.42750321  0.65474109  1  0.062985  3e-06  -0.084019  0.094805  0.0  3.878291  0.0
C  C165  1  0.99536654  0.50483081  0.38396641  1  -0.030753  2.6e-05  -0.247321  -0.393712  3.5e-05  3.917493  0.0
C  C166  1  0.00464152  0.49517170  0.61603331  1  -0.031129  2.6e-05  -0.247333  -0.393759  3.5e-05  3.917413  0.0
C  C167  1  0.96534797  0.68809458  0.36460927  1  -0.088927  4e-06  -0.249469  -0.399215  2.2e-05  3.92477  0.0
C  C168  1  0.03465248  0.31190788  0.63539242  1  -0.089053  4e-06  -0.249503  -0.399268  2.1e-05  3.924829  0.0
C  C169  1  0.41750973  0.31798276  0.31238773  1  0.051267  8e-06  -0.087722  0.083523  6e-06  3.881481  0.0
C  C170  1  0.58249662  0.68201746  0.68760803  1  0.051982  8e-06  -0.087706  0.083653  6e-06  3.881424  0.0
C  C171  1  0.32752925  0.26553771  0.36722823  1  -0.093697  2.9e-05  -0.252807  -0.388556  6.8e-05  3.917302  0.0
C  C172  1  0.67247504  0.73445783  0.63276651  1  -0.093863  2.9e-05  -0.252713  -0.388246  6.8e-05  3.917113  0.0
C  C173  1  0.31527259  0.32987689  0.24734196  1  -0.092897  4e-06  -0.246293  -0.390036  1e-06  3.917203  0.0
C  C174  1  0.68472901  0.67013188  0.75265666  1  -0.093552  4e-06  -0.246326  -0.390171  1e-06  3.917311  0.0
C  C175  1  0.44273900  0.67037045  0.45873106  1  0.022241  -0.00061  0.001461  0.042226  -6.6e-05  3.9829  -0.001
C  C176  1  0.55725310  0.32963522  0.54126390  1  0.022089  -0.000611  0.001394  0.042141  -6.6e-05  3.98265  -0.001
C  C177  1  0.33193749  0.64045113  0.50359761  1  -0.056799  0.005278  -0.065412  -0.082793  0.00538  3.930133  0.003
C  C178  1  0.66805176  0.35955690  0.49639647  1  -0.055796  0.00528  -0.065442  -0.082865  0.005382  3.929992  0.003
C  C179  1  0.26809429  0.71718798  0.54373888  1  -0.006087  -0.000838  -0.081711  -0.1135  -0.000185  3.993547  -0.001
C  C180  1  0.73190263  0.28282006  0.45625535  1  -0.007511  -0.000838  -0.081654  -0.113395  -0.000185  3.993561  -0.001
C  C181  1  0.31764328  0.82192108  0.54050430  1  0.427829  0.00472  0.037864  0.065304  0.004877  3.922396  0.003
C  C182  1  0.68236350  0.17808699  0.45949012  1  0.427801  0.004721  0.0378  0.065229  0.004878  3.922523  0.003
C  C183  1  0.48253292  0.77779782  0.45658165  1  0.447811  0.005219  0.044402  0.019461  0.005343  3.87456  0.003
C  C184  1  0.51746543  0.22220630  0.54341328  1  0.447189  0.005221  0.044392  0.01953  0.005345  3.874418  0.003
N  N185  1  0.68605321  0.98068870  0.54737131  1  -1.199894  0.00973  -0.33639  -0.176454  0.010351  3.676597  0.008
N  N186  1  0.31394998  0.01931693  0.45262810  1  -1.199358  0.00973  -0.336421  -0.176544  0.010352  3.676497  0.008
N  N187  1  0.89014031  0.11451498  0.95950842  1  -1.238941  1.4e-05  -0.296739  -0.314809  1.6e-05  3.37649  0.0
N  N188  1  0.10985062  0.88547806  0.04049376  1  -1.238496  1.4e-05  -0.296668  -0.314869  1.6e-05  3.376531  0.0
N  N189  1  0.79619252  0.27674768  0.11139312  1  -1.264221  -8e-06  -0.307777  -0.313978  -4e-06  3.318318  0.0
N  N190  1  0.20381880  0.72325399  0.88861082  1  -1.264562  -9e-06  -0.307853  -0.314068  -4e-06  3.318403  0.0
N  N191  1  0.72493069  0.37495386  0.28865332  1  -1.22053  -5e-06  -0.29948  -0.328104  -2e-06  3.381645  0.0
N  N192  1  0.27507627  0.62504865  0.71134638  1  -1.220432  -5e-06  -0.299476  -0.328081  -2e-06  3.381558  0.0
N  N193  1  0.42467704  0.85212083  0.49778799  1  -1.21711  0.00905  -0.337569  -0.182264  0.00971  3.671452  0.007
N  N194  1  0.57532011  0.14788249  0.50220843  1  -1.216801  0.009049  -0.33753  -0.182233  0.009709  3.671282  0.007
N  N195  1  0.31794549  0.05355329  0.66183275  1  0.816219  -0.006195  0.093963  0.706936  -0.002828  4.423986  -0.006
N  N196  1  0.68205033  0.94644841  0.33816613  1  0.815672  -0.006195  0.093962  0.706841  -0.002828  4.423981  -0.006
O  O197  1  0.41321855  0.02860868  0.61747671  1  -0.618665  -0.025047  -0.202448  -0.493745  -0.013817  2.148485  -0.017
O  O198  1  0.58677816  0.97139776  0.38252054  1  -0.618357  -0.025052  -0.202432  -0.493639  -0.013818  2.148451  -0.017
O  O199  1  0.27524409  0.99110021  0.70442323  1  -0.52407  -0.010061  -0.180626  -0.432516  -0.004758  1.957517  -0.008
O  O200  1  0.72475560  0.00889918  0.29557445  1  -0.523868  -0.010064  -0.180638  -0.432502  -0.004759  1.95753  -0.008
O  O201  1  0.26898678  0.13954318  0.66078061  1  -0.55128  -0.002212  -0.19557  -0.452497  -0.000929  1.960519  -0.002
O  O202  1  0.73100951  0.86046003  0.33922267  1  -0.551227  -0.002212  -0.195596  -0.452543  -0.000929  1.960655  -0.002
