# generated using pymatgen
data_CuH14C11Br2N4Cl
_symmetry_space_group_name_H-M   'P 1'
_cell_length_a   3.99682504
_cell_length_b   8.28794290
_cell_length_c   21.27012163
_cell_angle_alpha   89.99980353
_cell_angle_beta   89.99957924
_cell_angle_gamma   91.59137606
_symmetry_Int_Tables_number   1
_chemical_formula_structural   CuH14C11Br2N4Cl
_chemical_formula_sum   'Cu2 H28 C22 Br4 N8 Cl2'
_cell_volume   704.31076118
_cell_formula_units_Z   2
loop_
 _symmetry_equiv_pos_site_id
 _symmetry_equiv_pos_as_xyz
  1  'x, y, z'
loop_
 _atom_site_type_symbol
 _atom_site_label
 _atom_site_symmetry_multiplicity
 _atom_site_fract_x
 _atom_site_fract_y
 _atom_site_fract_z
 _atom_site_occupancy
 _atom_site_hle17_bader_spin_density
 _atom_site_hle17_ddec_charge
 _atom_site_hle17_ddec_spin_density
 _atom_site_hle17_ddec_sum_bond_order
 _atom_site_hle17_magmom
 _atom_site_hse06_10hf_bader_spin_density
 _atom_site_hse06_10hf_ddec_charge
 _atom_site_hse06_10hf_ddec_spin_density
 _atom_site_hse06_10hf_ddec_sum_bond_order
 _atom_site_hse06_10hf_magmom
 _atom_site_hse06_bader_spin_density
 _atom_site_hse06_ddec_charge
 _atom_site_hse06_ddec_spin_density
 _atom_site_hse06_ddec_sum_bond_order
 _atom_site_hse06_magmom
 _atom_site_pbe_bader_spin_density
 _atom_site_pbe_cm5_charge
 _atom_site_pbe_ddec_charge
 _atom_site_pbe_ddec_spin_density
 _atom_site_pbe_ddec_sum_bond_order
 _atom_site_pbe_magmom
Cu  Cu0  1  0.44355745  0.40346361  0.24999987  1  0  0.430295  0  1.949313  0  0  0.324783  0  2.45101  0  0  0.324971  0  2.40555  0  0  0.410882  0.327916  0  2.479667  0
Cu  Cu1  1  0.55644105  0.59653561  0.75000057  1  0  0.430288  0  1.949326  0  0  0.324767  0  2.451014  0  0  0.324948  0  2.405545  0  0  0.410873  0.327899  0  2.479661  0
H  H2  1  0.73039585  0.32865169  0.37750534  1  0  0.128313  0  0.954864  0  0  0.148764  0  1.015574  0  0  0.151763  0  1.013202  0  0  0.09189  0.146476  0  1.017387  0
H  H3  1  0.26962058  0.67135482  0.87750539  1  0  0.128215  0  0.954914  0  0  0.148668  0  1.015615  0  0  0.151663  0  1.013249  0  0  0.091849  0.14638  0  1.017428  0
H  H4  1  0.26961542  0.67135237  0.62249510  1  0  0.128206  0  0.954936  0  0  0.148669  0  1.015632  0  0  0.151667  0  1.013261  0  0  0.091857  0.146381  0  1.017445  0
H  H5  1  0.73038068  0.32864923  0.12249458  1  0  0.12825  0  0.954911  0  0  0.148703  0  1.015611  0  0  0.1517  0  1.013242  0  0  0.091867  0.146415  0  1.017424  0
H  H6  1  0.65235466  0.41309714  0.45344191  1  0  0.104502  0  0.975915  0  0  0.11863  0  1.050384  0  0  0.120701  0  1.049291  0  0  0.080014  0.11723  0  1.051066  0
H  H7  1  0.34765595  0.58690262  0.95344290  1  0  0.104556  0  0.975941  0  0  0.11866  0  1.050432  0  0  0.12073  0  1.049341  0  0  0.08003  0.117259  0  1.051116  0
H  H8  1  0.34765411  0.58690692  0.54655854  1  0  0.104499  0  0.975908  0  0  0.118633  0  1.050374  0  0  0.120703  0  1.049281  0  0  0.080008  0.117233  0  1.051057  0
H  H9  1  0.65233993  0.41309418  0.04655660  1  0  0.104523  0  0.975918  0  0  0.118649  0  1.050391  0  0  0.120719  0  1.049301  0  0  0.080021  0.117249  0  1.051075  0
H  H10  1  0.03868587  0.45357366  0.41506641  1  0  0.122071  0  0.95925  0  0  0.141962  0  1.021094  0  0  0.143119  0  1.021884  0  0  0.090272  0.141106  0  1.020608  0
H  H11  1  0.96132106  0.54642283  0.91506614  1  0  0.122076  0  0.959234  0  0  0.141962  0  1.021094  0  0  0.143122  0  1.02188  0  0  0.090273  0.141105  0  1.020607  0
H  H12  1  0.96131539  0.54643039  0.58493498  1  0  0.122071  0  0.959207  0  0  0.141961  0  1.021067  0  0  0.14312  0  1.021857  0  0  0.090281  0.141105  0  1.020581  0
H  H13  1  0.03867488  0.45357517  0.08493430  1  0  0.122111  0  0.9592  0  0  0.141999  0  1.021057  0  0  0.143159  0  1.021842  0  0  0.090289  0.141142  0  1.020569  0
H  H14  1  0.11331122  0.02407076  0.34658702  1  0  0.126864  0  0.956856  0  0  0.147168  0  1.018097  0  0  0.148833  0  1.018417  0  0  0.089799  0.14592  0  1.017902  0
H  H15  1  0.88668860  0.97592998  0.84658675  1  0  0.126851  0  0.956842  0  0  0.147158  0  1.01809  0  0  0.148822  0  1.018411  0  0  0.089805  0.145909  0  1.017895  0
H  H16  1  0.88669248  0.97593209  0.65341108  1  0  0.126858  0  0.956828  0  0  0.147142  0  1.018125  0  0  0.148807  0  1.018445  0  0  0.089778  0.145894  0  1.017929  0
H  H17  1  0.11330214  0.02406440  0.15341417  1  0  0.126908  0  0.956798  0  0  0.147197  0  1.01808  0  0  0.148863  0  1.018398  0  0  0.089805  0.14595  0  1.017883  0
H  H18  1  0.50621033  0.06898511  0.31162171  1  0  0.126315  0  0.979973  0  0  0.140765  0  1.051698  0  0  0.144274  0  1.049115  0  0  0.081914  0.137987  0  1.053866  0
H  H19  1  0.49379587  0.93101595  0.81162204  1  0  0.126304  0  0.979897  0  0  0.14076  0  1.051625  0  0  0.144268  0  1.049041  0  0  0.08192  0.137982  0  1.053791  0
H  H20  1  0.49380068  0.93101412  0.68837545  1  0  0.126319  0  0.979908  0  0  0.140787  0  1.051615  0  0  0.144293  0  1.049035  0  0  0.081915  0.138005  0  1.053789  0
H  H21  1  0.50619256  0.06898204  0.18837840  1  0  0.126337  0  0.979916  0  0  0.140818  0  1.051596  0  0  0.144325  0  1.049014  0  0  0.081915  0.138036  0  1.053769  0
H  H22  1  0.47033935  0.06094788  0.39472610  1  0  0.118284  0  0.963705  0  0  0.136592  0  1.030078  0  0  0.138828  0  1.028581  0  0  0.087067  0.134979  0  1.031186  0
H  H23  1  0.52966576  0.93904638  0.89472685  1  0  0.118245  0  0.963715  0  0  0.136546  0  1.030101  0  0  0.13878  0  1.028606  0  0  0.087038  0.134929  0  1.031211  0
H  H24  1  0.52966936  0.93905497  0.60527246  1  0  0.118252  0  0.963724  0  0  0.136566  0  1.030098  0  0  0.138803  0  1.0286  0  0  0.087037  0.134958  0  1.031201  0
H  H25  1  0.47031517  0.06095161  0.10527407  1  0  0.118333  0  0.963699  0  0  0.136623  0  1.030085  0  0  0.138858  0  1.02859  0  0  0.087066  0.135009  0  1.031193  0
H  H26  1  0.08010830  0.86733181  0.25000076  1  0  0.108517  0  0.900377  0  0  0.125144  0  0.956307  0  0  0.125307  0  0.956709  0  0  0.140161  0.124834  0  0.956252  0
H  H27  1  0.91988751  0.13266378  0.74999969  1  0  0.108496  0  0.900357  0  0  0.125126  0  0.95631  0  0  0.12529  0  0.956711  0  0  0.140113  0.124816  0  0.956255  0
H  H28  1  0.96884615  0.65452998  0.25000122  1  0  0.094498  0  0.943541  0  0  0.090075  0  1.035088  0  0  0.09419  0  1.029335  0  0  0.130048  0.086865  0  1.039371  0
H  H29  1  0.03115229  0.34546803  0.75000016  1  0  0.094398  0  0.94343  0  0  0.089983  0  1.035017  0  0  0.094097  0  1.029264  0  0  0.130016  0.086772  0  1.039304  0
C  C30  1  0.76880589  0.43540870  0.40730244  1  0  -0.356568  0  3.726751  0  0  -0.435696  0  3.964622  0  0  -0.438697  0  3.970153  0  0  -0.246616  -0.433449  0  3.960818  0
C  C31  1  0.23121174  0.56459511  0.90730269  1  0  -0.356506  0  3.726726  0  0  -0.435579  0  3.964635  0  0  -0.43858  0  3.970177  0  0  -0.246556  -0.433331  0  3.960825  0
C  C32  1  0.23120538  0.56459536  0.59269847  1  0  -0.35646  0  3.726627  0  0  -0.435571  0  3.964578  0  0  -0.438573  0  3.970114  0  0  -0.246531  -0.433322  0  3.960766  0
C  C33  1  0.76878439  0.43540652  0.09269728  1  0  -0.356578  0  3.726707  0  0  -0.435663  0  3.964614  0  0  -0.438666  0  3.970154  0  0  -0.246576  -0.433414  0  3.960804  0
C  C34  1  0.62621939  0.57845903  0.37627347  1  0  0.238682  0  3.760641  0  0  0.228993  0  4.03637  0  0  0.238936  0  4.052631  0  0  0.093434  0.222505  0  4.025414  0
C  C35  1  0.37379928  0.42154145  0.87627466  1  0  0.238819  0  3.760463  0  0  0.229032  0  4.036327  0  0  0.238973  0  4.052591  0  0  0.093447  0.222543  0  4.025367  0
C  C36  1  0.37379188  0.42154503  0.62372744  1  0  0.23895  0  3.760356  0  0  0.229124  0  4.036278  0  0  0.239067  0  4.052537  0  0  0.093438  0.222635  0  4.025321  0
C  C37  1  0.62620167  0.57845656  0.12372626  1  0  0.238923  0  3.7604  0  0  0.22911  0  4.036319  0  0  0.239052  0  4.052581  0  0  0.09346  0.222621  0  4.025362  0
C  C38  1  0.62604396  0.74037631  0.39706215  1  0  -0.160875  0  3.742133  0  0  -0.155439  0  4.034219  0  0  -0.161507  0  4.054655  0  0  -0.055391  -0.151854  0  4.020614  0
C  C39  1  0.37397375  0.25962157  0.89706308  1  0  -0.160893  0  3.741959  0  0  -0.155405  0  4.034044  0  0  -0.161474  0  4.054482  0  0  -0.055415  -0.151821  0  4.020438  0
C  C40  1  0.37396724  0.25962655  0.60293735  1  0  -0.160964  0  3.741899  0  0  -0.155488  0  4.034044  0  0  -0.161556  0  4.054478  0  0  -0.055411  -0.151904  0  4.020439  0
C  C41  1  0.62602225  0.74037765  0.10293783  1  0  -0.160974  0  3.742027  0  0  -0.155473  0  4.034145  0  0  -0.161543  0  4.054583  0  0  -0.055436  -0.151889  0  4.02054  0
C  C42  1  0.46090091  0.83104308  0.35224817  1  0  0.182532  0  3.752499  0  0  0.159625  0  4.033021  0  0  0.170835  0  4.051413  0  0  0.087879  0.152382  0  4.020253  0
C  C43  1  0.53911595  0.16895280  0.85224805  1  0  0.182399  0  3.752543  0  0  0.159515  0  4.033033  0  0  0.170726  0  4.051426  0  0  0.087826  0.152273  0  4.020264  0
C  C44  1  0.53910010  0.16895614  0.64775133  1  0  0.182534  0  3.75245  0  0  0.159634  0  4.032972  0  0  0.170842  0  4.051366  0  0  0.087894  0.152391  0  4.020204  0
C  C45  1  0.46087248  0.83104520  0.14775192  1  0  0.182644  0  3.752495  0  0  0.159702  0  4.033039  0  0  0.170912  0  4.051432  0  0  0.087922  0.152458  0  4.020271  0
C  C46  1  0.38286364  0.00456692  0.35087267  1  0  -0.370586  0  3.749987  0  0  -0.448415  0  3.992114  0  0  -0.452018  0  3.996804  0  0  -0.24979  -0.445677  0  3.988976  0
C  C47  1  0.61713826  0.99542895  0.85087462  1  0  -0.37041  0  3.749952  0  0  -0.448235  0  3.992068  0  0  -0.45184  0  3.996762  0  0  -0.249693  -0.445494  0  3.988932  0
C  C48  1  0.61714250  0.99543472  0.64912496  1  0  -0.370577  0  3.749966  0  0  -0.448401  0  3.992053  0  0  -0.452004  0  3.996749  0  0  -0.249745  -0.445667  0  3.988914  0
C  C49  1  0.38285011  0.00456784  0.14912676  1  0  -0.370673  0  3.750016  0  0  -0.448485  0  3.992091  0  0  -0.452087  0  3.996784  0  0  -0.249765  -0.445744  0  3.988957  0
C  C50  1  0.17587141  0.74485062  0.25000030  1  0  0.08455  0  3.600529  0  0  0.004591  0  3.851434  0  0  0.014666  0  3.8571  0  0  0.063615  -0.002144  0  3.84806  0
C  C51  1  0.82412947  0.25514619  0.75000014  1  0  0.084654  0  3.600189  0  0  0.004625  0  3.851201  0  0  0.014702  0  3.856866  0  0  0.063655  -0.002112  0  3.847831  0
Br  Br52  1  0.80876437  0.82071845  0.47249595  1  0  -0.02115  0  1.452909  0  0  -0.006107  0  1.739195  0  0  -0.010426  0  1.7337  0  0  0.066934  -0.003322  0  1.7434  0
Br  Br53  1  0.19125074  0.17928596  0.97249818  1  0  -0.021176  0  1.452887  0  0  -0.006158  0  1.73919  0  0  -0.010474  0  1.733686  0  0  0.066924  -0.003373  0  1.743393  0
Br  Br54  1  0.19124446  0.17928681  0.52750214  1  0  -0.021137  0  1.452846  0  0  -0.006104  0  1.739142  0  0  -0.010425  0  1.733654  0  0  0.066948  -0.003318  0  1.743347  0
Br  Br55  1  0.80874526  0.82071325  0.02750226  1  0  -0.021162  0  1.452905  0  0  -0.006133  0  1.739203  0  0  -0.010449  0  1.7337  0  0  0.066945  -0.003347  0  1.743407  0
N  N56  1  0.46533798  0.56859800  0.32077885  1  0  -0.287083  0  3.151137  0  0  -0.253436  0  3.469634  0  0  -0.258574  0  3.473049  0  0  -0.273389  -0.250823  0  3.467522  0
N  N57  1  0.53467537  0.43140300  0.82077932  1  0  -0.287093  0  3.151105  0  0  -0.253436  0  3.469645  0  0  -0.258568  0  3.473052  0  0  -0.27342  -0.250821  0  3.467525  0
N  N58  1  0.53467047  0.43140003  0.67922207  1  0  -0.287242  0  3.151132  0  0  -0.253549  0  3.469663  0  0  -0.258684  0  3.473072  0  0  -0.273436  -0.250935  0  3.467544  0
N  N59  1  0.46531807  0.56859501  0.17922112  1  0  -0.287126  0  3.151093  0  0  -0.253475  0  3.469662  0  0  -0.258612  0  3.473078  0  0  -0.273444  -0.250863  0  3.467549  0
N  N60  1  0.36920802  0.72185154  0.30673987  1  0  -0.022504  0  3.518611  0  0  0.056621  0  3.749263  0  0  0.043216  0  3.775172  0  0  -0.160937  0.065282  0  3.732047  0
N  N61  1  0.63079068  0.27814594  0.80673995  1  0  -0.022649  0  3.518762  0  0  0.056507  0  3.749393  0  0  0.043102  0  3.775301  0  0  -0.160957  0.065169  0  3.732177  0
N  N62  1  0.63079536  0.27814527  0.69325964  1  0  -0.022528  0  3.518564  0  0  0.056625  0  3.749199  0  0  0.04322  0  3.775108  0  0  -0.160965  0.065289  0  3.73198  0
N  N63  1  0.36920282  0.72185327  0.19325956  1  0  -0.022828  0  3.518936  0  0  0.056339  0  3.749561  0  0  0.042934  0  3.775469  0  0  -0.161054  0.065002  0  3.732345  0
Cl  Cl64  1  0.93372728  0.25544554  0.25000010  1  0  -0.575364  0  1.290017  0  0  -0.504539  0  1.668117  0  0  -0.517589  0  1.632916  0  0  -0.310806  -0.494843  0  1.691006  0
Cl  Cl65  1  0.06627123  0.74455368  0.75000034  1  0  -0.575337  0  1.290008  0  0  -0.504516  0  1.668108  0  0  -0.51756  0  1.6329  0  0  -0.310792  -0.49482  0  1.690989  0
