# generated using pymatgen
data_ZnH17C20SN3(ClO2)2
_symmetry_space_group_name_H-M   'P 1'
_cell_length_a   10.07337780
_cell_length_b   10.07213857
_cell_length_c   12.62428269
_cell_angle_alpha   99.24277081
_cell_angle_beta   105.07457059
_cell_angle_gamma   118.22874828
_symmetry_Int_Tables_number   1
_chemical_formula_structural   ZnH17C20SN3(ClO2)2
_chemical_formula_sum   'Zn2 H34 C40 S2 N6 Cl4 O8'
_cell_volume   1027.34953323
_cell_formula_units_Z   2
loop_
 _symmetry_equiv_pos_site_id
 _symmetry_equiv_pos_as_xyz
  1  'x, y, z'
loop_
 _atom_site_type_symbol
 _atom_site_label
 _atom_site_symmetry_multiplicity
 _atom_site_fract_x
 _atom_site_fract_y
 _atom_site_fract_z
 _atom_site_occupancy
 _atom_site_hle17_bader_spin_density
 _atom_site_hle17_ddec_charge
 _atom_site_hle17_ddec_spin_density
 _atom_site_hle17_ddec_sum_bond_order
 _atom_site_hle17_magmom
 _atom_site_hse06_10hf_bader_spin_density
 _atom_site_hse06_10hf_ddec_charge
 _atom_site_hse06_10hf_ddec_spin_density
 _atom_site_hse06_10hf_ddec_sum_bond_order
 _atom_site_hse06_10hf_magmom
 _atom_site_hse06_bader_spin_density
 _atom_site_hse06_ddec_charge
 _atom_site_hse06_ddec_spin_density
 _atom_site_hse06_ddec_sum_bond_order
 _atom_site_hse06_magmom
 _atom_site_pbe_bader_spin_density
 _atom_site_pbe_cm5_charge
 _atom_site_pbe_ddec_charge
 _atom_site_pbe_ddec_spin_density
 _atom_site_pbe_ddec_sum_bond_order
 _atom_site_pbe_magmom
Zn  Zn0  1  0.14300915  0.72022687  0.16934281  1  0  0.990922  0  1.894986  0  0  0.796471  0  2.376032  0  0  0.839615  0  2.326597  0  0  0.701874  0.765763  0  2.410427  0
Zn  Zn1  1  0.55093014  0.97380457  0.83071248  1  0  0.991503  0  1.894134  0  0  0.796754  0  2.375013  0  0  0.839954  0  2.325486  0  0  0.702117  0.766044  0  2.409422  0
H  H2  1  0.99030577  0.81120430  0.02250094  1  0  0.354207  0  0.900357  0  0  0.342464  0  0.9546  0  0  0.350391  0  0.947955  0  0  0.289403  0.336583  0  0.959868  0
H  H3  1  0.78875933  0.96797849  0.97752953  1  0  0.353268  0  0.900853  0  0  0.341727  0  0.954974  0  0  0.349624  0  0.948374  0  0  0.288557  0.335907  0  0.960145  0
H  H4  1  0.50430339  0.56291307  0.21726650  1  0  0.124405  0  0.946592  0  0  0.131384  0  1.011189  0  0  0.134995  0  1.010238  0  0  0.104507  0.129696  0  1.011052  0
H  H5  1  0.34566045  0.28709135  0.78271102  1  0  0.123371  0  0.945104  0  0  0.130256  0  1.009986  0  0  0.133862  0  1.009045  0  0  0.104102  0.128559  0  1.009865  0
H  H6  1  0.28620501  0.98734171  0.05228829  1  0  0.120874  0  0.956074  0  0  0.127191  0  1.022994  0  0  0.130825  0  1.02026  0  0  0.112399  0.125112  0  1.024013  0
H  H7  1  0.93531576  0.23415443  0.94781176  1  0  0.119799  0  0.955342  0  0  0.126426  0  1.021869  0  0  0.13005  0  1.019143  0  0  0.112025  0.124355  0  1.022899  0
H  H8  1  0.35854360  0.79271371  0.40679001  1  0  0.060776  0  0.97396  0  0  0.066724  0  1.047816  0  0  0.068562  0  1.046602  0  0  0.107442  0.065395  0  1.048769  0
H  H9  1  0.38603624  0.95170952  0.59328898  1  0  0.062248  0  0.975196  0  0  0.068279  0  1.048734  0  0  0.070181  0  1.047483  0  0  0.108359  0.066908  0  1.04968  0
H  H10  1  0.64890865  0.88296660  0.51491689  1  0  0.126671  0  0.963563  0  0  0.136362  0  1.024418  0  0  0.140053  0  1.022892  0  0  0.107651  0.133686  0  1.025665  0
H  H11  1  0.36824658  0.13382666  0.48500291  1  0  0.127095  0  0.96409  0  0  0.13638  0  1.025379  0  0  0.140056  0  1.023898  0  0  0.107317  0.133713  0  1.026618  0
H  H12  1  0.74017426  0.96815679  0.20870257  1  0  0.133346  0  0.942287  0  0  0.143316  0  0.998669  0  0  0.147129  0  0.997278  0  0  0.113128  0.140232  0  1.000553  0
H  H13  1  0.75934537  0.53160560  0.79128960  1  0  0.131983  0  0.942284  0  0  0.142088  0  0.998683  0  0  0.145837  0  0.997323  0  0  0.112233  0.139027  0  1.000597  0
H  H14  1  0.44630026  0.87820260  0.11421892  1  0  0.097208  0  0.959071  0  0  0.104805  0  1.022516  0  0  0.107365  0  1.020435  0  0  0.119759  0.102799  0  1.024275  0
H  H15  1  0.76402716  0.33234494  0.88587071  1  0  0.096907  0  0.958831  0  0  0.104783  0  1.022255  0  0  0.107372  0  1.020114  0  0  0.119429  0.10278  0  1.024019  0
H  H16  1  0.92771339  0.92686031  0.37163035  1  0  0.097877  0  0.942342  0  0  0.11336  0  1.004385  0  0  0.114629  0  1.004293  0  0  0.098637  0.112429  0  1.004484  0
H  H17  1  0.55526588  0.55602034  0.62829106  1  0  0.098142  0  0.943721  0  0  0.112844  0  1.006178  0  0  0.114189  0  1.006088  0  0  0.098555  0.111847  0  1.006305  0
H  H18  1  0.90505367  0.94725336  0.50774056  1  0  0.071592  0  0.963551  0  0  0.084039  0  1.03492  0  0  0.085498  0  1.034137  0  0  0.085236  0.082915  0  1.035547  0
H  H19  1  0.43962451  0.39729019  0.49213736  1  0  0.072177  0  0.963885  0  0  0.084859  0  1.034412  0  0  0.086362  0  1.033654  0  0  0.086069  0.083739  0  1.034972  0
H  H20  1  0.00818457  0.20117070  0.38912407  1  0  0.070117  0  0.941756  0  0  0.08457  0  1.009935  0  0  0.085398  0  1.010471  0  0  0.087942  0.08378  0  1.009842  0
H  H21  1  0.81217328  0.61924934  0.61090792  1  0  0.070492  0  0.942248  0  0  0.084713  0  1.01035  0  0  0.085572  0  1.010816  0  0  0.087919  0.083906  0  1.010261  0
H  H22  1  0.13559204  0.19360346  0.51015848  1  0  0.071806  0  0.927672  0  0  0.093108  0  0.984218  0  0  0.093457  0  0.985436  0  0  0.091327  0.092723  0  0.983424  0
H  H23  1  0.68355704  0.62559576  0.48986865  1  0  0.071345  0  0.93028  0  0  0.092366  0  0.986732  0  0  0.092633  0  0.988051  0  0  0.091015  0.092011  0  0.985902  0
H  H24  1  0.85112848  0.23657155  0.50329834  1  0  0.073307  0  0.95899  0  0  0.092196  0  1.020815  0  0  0.093043  0  1.021186  0  0  0.09239  0.091791  0  1.020109  0
H  H25  1  0.73342182  0.34798202  0.49672578  1  0  0.073066  0  0.959687  0  0  0.092401  0  1.021091  0  0  0.093152  0  1.021548  0  0  0.092898  0.092058  0  1.020328  0
H  H26  1  0.96331479  0.21404158  0.62229109  1  0  0.08828  0  0.926405  0  0  0.109124  0  0.982362  0  0  0.109104  0  0.98426  0  0  0.097382  0.109123  0  0.981041  0
H  H27  1  0.59184677  0.34113241  0.37774710  1  0  0.086579  0  0.926284  0  0  0.108092  0  0.982081  0  0  0.108054  0  0.983915  0  0  0.096781  0.108132  0  0.980782  0
H  H28  1  0.98694492  0.48403732  0.71590301  1  0  0.106361  0  0.941568  0  0  0.118281  0  1.000343  0  0  0.120642  0  1.001438  0  0  0.105559  0.116645  0  0.999819  0
H  H29  1  0.76800175  0.27093327  0.28411704  1  0  0.107809  0  0.941557  0  0  0.119475  0  1.000404  0  0  0.121757  0  1.001579  0  0  0.106645  0.11788  0  0.999835  0
H  H30  1  0.21112801  0.76950395  0.81204432  1  0  0.1067  0  0.951579  0  0  0.113581  0  1.014176  0  0  0.116836  0  1.010304  0  0  0.119166  0.110819  0  1.017869  0
H  H31  1  0.95722416  0.39883748  0.18789826  1  0  0.106389  0  0.952294  0  0  0.113187  0  1.01504  0  0  0.116525  0  1.011068  0  0  0.119259  0.110322  0  1.018892  0
H  H32  1  0.45610809  0.73046130  0.60334236  1  0  0.083772  0  0.963379  0  0  0.095019  0  1.023901  0  0  0.097301  0  1.021821  0  0  0.114869  0.093198  0  1.025718  0
H  H33  1  0.12710413  0.85275066  0.39651621  1  0  0.083924  0  0.96264  0  0  0.095591  0  1.022656  0  0  0.097862  0  1.020549  0  0  0.114993  0.0938  0  1.024416  0
H  H34  1  0.24079655  0.44416874  0.49682059  1  0  0.095115  0  1.006255  0  0  0.102617  0  1.075979  0  0  0.105315  0  1.075774  0  0  0.09698  0.100654  0  1.076267  0
H  H35  1  0.94745286  0.74410859  0.50307737  1  0  0.094703  0  1.007035  0  0  0.102038  0  1.076793  0  0  0.104713  0  1.076599  0  0  0.096849  0.100078  0  1.077092  0
C  C36  1  0.47320128  0.22470455  0.07420913  1  0  -0.107918  0  3.709926  0  0  -0.095989  0  3.952639  0  0  -0.104155  0  3.973145  0  0  -0.020919  -0.090684  0  3.939341  0
C  C37  1  0.15079090  0.39921049  0.92590333  1  0  -0.10944  0  3.714367  0  0  -0.098161  0  3.95804  0  0  -0.106348  0  3.978588  0  0  -0.021825  -0.092831  0  3.94473  0
C  C38  1  0.53267893  0.38796423  0.12042612  1  0  0.150193  0  3.762675  0  0  0.153288  0  4.031163  0  0  0.160029  0  4.050935  0  0  0.024359  0.148164  0  4.018882  0
C  C39  1  0.26775940  0.41241594  0.87964977  1  0  0.149531  0  3.763528  0  0  0.15267  0  4.032329  0  0  0.159404  0  4.052143  0  0  0.024417  0.147535  0  4.02005  0
C  C40  1  0.45849552  0.43646138  0.18322782  1  0  -0.198462  0  3.737009  0  0  -0.229272  0  3.99532  0  0  -0.234524  0  4.013635  0  0  -0.102974  -0.225901  0  3.98217  0
C  C41  1  0.25332770  0.27536252  0.81679203  1  0  -0.196936  0  3.731286  0  0  -0.227371  0  3.989886  0  0  -0.232597  0  4.008195  0  0  -0.10297  -0.224043  0  3.976786  0
C  C42  1  0.32661568  0.32384241  0.20244595  1  0  0.160387  0  3.777958  0  0  0.162856  0  4.046924  0  0  0.16988  0  4.065235  0  0  0.021623  0.158325  0  4.034193  0
C  C43  1  0.12144852  0.12427429  0.79755976  1  0  0.162178  0  3.772235  0  0  0.164082  0  4.041961  0  0  0.171111  0  4.060271  0  0  0.022814  0.159539  0  4.029187  0
C  C44  1  0.26314182  0.15985079  0.15610411  1  0  -0.183827  0  3.706752  0  0  -0.168995  0  3.964607  0  0  -0.176418  0  3.985261  0  0  -0.031263  -0.164162  0  3.950712  0
C  C45  1  0.00387957  0.10719384  0.84395143  1  0  -0.182802  0  3.704372  0  0  -0.16762  0  3.962258  0  0  -0.175056  0  3.982875  0  0  -0.030505  -0.162695  0  3.948257  0
C  C46  1  0.33656180  0.11416466  0.09151398  1  0  -0.045564  0  3.713509  0  0  -0.0806  0  3.969523  0  0  -0.077849  0  3.988476  0  0  -0.077432  -0.082274  0  3.955813  0
C  C47  1  0.02289844  0.24527471  0.90860038  1  0  -0.043804  0  3.71213  0  0  -0.078862  0  3.968264  0  0  -0.076112  0  3.987278  0  0  -0.076814  -0.080557  0  3.954513  0
C  C48  1  0.54709412  0.16116215  0.00791782  1  0  0.63282  0  3.93992  0  0  0.586248  0  4.229201  0  0  0.619998  0  4.221964  0  0  0.195576  0.563239  0  4.233423  0
C  C49  1  0.15354917  0.53941182  0.99219440  1  0  0.629616  0  3.945156  0  0  0.58338  0  4.234514  0  0  0.617136  0  4.227303  0  0  0.194416  0.560358  0  4.238754  0
C  C50  1  0.44815647  0.83585407  0.36717015  1  0  0.123783  0  3.754521  0  0  0.0904  0  4.009559  0  0  0.098078  0  4.028529  0  0  0.038002  0.085462  0  3.996375  0
C  C51  1  0.46887783  0.08097691  0.63285881  1  0  0.122869  0  3.758848  0  0  0.089038  0  4.013588  0  0  0.096648  0  4.032545  0  0  0.036693  0.084171  0  4.000399  0
C  C52  1  0.60892029  0.88424404  0.42617011  1  0  -0.190607  0  3.706099  0  0  -0.208187  0  3.950974  0  0  -0.217152  0  3.972058  0  0  -0.091105  -0.202138  0  3.9365  0
C  C53  1  0.45831365  0.18267600  0.57375669  1  0  -0.192476  0  3.710111  0  0  -0.209417  0  3.955837  0  0  -0.218417  0  3.976941  0  0  -0.090895  -0.203368  0  3.94136  0
C  C54  1  0.71843672  0.93249701  0.37009750  1  0  0.169918  0  3.712048  0  0  0.186905  0  3.946098  0  0  0.193208  0  3.967366  0  0  0.016468  0.182632  0  3.931701  0
C  C55  1  0.56257530  0.34832154  0.62979982  1  0  0.171375  0  3.711043  0  0  0.186736  0  3.946537  0  0  0.193201  0  3.967684  0  0  0.016573  0.182364  0  3.932192  0
C  C56  1  0.65993027  0.93294225  0.25647379  1  0  -0.174793  0  3.671288  0  0  -0.191265  0  3.916793  0  0  -0.199725  0  3.936777  0  0  -0.082348  -0.185905  0  3.903811  0
C  C57  1  0.67651393  0.40354069  0.74351259  1  0  -0.173588  0  3.67049  0  0  -0.189828  0  3.916468  0  0  -0.198241  0  3.936473  0  0  -0.082243  -0.184454  0  3.903461  0
C  C58  1  0.49756122  0.88436794  0.20358931  1  0  0.13029  0  3.683654  0  0  0.098387  0  3.932847  0  0  0.105615  0  3.951339  0  0  0.045502  0.093708  0  3.920271  0
C  C59  1  0.68084346  0.29411332  0.79647255  1  0  0.130728  0  3.684192  0  0  0.098166  0  3.933086  0  0  0.105389  0  3.95159  0  0  0.046089  0.09349  0  3.920508  0
C  C60  1  0.89272331  0.98461475  0.43045398  1  0  -0.17271  0  3.696984  0  0  -0.214993  0  3.942312  0  0  -0.216769  0  3.953739  0  0  -0.162937  -0.213607  0  3.934532  0
C  C61  1  0.55427796  0.46226513  0.56944421  1  0  -0.174485  0  3.698848  0  0  -0.214909  0  3.94187  0  0  -0.217005  0  3.953627  0  0  -0.16393  -0.21332  0  3.933846  0
C  C62  1  0.01111953  0.16595656  0.46740760  1  0  -0.08958  0  3.676851  0  0  -0.127957  0  3.934322  0  0  -0.128595  0  3.947591  0  0  -0.163033  -0.127354  0  3.925177  0
C  C63  1  0.69870906  0.54386977  0.53258247  1  0  -0.091072  0  3.681768  0  0  -0.128861  0  3.937722  0  0  -0.129411  0  3.950955  0  0  -0.163452  -0.128299  0  3.928624  0
C  C64  1  0.97305369  0.25931538  0.54882570  1  0  -0.167474  0  3.708755  0  0  -0.209507  0  3.955853  0  0  -0.21134  0  3.968417  0  0  -0.160272  -0.208  0  3.946916  0
C  C65  1  0.71063882  0.42435976  0.45117964  1  0  -0.164436  0  3.709374  0  0  -0.207724  0  3.956743  0  0  -0.209366  0  3.969036  0  0  -0.15975  -0.20639  0  3.948045  0
C  C66  1  0.09534802  0.43666706  0.59863408  1  0  0.163746  0  3.707305  0  0  0.178664  0  3.94523  0  0  0.185042  0  3.966894  0  0  0.015059  0.174346  0  3.930939  0
C  C67  1  0.83806766  0.49675781  0.40131860  1  0  0.16314  0  3.70777  0  0  0.178003  0  3.945593  0  0  0.18435  0  3.967198  0  0  0.015175  0.173712  0  3.931353  0
C  C68  1  0.08627153  0.53390540  0.68540262  1  0  -0.162849  0  3.688654  0  0  -0.181544  0  3.942709  0  0  -0.190859  0  3.964458  0  0  -0.084699  -0.176076  0  3.929372  0
C  C69  1  0.84844609  0.40077505  0.31457380  1  0  -0.164448  0  3.690146  0  0  -0.182664  0  3.94393  0  0  -0.191924  0  3.965739  0  0  -0.085564  -0.177229  0  3.930506  0
C  C70  1  0.21037627  0.69418265  0.73956994  1  0  0.135361  0  3.694023  0  0  0.098364  0  3.951897  0  0  0.107662  0  3.967213  0  0  0.041294  0.092036  0  3.943003  0
C  C71  1  0.95445077  0.47062789  0.26036986  1  0  0.138482  0  3.698096  0  0  0.10144  0  3.956154  0  0  0.110673  0  3.971403  0  0  0.042472  0.095189  0  3.947277  0
C  C72  1  0.34696326  0.67203834  0.62266749  1  0  0.117642  0  3.733277  0  0  0.085182  0  3.987061  0  0  0.092951  0  4.005056  0  0  0.036023  0.080498  0  3.97418  0
C  C73  1  0.04934273  0.72425821  0.37721796  1  0  0.115522  0  3.735696  0  0  0.082722  0  3.98951  0  0  0.090519  0  4.00746  0  0  0.034539  0.077865  0  3.976944  0
C  C74  1  0.22713950  0.51140949  0.56497324  1  0  -0.181041  0  3.7262  0  0  -0.198886  0  3.974365  0  0  -0.20844  0  3.997902  0  0  -0.094028  -0.192544  0  3.958478  0
C  C75  1  0.94646782  0.66222834  0.43492291  1  0  -0.178226  0  3.727684  0  0  -0.195458  0  3.974777  0  0  -0.204988  0  3.998355  0  0  -0.092619  -0.189112  0  3.958892  0
S  S76  1  0.09618976  0.00827324  0.18090440  1  0  1.282351  0  5.566471  0  0  1.189347  0  6.078687  0  0  1.233782  0  6.064049  0  0  0.529406  1.158107  0  6.088251  0
S  S77  1  0.82737006  0.91545377  0.81911025  1  0  1.281211  0  5.565421  0  0  1.187813  0  6.07834  0  0  1.232248  0  6.063749  0  0  0.528848  1.156566  0  6.087857  0
N  N78  1  0.05347820  0.84048810  0.10967660  1  0  -0.922508  0  2.972711  0  0  -0.851408  0  3.300516  0  0  -0.877554  0  3.282458  0  0  -0.612313  -0.833372  0  3.312121  0
N  N79  1  0.73092861  0.94408403  0.89036552  1  0  -0.921509  0  2.972927  0  0  -0.850663  0  3.300826  0  0  -0.876782  0  3.282889  0  0  -0.61153  -0.832645  0  3.312303  0
N  N80  1  0.39199832  0.83495594  0.25769237  1  0  -0.343607  0  3.308942  0  0  -0.257338  0  3.584714  0  0  -0.276792  0  3.599905  0  0  -0.335333  -0.244096  0  3.5741  0
N  N81  1  0.57736639  0.13440128  0.74238827  1  0  -0.343494  0  3.309924  0  0  -0.256235  0  3.584604  0  0  -0.27572  0  3.599884  0  0  -0.334502  -0.243054  0  3.573958  0
N  N82  1  0.34145557  0.76232030  0.71054471  1  0  -0.356978  0  3.318121  0  0  -0.272852  0  3.598155  0  0  -0.292869  0  3.613241  0  0  -0.341172  -0.259229  0  3.587739  0
N  N83  1  0.05164503  0.63076131  0.28935922  1  0  -0.359359  0  3.323898  0  0  -0.275628  0  3.605143  0  0  -0.295623  0  3.620151  0  0  -0.342465  -0.261985  0  3.594768  0
Cl  Cl84  1  0.69285251  0.53714219  0.10006924  1  0  -0.057112  0  1.439481  0  0  -0.043738  0  1.684299  0  0  -0.046482  0  1.680026  0  0  0.023058  -0.040687  0  1.687043  0
Cl  Cl85  1  0.43727523  0.59297902  0.89997896  1  0  -0.057008  0  1.437525  0  0  -0.043567  0  1.682253  0  0  -0.046305  0  1.677971  0  0  0.023017  -0.040563  0  1.684973  0
Cl  Cl86  1  0.24617811  0.39450873  0.28437479  1  0  -0.053442  0  1.433168  0  0  -0.036065  0  1.685005  0  0  -0.038279  0  1.678853  0  0  0.043701  -0.034279  0  1.689959  0
Cl  Cl87  1  0.10999644  0.96182121  0.71553748  1  0  -0.053971  0  1.432531  0  0  -0.036298  0  1.684319  0  0  -0.038518  0  1.678159  0  0  0.043757  -0.034444  0  1.689285  0
O  O88  1  0.69618670  0.24103911  0.02816068  1  0  -0.601268  0  1.958925  0  0  -0.555439  0  2.185058  0  0  -0.578175  0  2.176722  0  0  -0.312443  -0.538876  0  2.190429  0
O  O89  1  0.21315895  0.66827475  0.97194011  1  0  -0.599796  0  1.963344  0  0  -0.554136  0  2.189552  0  0  -0.576876  0  2.181257  0  0  -0.312788  -0.537539  0  2.194871  0
O  O90  1  0.44442310  0.01944346  0.93127507  1  0  -0.636389  0  2.050633  0  0  -0.564431  0  2.320051  0  0  -0.593024  0  2.306857  0  0  -0.331969  -0.543998  0  2.328486  0
O  O91  1  0.08843456  0.51334443  0.06878140  1  0  -0.635174  0  2.051065  0  0  -0.563046  0  2.320134  0  0  -0.591662  0  2.307039  0  0  -0.331244  -0.542692  0  2.328572  0
O  O92  1  0.96168505  0.03191700  0.14053778  1  0  -0.639486  0  1.927084  0  0  -0.589074  0  2.163678  0  0  -0.610032  0  2.152051  0  0  -0.333854  -0.574508  0  2.1723  0
O  O93  1  0.89125220  0.82121131  0.85946194  1  0  -0.639461  0  1.926457  0  0  -0.588849  0  2.163054  0  0  -0.609801  0  2.151442  0  0  -0.334048  -0.574297  0  2.171682  0
O  O94  1  0.16393206  0.03363747  0.30512956  1  0  -0.654087  0  1.949104  0  0  -0.606962  0  2.204189  0  0  -0.62762  0  2.19196  0  0  -0.337375  -0.592335  0  2.212396  0
O  O95  1  0.72849547  0.85904734  0.69488539  1  0  -0.654094  0  1.948362  0  0  -0.606764  0  2.203397  0  0  -0.627428  0  2.191185  0  0  -0.337039  -0.592174  0  2.211657  0
