# generated using pymatgen
data_Zr6H22C51(Cl5O16)2
_symmetry_space_group_name_H-M   'P 1'
_cell_length_a   14.80179524
_cell_length_b   14.78490145
_cell_length_c   14.85177469
_cell_angle_alpha   59.98933793
_cell_angle_beta   59.81581718
_cell_angle_gamma   60.20234849
_symmetry_Int_Tables_number   1
_chemical_formula_structural   Zr6H22C51(Cl5O16)2
_chemical_formula_sum   'Zr6 H22 C51 Cl10 O32'
_cell_volume   2298.32206743
_cell_formula_units_Z   1
loop_
 _symmetry_equiv_pos_site_id
 _symmetry_equiv_pos_as_xyz
  1  'x, y, z'
loop_
 _atom_site_type_symbol
 _atom_site_label
 _atom_site_symmetry_multiplicity
 _atom_site_fract_x
 _atom_site_fract_y
 _atom_site_fract_z
 _atom_site_occupancy
 _atom_site_pbe_bader_charge
 _atom_site_pbe_bader_spin_density
 _atom_site_pbe_cm5_charge
 _atom_site_pbe_ddec_charge
 _atom_site_pbe_ddec_spin_density
 _atom_site_pbe_ddec_sum_bond_order
 _atom_site_pbe_magmom
Zr  Zr0  1  0.87735773  0.88327790  0.61589602  1  2.638617  0  1.629336  2.376923  0  2.756231  0
Zr  Zr1  1  0.12207633  0.11690430  0.38261884  1  2.633816  0  1.633877  2.3748  0  2.770586  0
Zr  Zr2  1  0.11582525  0.87835735  0.62086929  1  2.636192  0  1.62656  2.376127  0  2.748325  0
Zr  Zr3  1  0.88358720  0.12320142  0.37687606  1  2.634119  0  1.623975  2.375057  0  2.738038  0
Zr  Zr4  1  0.11846914  0.88137627  0.37970058  1  2.637877  0  1.629894  2.380088  0  2.757909  0
Zr  Zr5  1  0.88009367  0.11948737  0.61883734  1  2.636923  0  1.626804  2.379774  0  2.748141  0
H  H6  1  0.08825600  0.71860898  0.59328981  1  0.605569  0  0.332008  0.424273  0  0.855836  0
H  H7  1  0.09789276  0.09538198  0.21744514  1  0.594858  0  0.33222  0.424837  0  0.8539  0
H  H8  1  0.09355747  0.08989167  0.59756846  1  0.604932  0  0.33111  0.423895  0  0.855981  0
H  H9  1  0.71751549  0.09855575  0.58943577  1  0.610682  0  0.330634  0.423516  0  0.854275  0
H  H10  1  0.15853163  0.56656679  0.39778703  1  0.118216  0  0.107999  0.126337  0  1.019035  0
H  H11  1  0.83227709  0.44445618  0.58832314  1  0.145441  0  0.104543  0.12378  0  1.032406  0
H  H12  1  0.63416520  0.08854870  0.94355530  1  0.136025  0  0.104759  0.123131  0  1.031182  0
H  H13  1  0.37720798  0.89656996  0.06691416  1  0.102903  0  0.107906  0.126533  0  1.018991  0
H  H14  1  0.84526622  0.12007141  0.11004330  1  0.124581  0  0.109754  0.127039  0  1.016246  0
H  H15  1  0.13915992  0.86639520  0.90294412  1  0.150604  0  0.112425  0.131873  0  1.003761  0
H  H16  1  0.59065245  0.40340248  0.36544790  1  0.153131  0  0.111205  0.128111  0  1.014339  0
H  H17  1  0.42381482  0.61334365  0.61632282  1  0.127137  0  0.110669  0.130642  0  1.010621  0
H  H18  1  0.13803402  0.59570364  0.90891180  1  0.101113  0  0.104474  0.114736  0  1.009083  0
H  H19  1  0.73500066  0.62205382  0.97829570  1  0.045414  0  0.095457  0.107597  0  0.991496  0
H  H20  1  0.81816943  0.53662212  0.89389290  1  0.071613  0  0.096601  0.1075  0  0.985487  0
H  H21  1  0.82973292  0.36692757  0.06394623  1  0.043514  0  0.096752  0.109221  0  0.983739  0
H  H22  1  0.74647677  0.45227944  0.14850558  1  0.063295  0  0.096477  0.10999  0  0.987578  0
H  H23  1  0.60056082  0.86088622  0.62886255  1  0.130142  0  0.103943  0.127059  0  1.026797  0
H  H24  1  0.40817658  0.13138130  0.35957830  1  0.105442  0  0.103568  0.126518  0  1.027956  0
H  H25  1  0.15084279  0.43116004  0.16264112  1  0.041673  0  0.092403  0.137359  0  0.99967  0
H  H26  1  0.22712478  0.33501666  0.09285444  1  0.051999  0  0.091722  0.136061  0  1.010569  0
H  H27  1  0.23471510  0.47172310  0.02107111  1  0.035327  0  0.088703  0.123193  0  1.002106  0
C  C28  1  0.98787078  0.70533842  0.49435401  1  1.594426  0  0.237076  0.652547  0  4.093258  0
C  C29  1  0.31091398  0.99565976  0.20394143  1  1.587136  0  0.236947  0.651108  0  4.094441  0
C  C30  1  0.00430648  0.30294240  0.49619480  1  1.591475  0  0.236141  0.649749  0  4.095065  0
C  C31  1  0.69622327  0.99558337  0.80264674  1  1.587266  0  0.238058  0.65359  0  4.090917  0
C  C32  1  0.99099901  0.70079586  0.80535309  1  1.54534  0  0.237472  0.648557  0  4.095252  0
C  C33  1  0.70037706  0.00590226  0.48654396  1  1.590476  0  0.237374  0.652497  0  4.08383  0
C  C34  1  0.00267058  0.30750597  0.20039807  1  1.51205  0  0.236742  0.650046  0  4.092364  0
C  C35  1  0.30666408  0.98793791  0.50375392  1  1.576955  0  0.23722  0.652639  0  4.082864  0
C  C36  1  0.30448507  0.69901675  0.49261082  1  1.584455  0  0.237363  0.652517  0  4.08824  0
C  C37  1  0.98742359  0.99652454  0.81037781  1  1.583042  0  0.237523  0.651352  0  4.087986  0
C  C38  1  0.70454166  0.31184505  0.49550736  1  1.601467  0  0.237049  0.650635  0  4.090234  0
C  C39  1  0.00196619  0.99561922  0.19704204  1  1.580609  0  0.236626  0.650084  0  4.090379  0
C  C40  1  0.00477789  0.40565495  0.49269516  1  0.002805  0  -0.011545  -0.069443  0  3.918246  0
C  C41  1  0.98613875  0.60494770  0.49436377  1  0.088498  0  -0.011031  -0.071035  0  3.919099  0
C  C42  1  0.09785635  0.44080285  0.43810408  1  0.027763  0  0.020798  0.130496  0  4.016944  0
C  C43  1  0.89306950  0.56991243  0.54865557  1  -0.03217  0  0.022006  0.135358  0  4.011179  0
C  C44  1  0.08689367  0.53928042  0.43942339  1  0.031777  0  -0.084759  -0.149848  0  3.955732  0
C  C45  1  0.90392168  0.47166456  0.54696551  1  0.089112  0  -0.084138  -0.146975  0  3.947711  0
C  C46  1  0.41367827  0.99468935  0.10418537  1  0.002634  0  -0.01168  -0.071335  0  3.917213  0
C  C47  1  0.59696939  0.99148944  0.90575215  1  0.056056  0  -0.011346  -0.070303  0  3.917011  0
C  C48  1  0.48750830  0.04903767  0.06899153  1  0.065895  0  0.022298  0.134902  0  4.01073  0
C  C49  1  0.52380869  0.93611784  0.94148814  1  0.02317  0  0.020936  0.132441  0  4.015709  0
C  C50  1  0.57697280  0.04671789  0.97110380  1  0.019739  0  -0.083481  -0.145147  0  3.947736  0
C  C51  1  0.43434224  0.93846813  0.03939115  1  0.049256  0  -0.085257  -0.151244  0  3.956549  0
C  C52  1  0.98415508  0.99742057  0.91278595  1  0.065313  0  -0.01142  -0.073004  0  3.90507  0
C  C53  1  0.00118969  0.99022099  0.09906547  1  -0.018709  0  -0.011715  -0.072479  0  3.907753  0
C  C54  1  0.90005804  0.06966605  0.97277263  1  0.024153  0  0.021594  0.134953  0  4.004389  0
C  C55  1  0.08465632  0.91706440  0.03989854  1  0.089604  0  0.022182  0.136354  0  4.006625  0
C  C56  1  0.91009654  0.06457617  0.06372475  1  0.065412  0  -0.083571  -0.148152  0  3.952981  0
C  C57  1  0.07445742  0.92204313  0.94910382  1  -0.020902  0  -0.083723  -0.148615  0  3.950228  0
C  C58  1  0.40896849  0.60126285  0.48712330  1  0.020396  0  -0.010814  -0.072102  0  3.907401  0
C  C59  1  0.60482710  0.41461907  0.49555547  1  -0.027765  0  -0.010825  -0.071689  0  3.907652  0
C  C60  1  0.45791982  0.54149964  0.41454320  1  0.031811  0  0.022479  0.136687  0  4.006898  0
C  C61  1  0.55684628  0.47548029  0.56687949  1  0.07538  0  0.022557  0.135919  0  4.005546  0
C  C62  1  0.55373341  0.45040382  0.42025115  1  0.025794  0  -0.08539  -0.152785  0  3.957808  0
C  C63  1  0.46097579  0.56654669  0.56126655  1  0.041747  0  -0.083548  -0.147922  0  3.948696  0
C  C64  1  0.99105635  0.60228537  0.90709816  1  -0.038088  0  -0.015206  -0.078642  0  4.000903  0
C  C65  1  0.00222402  0.40882156  0.10142939  1  0.019644  0  -0.014236  -0.152885  0  3.915894  0
C  C66  1  0.91219292  0.54962788  0.96292892  1  -0.033465  0  -0.006436  0.056117  0  3.894316  0
C  C67  1  0.08383225  0.46176503  0.04579720  1  0.00398  0  0.005429  0.169767  0  3.920643  0
C  C68  1  0.91860498  0.45589428  0.05699585  1  -0.043017  0  -0.003746  0.069332  0  3.897301  0
C  C69  1  0.07545243  0.55574102  0.95146698  1  -0.011883  0  -0.087789  -0.167306  0  3.934162  0
C  C70  1  0.80859559  0.54958781  0.96531418  1  -0.018746  0  -0.151562  -0.197795  0  3.876068  0
C  C71  1  0.81576219  0.44328540  0.07185529  1  -0.035613  0  -0.15178  -0.197264  0  3.875943  0
C  C72  1  0.40915008  0.98663720  0.50275596  1  0.06938  0  -0.011422  -0.070663  0  3.903194  0
C  C73  1  0.60028157  0.00492956  0.48502066  1  0.034813  0  -0.011283  -0.07043  0  3.905589  0
C  C74  1  0.46480021  0.90884395  0.57956420  1  0.070846  0  0.022416  0.139655  0  4.004022  0
C  C75  1  0.54524552  0.08211875  0.40759362  1  0.025564  0  0.021638  0.138676  0  4.003821  0
C  C76  1  0.55786234  0.91987309  0.56945152  1  0.038103  0  -0.088744  -0.157447  0  3.973431  0
C  C77  1  0.45155712  0.07172723  0.41830880  1  0.000484  0  -0.088691  -0.158052  0  3.974336  0
C  C78  1  0.17934491  0.42274765  0.08224752  1  -0.021433  0  -0.241924  -0.414114  0  3.972709  0
Cl  Cl79  1  0.22902644  0.36651242  0.37162380  1  -0.183931  0  0.003456  -0.062778  0  1.536397  0
Cl  Cl80  1  0.76234373  0.64353956  0.61610432  1  -0.176424  0  0.005546  -0.061766  0  1.562434  0
Cl  Cl81  1  0.47648511  0.11758953  0.14186812  1  -0.18579  0  0.007222  -0.058936  0  1.560361  0
Cl  Cl82  1  0.53480252  0.86722876  0.86879334  1  -0.182885  0  0.002057  -0.06502  0  1.531592  0
Cl  Cl83  1  0.78181483  0.16679277  0.94188127  1  -0.179723  0  0.007585  -0.059683  0  1.538832  0
Cl  Cl84  1  0.20311553  0.82004149  0.07047316  1  -0.182595  0  0.002364  -0.062287  0  1.515641  0
Cl  Cl85  1  0.40629324  0.57165292  0.31746792  1  -0.179348  0  0.002444  -0.062356  0  1.51574  0
Cl  Cl86  1  0.60905691  0.44550359  0.66333926  1  -0.17894  0  0.00828  -0.058625  0  1.541521  0
Cl  Cl87  1  0.42573961  0.79792752  0.68831174  1  -0.175542  0  0.002616  -0.059883  0  1.515859  0
Cl  Cl88  1  0.58560838  0.19179995  0.29758393  1  -0.172717  0  0.002474  -0.060206  0  1.516196  0
O  O89  1  0.91340552  0.74361365  0.57212666  1  -1.173393  0  -0.357501  -0.619007  0  2.346087  0
O  O90  1  0.26937251  0.07363013  0.24196525  1  -1.173587  0  -0.356586  -0.619045  0  2.34459  0
O  O91  1  0.08124384  0.26122589  0.42159359  1  -1.180321  0  -0.357344  -0.61774  0  2.357768  0
O  O92  1  0.73591807  0.92106238  0.76070281  1  -1.166322  0  -0.359156  -0.620162  0  2.357228  0
O  O93  1  0.06934200  0.73997171  0.76358512  1  -1.187333  0  -0.36998  -0.631046  0  2.301483  0
O  O94  1  0.74064474  0.08296367  0.41246944  1  -1.177209  0  -0.356654  -0.619832  0  2.341522  0
O  O95  1  0.92607466  0.26740730  0.23742332  1  -1.173283  0  -0.361674  -0.624203  0  2.284634  0
O  O96  1  0.26348385  0.91382230  0.58081792  1  -1.182669  0  -0.356576  -0.62037  0  2.341455  0
O  O97  1  0.26211592  0.73857180  0.41880596  1  -1.172165  0  -0.358582  -0.619655  0  2.364477  0
O  O98  1  0.91439935  0.07412689  0.76717581  1  -1.185367  0  -0.359549  -0.621674  0  2.356767  0
O  O99  1  0.74259061  0.26837932  0.57348778  1  -1.176835  0  -0.35728  -0.619001  0  2.353926  0
O  O100  1  0.07806275  0.92114182  0.23720689  1  -1.171367  0  -0.358709  -0.619181  0  2.366254  0
O  O101  1  0.06521898  0.91967176  0.77211995  1  -1.177889  0  -0.343675  -0.605606  0  2.262356  0
O  O102  1  0.74223794  0.27363105  0.41853131  1  -1.176413  0  -0.345918  -0.608436  0  2.27083  0
O  O103  1  0.92667107  0.07509360  0.23262350  1  -1.176938  0  -0.344909  -0.608029  0  2.262465  0
O  O104  1  0.26502163  0.73491114  0.57171670  1  -1.180172  0  -0.345498  -0.608085  0  2.264036  0
O  O105  1  0.91540573  0.73882848  0.76539025  1  -1.170408  0  -0.343724  -0.599711  0  2.243369  0
O  O106  1  0.26887102  0.06568579  0.42693032  1  -1.173388  0  -0.350183  -0.612313  0  2.310305  0
O  O107  1  0.07798581  0.26511109  0.24205197  1  -1.176915  0  -0.347791  -0.600681  0  2.314602  0
O  O108  1  0.73707347  0.92899236  0.56437181  1  -1.182787  0  -0.349815  -0.610392  0  2.308983  0
O  O109  1  0.73392398  0.07339263  0.76487051  1  -1.17878  0  -0.346649  -0.606176  0  2.269356  0
O  O110  1  0.06679827  0.74222508  0.41860534  1  -1.185651  0  -0.347166  -0.605795  0  2.27685  0
O  O111  1  0.27037734  0.92033550  0.24060443  1  -1.169291  0  -0.34748  -0.605009  0  2.279097  0
O  O112  1  0.92612480  0.26549591  0.57331903  1  -1.181786  0  -0.346655  -0.605596  0  2.270018  0
O  O113  1  0.79770866  0.07101879  0.56348028  1  -1.241327  0  -0.692553  -1.06746  0  2.355263  0
O  O114  1  0.06674623  0.06424049  0.56990172  1  -1.230612  0  -0.694276  -1.068451  0  2.361564  0
O  O115  1  0.07035067  0.06752062  0.29751466  1  -1.22182  0  -0.695645  -1.072449  0  2.368048  0
O  O116  1  0.06334758  0.79874991  0.56569468  1  -1.234546  0  -0.694982  -1.070216  0  2.365824  0
O  O117  1  0.14825258  0.94846393  0.45174985  1  -1.200855  0  -0.792238  -1.149227  0  2.129076  0
O  O118  1  0.94969111  0.95357432  0.44726022  1  -1.200932  0  -0.790356  -1.148529  0  2.123918  0
O  O119  1  0.95254105  0.14874736  0.45021380  1  -1.195435  0  -0.792187  -1.150404  0  2.136504  0
O  O120  1  0.94740185  0.95075507  0.64772891  1  -1.199492  0  -0.791394  -1.150249  0  2.132651  0
