# generated using pymatgen
data_Zn4H8C24(SO4)5
_symmetry_space_group_name_H-M   'P 1'
_cell_length_a   19.64056147
_cell_length_b   19.71460473
_cell_length_c   33.22485975
_cell_angle_alpha   79.09170060
_cell_angle_beta   79.34092913
_cell_angle_gamma   64.02494286
_symmetry_Int_Tables_number   1
_chemical_formula_structural   Zn4H8C24(SO4)5
_chemical_formula_sum   'Zn16 H32 C96 S20 O80'
_cell_volume   11280.15447289
_cell_formula_units_Z   4
loop_
 _symmetry_equiv_pos_site_id
 _symmetry_equiv_pos_as_xyz
  1  'x, y, z'
loop_
 _atom_site_type_symbol
 _atom_site_label
 _atom_site_symmetry_multiplicity
 _atom_site_fract_x
 _atom_site_fract_y
 _atom_site_fract_z
 _atom_site_occupancy
 _atom_site_pbe_bader_charge
 _atom_site_pbe_bader_spin_density
 _atom_site_pbe_cm5_charge
 _atom_site_pbe_ddec_charge
 _atom_site_pbe_ddec_spin_density
 _atom_site_pbe_ddec_sum_bond_order
 _atom_site_pbe_magmom
Zn  Zn0  1  0.05546455  0.39898559  0.47938066  1  1.319258  0  0.673517  0.973826  0  2.342862  0
Zn  Zn1  1  0.98671095  0.48085046  0.56092433  1  1.313116  0  0.679634  0.963779  0  2.369878  0
Zn  Zn2  1  0.05638114  0.56204523  0.48057282  1  1.317663  0  0.68204  0.969734  0  2.348216  0
Zn  Zn3  1  0.90148784  0.55764648  0.47978441  1  1.319106  0  0.6816  0.969952  0  2.34757  0
Zn  Zn4  1  0.69049157  0.35148799  0.27243521  1  1.319778  0  0.672585  0.968807  0  2.364988  0
Zn  Zn5  1  0.68847772  0.19182044  0.26678645  1  1.32329  0  0.674696  0.966584  0  2.349315  0
Zn  Zn6  1  0.77074425  0.26802902  0.19100308  1  1.312537  0  0.680177  0.968126  0  2.341652  0
Zn  Zn7  1  0.84768719  0.19842593  0.27276813  1  1.316976  0  0.675826  0.959375  0  2.379476  0
Zn  Zn8  1  0.26872392  0.76471035  0.68854726  1  1.314605  0  0.680416  0.962547  0  2.3908  0
Zn  Zn9  1  0.35070600  0.69619952  0.77003588  1  1.317974  0  0.675053  0.967493  0  2.348508  0
Zn  Zn10  1  0.19077065  0.84592393  0.77038922  1  1.314568  0  0.676323  0.969345  0  2.343468  0
Zn  Zn11  1  0.19069809  0.68744515  0.76646996  1  1.31416  0  0.672784  0.964805  0  2.36867  0
Zn  Zn12  1  0.55849675  0.06199689  0.98273107  1  1.319897  0  0.673922  0.962204  0  2.374561  0
Zn  Zn13  1  0.40125562  0.05511532  0.97733805  1  1.320676  0  0.677587  0.959846  0  2.380128  0
Zn  Zn14  1  0.55496930  0.90125660  0.97831328  1  1.311343  0  0.667578  0.966128  0  2.357582  0
Zn  Zn15  1  0.48300362  0.98443470  0.06054160  1  1.314389  0  0.67126  0.964166  0  2.359015  0
H  H16  1  0.95208942  0.25588833  0.35055530  1  0.07879  0  0.116186  0.122389  0  0.98248  0
H  H17  1  0.74114986  0.45683290  0.35307712  1  0.138634  0  0.119954  0.137868  0  0.994685  0
H  H18  1  0.99895792  0.30718510  0.39785238  1  0.102086  0  0.114467  0.120121  0  0.986926  0
H  H19  1  0.09336780  0.59956792  0.69820790  1  0.115686  0  0.115589  0.120958  0  0.982486  0
H  H20  1  0.20583052  0.69833726  0.59718013  1  0.148272  0  0.121084  0.143394  0  0.988456  0
H  H21  1  0.04584264  0.55572530  0.64750824  1  0.094877  0  0.115716  0.12229  0  0.983755  0
H  H22  1  0.55600700  0.04826184  0.15323054  1  0.134167  0  0.115206  0.120972  0  0.983813  0
H  H23  1  0.64912116  0.15698693  0.04750006  1  0.140397  0  0.120572  0.139334  0  0.99309  0
H  H24  1  0.60793214  0.09667675  0.19934651  1  0.079364  0  0.114427  0.120426  0  0.986618  0
H  H25  1  0.49741146  0.79348207  0.89912609  1  0.116205  0  0.114792  0.120125  0  0.983683  0
H  H26  1  0.29738931  0.00520413  0.89749191  1  0.151396  0  0.120956  0.143005  0  0.988861  0
H  H27  1  0.44378066  0.74959112  0.85159320  1  0.115404  0  0.114581  0.120439  0  0.986196  0
H  H28  1  0.84309905  0.57619692  0.40093309  1  0.66034  0  0.313936  0.380297  0  0.937889  0
H  H29  1  0.07056645  0.68547476  0.51181092  1  0.640925  0  0.310994  0.377288  0  0.947035  0
H  H30  1  0.79414920  0.18189025  0.12224348  1  0.666223  0  0.310612  0.376504  0  0.94735  0
H  H31  1  0.17695292  0.90666467  0.84778428  1  0.643729  0  0.309988  0.375825  0  0.949495  0
H  H32  1  0.32444549  0.53986601  0.40182390  1  0.64227  0  0.349071  0.375017  0  0.85275  0
H  H33  1  0.42243284  0.20847336  0.35359569  1  0.60987  0  0.342736  0.36864  0  0.866347  0
H  H34  1  0.75782354  0.54110412  0.68508723  1  0.604034  0  0.343341  0.369225  0  0.86567  0
H  H35  1  0.49814963  0.70145890  0.56474637  1  0.6086  0  0.34759  0.373352  0  0.857657  0
H  H36  1  0.04400684  0.25287363  0.68512592  1  0.611618  0  0.345445  0.372389  0  0.859542  0
H  H37  1  0.20865563  0.99311702  0.56665239  1  0.606197  0  0.344904  0.370978  0  0.861608  0
H  H38  1  0.74479117  0.81374751  0.38388686  1  0.628057  0  0.347343  0.374288  0  0.855167  0
H  H39  1  0.00230172  0.93672197  0.36301568  1  0.591699  0  0.344959  0.371996  0  0.861406  0
H  H40  1  0.70615793  0.49307959  0.06583925  1  0.627389  0  0.34719  0.372652  0  0.85743  0
H  H41  1  0.54098128  0.75362586  0.18436200  1  0.605163  0  0.343251  0.370342  0  0.864131  0
H  H42  1  0.15038059  0.07532717  0.22054947  1  0.592773  0  0.342797  0.368923  0  0.865225  0
H  H43  1  0.10213274  0.16953628  0.03009626  1  0.633069  0  0.347071  0.373551  0  0.858472  0
H  H44  1  0.50744435  0.43407925  0.86410027  1  0.615519  0  0.344503  0.371051  0  0.863053  0
H  H45  1  0.24532940  0.31781849  0.88511236  1  0.593531  0  0.344919  0.370263  0  0.862045  0
H  H46  1  0.92106461  0.70713304  0.85343075  1  0.619005  0  0.343239  0.370639  0  0.863417  0
H  H47  1  0.82826221  0.03861112  0.89915554  1  0.618186  0  0.346804  0.373389  0  0.85777  0
C  C48  1  0.06156856  0.31456864  0.56271947  1  1.532174  0  0.213448  0.623005  0  4.217986  0
C  C49  1  0.06527914  0.57473510  0.56722063  1  1.553986  0  0.238213  0.615013  0  4.126049  0
C  C50  1  0.18113543  0.43959334  0.43844320  1  1.602592  0  0.213968  0.622903  0  4.212511  0
C  C51  1  0.93487117  0.68694080  0.43800437  1  1.563378  0  0.211826  0.617956  0  4.22216  0
C  C52  1  0.93262205  0.43622506  0.42866761  1  1.55422  0  0.237438  0.617015  0  4.128662  0
C  C53  1  0.82029240  0.55967975  0.56287245  1  1.531099  0  0.214663  0.621976  0  4.213115  0
C  C54  1  0.56450369  0.31037660  0.31263861  1  1.578041  0  0.213867  0.621138  0  4.221521  0
C  C55  1  0.68760171  0.17744719  0.18047394  1  1.56754  0  0.237469  0.612786  0  4.126435  0
C  C56  1  0.68703750  0.43342004  0.18821273  1  1.583949  0  0.214592  0.62177  0  4.214814  0
C  C57  1  0.93647611  0.19055919  0.19030242  1  1.565065  0  0.212455  0.620788  0  4.220153  0
C  C58  1  0.81561587  0.32383026  0.32020288  1  1.576314  0  0.231544  0.602433  0  4.170612  0
C  C59  1  0.81124705  0.06751017  0.30962076  1  1.561243  0  0.212706  0.620944  0  4.220081  0
C  C60  1  0.43566933  0.68698758  0.68706660  1  1.566066  0  0.213238  0.62109  0  4.221802  0
C  C61  1  0.31409924  0.81829608  0.82053429  1  1.545137  0  0.238798  0.615762  0  4.124171  0
C  C62  1  0.19166433  0.93150517  0.68873429  1  1.550325  0  0.215086  0.6211  0  4.217686  0
C  C63  1  0.06367600  0.80804858  0.81025108  1  1.568974  0  0.212482  0.621381  0  4.220813  0
C  C64  1  0.18112414  0.67883058  0.68025758  1  1.568419  0  0.231798  0.601832  0  4.171392  0
C  C65  1  0.31475301  0.56836489  0.81218374  1  1.566811  0  0.21394  0.625555  0  4.213151  0
C  C66  1  0.43661957  0.18477903  0.93802315  1  1.587249  0  0.212762  0.619135  0  4.225143  0
C  C67  1  0.43110869  0.92959101  0.92993892  1  1.588997  0  0.230585  0.600352  0  4.171171  0
C  C68  1  0.68304867  0.94008678  0.93887619  1  1.582373  0  0.212423  0.620673  0  4.223195  0
C  C69  1  0.56126539  0.81700297  0.06201053  1  1.568167  0  0.212575  0.622883  0  4.219223  0
C  C70  1  0.56922324  0.07072631  0.06937530  1  1.599063  0  0.230404  0.600235  0  4.171219  0
C  C71  1  0.31595402  0.06076609  0.06064342  1  1.557425  0  0.21345  0.622949  0  4.22188  0
C  C72  1  0.89755299  0.41063986  0.40156424  1  -0.017631  0  -0.004273  -0.040478  0  3.925244  0
C  C73  1  0.84416138  0.35346235  0.34871350  1  0.005288  0  -0.003105  -0.011353  0  3.944199  0
C  C74  1  0.82388543  0.45280580  0.38880157  1  -0.17867  0  -0.006556  -0.098699  0  3.908589  0
C  C75  1  0.91673235  0.31093060  0.36144249  1  0.010041  0  -0.06931  -0.078052  0  3.949058  0
C  C76  1  0.79793099  0.42407412  0.36264590  1  -9.2e-05  0  -0.06601  -0.091158  0  3.923978  0
C  C77  1  0.94261615  0.33950221  0.38761211  1  0.038629  0  -0.071734  -0.079258  0  3.952646  0
C  C78  1  0.09814355  0.60273491  0.59422891  1  0.071544  0  -0.003935  -0.039499  0  3.924751  0
C  C79  1  0.15205209  0.65183614  0.65073043  1  -0.043482  0  -0.003769  -0.011074  0  3.944957  0
C  C80  1  0.14391049  0.64336768  0.58007814  1  -0.215394  0  -0.006308  -0.099325  0  3.914831  0
C  C81  1  0.10716379  0.61147562  0.66510057  1  0.00882  0  -0.068993  -0.078174  0  3.948662  0
C  C82  1  0.17035455  0.66742576  0.60826998  1  0.03955  0  -0.066108  -0.094801  0  3.92473  0
C  C83  1  0.08083371  0.58730138  0.63696753  1  -0.036487  0  -0.070877  -0.079131  0  3.946903  0
C  C84  1  0.30215207  0.45454616  0.40149052  1  0.591714  0  0.093005  0.289098  0  4.079093  0
C  C85  1  0.44375593  0.29524824  0.35026833  1  0.526369  0  0.086369  0.279752  0  4.088821  0
C  C86  1  0.25555656  0.41555515  0.41393411  1  -0.123217  0  -0.038947  -0.234178  0  3.917356  0
C  C87  1  0.49007379  0.33431176  0.33735733  1  -0.061287  0  -0.03852  -0.233095  0  3.919523  0
C  C88  1  0.37522993  0.33935062  0.37364832  1  -0.13269  0  -0.038936  -0.135875  0  4.15061  0
C  C89  1  0.37093112  0.41034124  0.37818658  1  -0.131333  0  -0.037024  -0.137377  0  4.141573  0
C  C90  1  0.72890924  0.57561843  0.63047178  1  0.630368  0  0.087014  0.28204  0  4.088279  0
C  C91  1  0.52732552  0.66965484  0.61946364  1  0.599245  0  0.089284  0.283997  0  4.085219  0
C  C92  1  0.74611229  0.58330225  0.58760141  1  -0.115164  0  -0.038285  -0.2373  0  3.922591  0
C  C93  1  0.51000723  0.66219292  0.66233755  1  -0.122823  0  -0.037639  -0.231138  0  3.916089  0
C  C94  1  0.60742542  0.63756977  0.60793500  1  -0.164834  0  -0.037463  -0.140743  0  4.145661  0
C  C95  1  0.64892193  0.60695574  0.64200523  1  -0.132493  0  -0.039684  -0.139227  0  4.15136  0
C  C96  1  0.07789711  0.22372720  0.63071399  1  0.575818  0  0.088782  0.28381  0  4.085226  0
C  C97  1  0.17608220  0.02264770  0.62107587  1  0.598296  0  0.087867  0.280694  0  4.089039  0
C  C98  1  0.08642494  0.24066230  0.58781222  1  -0.099372  0  -0.039482  -0.234185  0  3.921833  0
C  C99  1  0.16770767  0.00581328  0.66398294  1  -0.053299  0  -0.036784  -0.232977  0  3.917158  0
C  C100  1  0.14347999  0.10235216  0.60908003  1  -0.236703  0  -0.038841  -0.136203  0  4.150778  0
C  C101  1  0.11100372  0.14398668  0.64279668  1  -0.092375  0  -0.037772  -0.141953  0  4.148992  0
C  C102  1  0.84158119  0.80244229  0.39538471  1  0.564444  0  0.088458  0.281275  0  4.090265  0
C  C103  1  0.90453661  0.95097102  0.35184240  1  0.55507  0  0.087987  0.282999  0  4.085583  0
C  C104  1  0.90978628  0.76070358  0.41289593  1  -0.087064  0  -0.039861  -0.236795  0  3.929252  0
C  C105  1  0.83655507  0.99293639  0.33417551  1  -0.064437  0  -0.038689  -0.232806  0  3.91794  0
C  C106  1  0.90636174  0.88114871  0.37381943  1  -0.170604  0  -0.037848  -0.139443  0  4.149907  0
C  C107  1  0.84009170  0.87172626  0.37274015  1  -0.115971  0  -0.038021  -0.135167  0  4.144144  0
C  C108  1  0.65807341  0.15316843  0.14976279  1  0.03303  0  -0.004107  -0.040651  0  3.921599  0
C  C109  1  0.59966326  0.09925945  0.09758303  1  0.040309  0  -0.002622  -0.009831  0  3.938963  0
C  C110  1  0.66928219  0.17022021  0.10634944  1  -0.180715  0  -0.005981  -0.097704  0  3.907753  0
C  C111  1  0.58780925  0.08242465  0.14041042  1  -0.113187  0  -0.070219  -0.079835  0  3.951378  0
C  C112  1  0.64027879  0.14330716  0.08081362  1  0.029488  0  -0.067418  -0.093249  0  3.921175  0
C  C113  1  0.61673287  0.10929360  0.16593949  1  -0.003602  0  -0.071897  -0.079273  0  3.951292  0
C  C114  1  0.67315819  0.52401133  0.12004162  1  0.570166  0  0.091169  0.285789  0  4.082048  0
C  C115  1  0.57630275  0.72531349  0.12983669  1  0.619133  0  0.086745  0.282285  0  4.086792  0
C  C116  1  0.66336140  0.50720881  0.16293436  1  -0.063959  0  -0.038576  -0.2329  0  3.916942  0
C  C117  1  0.58566941  0.74269969  0.08701836  1  -0.133484  0  -0.039315  -0.234202  0  3.915871  0
C  C118  1  0.60815270  0.64550833  0.14169820  1  -0.153728  0  -0.039051  -0.138141  0  4.152393  0
C  C119  1  0.64103767  0.60389119  0.10799733  1  -0.125802  0  -0.038047  -0.136098  0  4.139328  0
C  C120  1  0.08343595  0.12406326  0.17867536  1  0.54979  0  0.086178  0.281845  0  4.087052  0
C  C121  1  0.16886814  0.12402775  0.07234032  1  0.57525  0  0.088721  0.282405  0  4.086396  0
C  C122  1  0.01088914  0.16378198  0.16575426  1  -0.085652  0  -0.03979  -0.238531  0  3.925931  0
C  C123  1  0.24146747  0.08538216  0.08532190  1  -0.090186  0  -0.038349  -0.231545  0  3.916097  0
C  C124  1  0.11122486  0.13799819  0.10656636  1  -0.143985  0  -0.037266  -0.136903  0  4.144195  0
C  C125  1  0.14097621  0.10962614  0.14447916  1  -0.192545  0  -0.040506  -0.14052  0  4.152859  0
C  C126  1  0.34072734  0.85164014  0.84810485  1  -0.031862  0  -0.004293  -0.040795  0  3.922602  0
C  C127  1  0.40059125  0.90180425  0.90140250  1  0.003464  0  -0.003755  -0.011707  0  3.941936  0
C  C128  1  0.29950936  0.92462179  0.86129915  1  -0.122199  0  -0.005995  -0.097805  0  3.910223  0
C  C129  1  0.44205490  0.82978420  0.88839099  1  -0.022702  0  -0.070008  -0.07949  0  3.952263  0
C  C130  1  0.32950699  0.94890914  0.88763548  1  0.000861  0  -0.066194  -0.09366  0  3.921342  0
C  C131  1  0.41217186  0.80549467  0.86203623  1  -0.039805  0  -0.071585  -0.079035  0  3.951162  0
C  C132  1  0.40826882  0.45055854  0.85407027  1  0.559775  0  0.087288  0.28333  0  4.085153  0
C  C133  1  0.34370930  0.30252858  0.89602794  1  0.611386  0  0.087647  0.279732  0  4.088381  0
C  C134  1  0.34006508  0.49386984  0.83681432  1  -0.072202  0  -0.039948  -0.236041  0  3.92126  0
C  C135  1  0.41182507  0.25936182  0.91339376  1  -0.127082  0  -0.037739  -0.230743  0  3.915564  0
C  C136  1  0.34272699  0.37227440  0.87431010  1  -0.13129  0  -0.038334  -0.135156  0  4.145733  0
C  C137  1  0.40946743  0.38064497  0.87564106  1  -0.169258  0  -0.039458  -0.140256  0  4.149588  0
C  C138  1  0.94344445  0.79342937  0.84942540  1  0.563431  0  0.086538  0.282769  0  4.088034  0
C  C139  1  0.80465130  0.95347623  0.90103814  1  0.637883  0  0.0884  0.282586  0  4.085151  0
C  C140  1  0.98998817  0.83206381  0.83561802  1  -0.094187  0  -0.04011  -0.238324  0  3.924853  0
C  C141  1  0.75763896  0.91520425  0.91428485  1  -0.128691  0  -0.038726  -0.232089  0  3.916607  0
C  C142  1  0.87248595  0.90882693  0.87727072  1  -0.210437  0  -0.037043  -0.136051  0  4.140856  0
C  C143  1  0.87581554  0.83796071  0.87327474  1  -0.107946  0  -0.040342  -0.14057  0  4.154515  0
S  S144  1  0.29560720  0.32570626  0.39725200  1  0.24056  0  0.052605  0.10119  0  2.795318  0
S  S145  1  0.44996126  0.42432447  0.35378744  1  0.240497  0  0.067223  0.122821  0  2.786074  0
S  S146  1  0.66504016  0.62780826  0.56159512  1  0.272545  0  0.077839  0.143039  0  2.783896  0
S  S147  1  0.59111124  0.61641201  0.68833121  1  0.236458  0  0.055227  0.10589  0  2.79414  0
S  S148  1  0.13468623  0.15953789  0.56246636  1  0.235306  0  0.056052  0.106646  0  2.793646  0
S  S149  1  0.12060292  0.08680357  0.68943919  1  0.275696  0  0.075216  0.138598  0  2.781476  0
S  S150  1  0.97160901  0.80564129  0.40173754  1  0.25653  0  0.067571  0.126259  0  2.792342  0
S  S151  1  0.77535614  0.94725919  0.34450289  1  0.247983  0  0.058963  0.110996  0  2.789306  0
S  S152  1  0.61571573  0.58835527  0.18828766  1  0.234643  0  0.058649  0.110271  0  2.797227  0
S  S153  1  0.63337676  0.66164121  0.06153504  1  0.233627  0  0.057764  0.109668  0  2.789179  0
S  S154  1  0.01312615  0.18287824  0.11210323  1  0.288911  0  0.068298  0.128067  0  2.791544  0
S  S155  1  0.23917925  0.06609732  0.13896142  1  0.265055  0  0.055286  0.105846  0  2.797338  0
S  S156  1  0.27803566  0.44912628  0.84677195  1  0.234298  0  0.058132  0.110521  0  2.798864  0
S  S157  1  0.47407026  0.30383827  0.90328675  1  0.248721  0  0.062892  0.116584  0  2.792109  0
S  S158  1  0.95130038  0.92217908  0.85186332  1  0.253726  0  0.067237  0.126436  0  2.790435  0
S  S159  1  0.79638373  0.82510528  0.89806234  1  0.228975  0  0.055148  0.105893  0  2.79979  0
S  S160  1  0.75528460  0.54193657  0.40605375  1  3.102978  0  0.527014  1.148421  0  6.045101  0
S  S161  1  0.17722250  0.66314029  0.52676200  1  3.111008  0  0.526508  1.148752  0  6.04927  0
S  S162  1  0.71479847  0.23091676  0.07990259  1  3.109348  0  0.525556  1.146287  0  6.050397  0
S  S163  1  0.21015002  0.99444806  0.84422732  1  3.07699  0  0.52648  1.148619  0  6.050526  0
O  O164  1  0.00086306  0.49813450  0.50033542  1  -1.219434  0  -0.572778  -1.032685  0  2.537412  0
O  O165  1  0.07935831  0.31363052  0.52350168  1  -1.156409  0  -0.327024  -0.557363  0  2.327232  0
O  O166  1  0.04765193  0.52006261  0.58329557  1  -1.157831  0  -0.2963  -0.515676  0  2.318302  0
O  O167  1  0.15442723  0.50406723  0.45181078  1  -1.153824  0  -0.308298  -0.515785  0  2.348567  0
O  O168  1  0.02462982  0.37323985  0.58161304  1  -1.161575  0  -0.313505  -0.525312  0  2.335208  0
O  O169  1  0.14929294  0.39311181  0.44432014  1  -1.183852  0  -0.328896  -0.562092  0  2.325798  0
O  O170  1  0.05480615  0.60796433  0.53018745  1  -1.185433  0  -0.305739  -0.564726  0  2.409325  0
O  O171  1  0.00356604  0.65861675  0.44721133  1  -1.172663  0  -0.324617  -0.551193  0  2.331296  0
O  O172  1  0.90767132  0.50776310  0.43081444  1  -1.175537  0  -0.307371  -0.568252  0  2.409175  0
O  O173  1  0.88741963  0.65679600  0.44881740  1  -1.155135  0  -0.314009  -0.527376  0  2.329556  0
O  O174  1  0.98701837  0.38493107  0.44733140  1  -1.16269  0  -0.298528  -0.521296  0  2.309741  0
O  O175  1  0.87944438  0.53251572  0.58184403  1  -1.162068  0  -0.315273  -0.530663  0  2.329493  0
O  O176  1  0.81868725  0.56922941  0.52359752  1  -1.13804  0  -0.318821  -0.540827  0  2.348559  0
O  O177  1  0.74824297  0.25265069  0.25105660  1  -1.232486  0  -0.571236  -1.031401  0  2.530546  0
O  O178  1  0.59362316  0.35913006  0.30453027  1  -1.169561  0  -0.323647  -0.551811  0  2.331753  0
O  O179  1  0.65433719  0.17834101  0.21706675  1  -1.159398  0  -0.296689  -0.516745  0  2.309182  0
O  O180  1  0.72146062  0.37425332  0.16947084  1  -1.16071  0  -0.309154  -0.517185  0  2.341679  0
O  O181  1  0.59377418  0.24398692  0.30137039  1  -1.160017  0  -0.314707  -0.526966  0  2.328452  0
O  O182  1  0.67074895  0.43523561  0.22739547  1  -1.180637  0  -0.325494  -0.555486  0  2.336284  0
O  O183  1  0.74531818  0.19403352  0.16888731  1  -1.182333  0  -0.304825  -0.562524  0  2.406062  0
O  O184  1  0.87888001  0.22668890  0.16963183  1  -1.162397  0  -0.325606  -0.552308  0  2.331648  0
O  O185  1  0.86056075  0.25874499  0.30919105  1  -1.167681  0  -0.309959  -0.540199  0  2.338893  0
O  O186  1  0.93439149  0.17651573  0.22950795  1  -1.164183  0  -0.312849  -0.527023  0  2.32906  0
O  O187  1  0.74943506  0.36616531  0.30949309  1  -1.163737  0  -0.30668  -0.532668  0  2.331396  0
O  O188  1  0.74693449  0.09145585  0.29537796  1  -1.177282  0  -0.327328  -0.558051  0  2.325208  0
O  O189  1  0.85452382  0.10203183  0.30465715  1  -1.151473  0  -0.311597  -0.522582  0  2.335822  0
O  O190  1  0.25072810  0.74812110  0.74917445  1  -1.217202  0  -0.571667  -1.032142  0  2.534281  0
O  O191  1  0.37679144  0.72090209  0.66784531  1  -1.161344  0  -0.311156  -0.522696  0  2.335517  0
O  O192  1  0.36509022  0.76507695  0.80131140  1  -1.15455  0  -0.297149  -0.518225  0  2.313159  0
O  O193  1  0.17674305  0.93208426  0.72808144  1  -1.130623  0  -0.320723  -0.543066  0  2.338565  0
O  O194  1  0.43671333  0.67203332  0.72641112  1  -1.147618  0  -0.325848  -0.555151  0  2.330449  0
O  O195  1  0.22453331  0.87327821  0.66936974  1  -1.159718  0  -0.311656  -0.524825  0  2.342945  0
O  O196  1  0.24215668  0.84325769  0.81851108  1  -1.171331  0  -0.305466  -0.562589  0  2.402016  0
O  O197  1  0.09224151  0.85738151  0.80137856  1  -1.170271  0  -0.326734  -0.55424  0  2.333083  0
O  O198  1  0.16439660  0.66172108  0.71862818  1  -1.157215  0  -0.31044  -0.541441  0  2.329669  0
O  O199  1  0.09328728  0.74160316  0.79908377  1  -1.156835  0  -0.313343  -0.528296  0  2.324822  0
O  O200  1  0.21994737  0.71664823  0.66416302  1  -1.167106  0  -0.305972  -0.530397  0  2.347837  0
O  O201  1  0.35840006  0.60289298  0.80600842  1  -1.162488  0  -0.317083  -0.532913  0  2.320726  0
O  O202  1  0.24964285  0.59216619  0.79900365  1  -1.170773  0  -0.325346  -0.554841  0  2.340523  0
O  O203  1  0.49985875  0.99998143  0.99987993  1  -1.228089  0  -0.570384  -1.030863  0  2.524323  0
O  O204  1  0.50276457  0.15895815  0.95029435  1  -1.169306  0  -0.323683  -0.551494  0  2.335762  0
O  O205  1  0.38846083  0.99542640  0.94047126  1  -1.172639  0  -0.305065  -0.529244  0  2.343317  0
O  O206  1  0.65251757  0.89247802  0.94629284  1  -1.164779  0  -0.326804  -0.556534  0  2.331067  0
O  O207  1  0.39127817  0.15220896  0.94509965  1  -1.158257  0  -0.310666  -0.522054  0  2.330407  0
O  O208  1  0.65518377  0.00593833  0.95058841  1  -1.161457  0  -0.312146  -0.523497  0  2.333408  0
O  O209  1  0.49663306  0.88518964  0.94111326  1  -1.171073  0  -0.310599  -0.542395  0  2.322281  0
O  O210  1  0.57628996  0.81586757  0.02275242  1  -1.170416  0  -0.326555  -0.556265  0  2.329597  0
O  O211  1  0.53163798  0.03192286  0.08640217  1  -1.17181  0  -0.309955  -0.540996  0  2.325392  0
O  O212  1  0.52760026  0.87572219  0.08103627  1  -1.153619  0  -0.314126  -0.527996  0  2.326965  0
O  O213  1  0.58373574  0.08789604  0.03083668  1  -1.173242  0  -0.305837  -0.530748  0  2.337453  0
O  O214  1  0.31672832  0.07398362  0.02152985  1  -1.138937  0  -0.311324  -0.52312  0  2.33649  0
O  O215  1  0.37402057  0.02790379  0.08106103  1  -1.17218  0  -0.326407  -0.556713  0  2.329167  0
O  O216  1  0.79532304  0.59763797  0.38705658  1  -1.239  0  -0.3691  -0.529335  0  2.167479  0
O  O217  1  0.68906695  0.56809222  0.38499189  1  -1.297602  0  -0.318889  -0.520817  0  2.104411  0
O  O218  1  0.74843573  0.53287900  0.45047964  1  -1.273999  0  -0.324723  -0.542867  0  2.133271  0
O  O219  1  0.09980265  0.71785447  0.50775185  1  -1.216234  0  -0.372527  -0.536072  0  2.163758  0
O  O220  1  0.21824074  0.70889310  0.52467529  1  -1.288099  0  -0.319227  -0.52123  0  2.103928  0
O  O221  1  0.21259002  0.59258789  0.50906631  1  -1.292252  0  -0.323  -0.538066  0  2.129325  0
O  O222  1  0.79980770  0.18448101  0.09126514  1  -1.24079  0  -0.370793  -0.532808  0  2.162778  0
O  O223  1  0.71927910  0.23099679  0.03627456  1  -1.291493  0  -0.320174  -0.521686  0  2.102718  0
O  O224  1  0.67863500  0.30128726  0.09778031  1  -1.293818  0  -0.323561  -0.538307  0  2.1303  0
O  O225  1  0.15428647  0.95412042  0.86193672  1  -1.215898  0  -0.371282  -0.533238  0  2.162479  0
O  O226  1  0.18418907  0.05903389  0.86620483  1  -1.2992  0  -0.319519  -0.52072  0  2.102806  0
O  O227  1  0.21933799  0.00362947  0.79975989  1  -1.253681  0  -0.327837  -0.54594  0  2.131128  0
O  O228  1  0.28206718  0.52522479  0.41056525  1  -1.123703  0  -0.319813  -0.382528  0  2.282511  0
O  O229  1  0.46288774  0.22445851  0.34119010  1  -1.105382  0  -0.331118  -0.397437  0  2.271368  0
O  O230  1  0.78276292  0.54210722  0.65689189  1  -1.117212  0  -0.33154  -0.398407  0  2.270371  0
O  O231  1  0.47361530  0.70351865  0.59309313  1  -1.087291  0  -0.325025  -0.390484  0  2.269044  0
O  O232  1  0.04241609  0.27749192  0.65674240  1  -1.098708  0  -0.328913  -0.396486  0  2.268349  0
O  O233  1  0.21094908  0.96879788  0.59508498  1  -1.100001  0  -0.327439  -0.392893  0  2.272702  0
O  O234  1  0.78576204  0.77804810  0.39998074  1  -1.112771  0  -0.323979  -0.388858  0  2.2826  0
O  O235  1  0.96073070  0.97479006  0.34802093  1  -1.082205  0  -0.32864  -0.39626  0  2.268441  0
O  O236  1  0.70935996  0.46983963  0.09444323  1  -1.117022  0  -0.321164  -0.383753  0  2.284007  0
O  O237  1  0.54101195  0.77874734  0.15612092  1  -1.096227  0  -0.331294  -0.399224  0  2.269701  0
O  O238  1  0.09574496  0.10291520  0.21888658  1  -1.07646  0  -0.330578  -0.397118  0  2.267441  0
O  O239  1  0.15675974  0.14514749  0.03217921  1  -1.119327  0  -0.325575  -0.391623  0  2.271231  0
O  O240  1  0.46513887  0.47352699  0.85015871  1  -1.10795  0  -0.331338  -0.399063  0  2.266811  0
O  O241  1  0.28692642  0.27953312  0.89999205  1  -1.078198  0  -0.326515  -0.390807  0  2.270599  0
O  O242  1  0.96164503  0.72268520  0.84061345  1  -1.110136  0  -0.331544  -0.399911  0  2.266234  0
O  O243  1  0.78633219  0.02400706  0.91003692  1  -1.100576  0  -0.326436  -0.393089  0  2.270156  0
