# generated using pymatgen
data_ZnH13C12S(NO2)3
_symmetry_space_group_name_H-M   'P 1'
_cell_length_a   6.65825644
_cell_length_b   10.28194084
_cell_length_c   21.79500000
_cell_angle_alpha   93.93676283
_cell_angle_beta   90.00000000
_cell_angle_gamma   90.00000000
_symmetry_Int_Tables_number   1
_chemical_formula_structural   ZnH13C12S(NO2)3
_chemical_formula_sum   'Zn4 H52 C48 S4 N12 O24'
_cell_volume   1488.56064944
_cell_formula_units_Z   4
loop_
 _symmetry_equiv_pos_site_id
 _symmetry_equiv_pos_as_xyz
  1  'x, y, z'
loop_
 _atom_site_type_symbol
 _atom_site_label
 _atom_site_symmetry_multiplicity
 _atom_site_fract_x
 _atom_site_fract_y
 _atom_site_fract_z
 _atom_site_occupancy
 _atom_site_hle17_bader_spin_density
 _atom_site_hle17_ddec_charge
 _atom_site_hle17_ddec_spin_density
 _atom_site_hle17_ddec_sum_bond_order
 _atom_site_hle17_magmom
 _atom_site_hse06_10hf_bader_spin_density
 _atom_site_hse06_10hf_ddec_charge
 _atom_site_hse06_10hf_ddec_spin_density
 _atom_site_hse06_10hf_ddec_sum_bond_order
 _atom_site_hse06_10hf_magmom
 _atom_site_hse06_bader_spin_density
 _atom_site_hse06_ddec_charge
 _atom_site_hse06_ddec_spin_density
 _atom_site_hse06_ddec_sum_bond_order
 _atom_site_hse06_magmom
 _atom_site_pbe_bader_charge
 _atom_site_pbe_bader_spin_density
 _atom_site_pbe_cm5_charge
 _atom_site_pbe_ddec_charge
 _atom_site_pbe_ddec_spin_density
 _atom_site_pbe_ddec_sum_bond_order
 _atom_site_pbe_magmom
Zn  Zn0  1  0.80106107  0.42663156  0.84644569  1  0  1.076357  0  1.829065  0  0  0.90316  0  2.280339  0  0  0.946948  0  2.227219  0  1.339183  0  0.706092  0.873444  0  2.31596  0
Zn  Zn1  1  0.30105629  0.07336747  0.65355544  1  0  1.07636  0  1.829035  0  0  0.903171  0  2.280326  0  0  0.946955  0  2.227206  0  1.339229  0  0.706098  0.873453  0  2.315946  0
Zn  Zn2  1  0.19894097  0.57336845  0.15355435  1  0  1.076337  0  1.829098  0  0  0.90316  0  2.280369  0  0  0.94694  0  2.227249  0  1.339194  0  0.706089  0.873444  0  2.315989  0
Zn  Zn3  1  0.69894124  0.92663157  0.34644503  1  0  1.076304  0  1.829147  0  0  0.903099  0  2.280431  0  0  0.946885  0  2.227311  0  1.339235  0  0.706079  0.873383  0  2.31605  0
H  H4  1  0.72307518  0.53936466  0.01980332  1  0  0.30722  0  0.932593  0  0  0.283276  0  1.003012  0  0  0.292  0  0.99699  0  0.554464  0  0.310963  0.27711  0  1.007278  0
H  H5  1  0.22307492  0.96063633  0.48019792  1  0  0.307181  0  0.93258  0  0  0.283217  0  1.00303  0  0  0.291942  0  0.997009  0  0.554506  0  0.31093  0.277053  0  1.007294  0
H  H6  1  0.27692535  0.46063730  0.98019679  1  0  0.307219  0  0.93258  0  0  0.28326  0  1.003003  0  0  0.291984  0  0.996982  0  0.554474  0  0.310975  0.277094  0  1.007269  0
H  H7  1  0.77692712  0.03936173  0.51980298  1  0  0.307258  0  0.932536  0  0  0.283308  0  1.002957  0  0  0.292033  0  0.996935  0  0.554493  0  0.310982  0.277141  0  1.007225  0
H  H8  1  0.01501294  0.24917525  0.79806311  1  0  0.429977  0  0.871652  0  0  0.398297  0  0.93541  0  0  0.40884  0  0.920304  0  0.645952  0  0.296906  0.390962  0  0.945813  0
H  H9  1  0.51501170  0.25082378  0.70193665  1  0  0.429858  0  0.871834  0  0  0.398232  0  0.935481  0  0  0.408778  0  0.920371  0  0.645872  0  0.296884  0.390897  0  0.945884  0
H  H10  1  0.98498759  0.75082475  0.20193647  1  0  0.42999  0  0.871635  0  0  0.398308  0  0.935394  0  0  0.408852  0  0.920286  0  0.645954  0  0.296911  0.390973  0  0.945798  0
H  H11  1  0.48498733  0.74917526  0.29806245  1  0  0.429957  0  0.871682  0  0  0.398278  0  0.935436  0  0  0.40882  0  0.920331  0  0.645956  0  0.296903  0.390943  0  0.945839  0
H  H12  1  0.84475268  0.26468753  0.74458894  1  0  0.426447  0  0.878874  0  0  0.392844  0  0.946361  0  0  0.403631  0  0.9307  0  0.632389  0  0.29355  0.385198  0  0.957426  0
H  H13  1  0.34475091  0.23531150  0.75541174  1  0  0.42646  0  0.878843  0  0  0.392852  0  0.946341  0  0  0.403639  0  0.930678  0  0.632346  0  0.293563  0.385205  0  0.957406  0
H  H14  1  0.15524935  0.73531247  0.25541111  1  0  0.426437  0  0.878889  0  0  0.392836  0  0.946372  0  0  0.403623  0  0.930711  0  0.632353  0  0.293553  0.38519  0  0.957437  0
H  H15  1  0.65524812  0.76468754  0.24458735  1  0  0.426406  0  0.878917  0  0  0.392798  0  0.946413  0  0  0.403586  0  0.93075  0  0.632332  0  0.29352  0.385151  0  0.957478  0
H  H16  1  0.80551569  0.45761908  0.71686755  1  0  0.089426  0  0.965823  0  0  0.096845  0  1.030375  0  0  0.099569  0  1.026921  0  0.15491  0  0.119865  0.09441  0  1.033367  0
H  H17  1  0.30551392  0.04237995  0.78313267  1  0  0.089349  0  0.965917  0  0  0.09684  0  1.030391  0  0  0.099562  0  1.026939  0  0.154906  0  0.119903  0.094407  0  1.033388  0
H  H18  1  0.19448335  0.54238093  0.28313203  1  0  0.089435  0  0.965838  0  0  0.096858  0  1.030377  0  0  0.099581  0  1.026924  0  0.154978  0  0.119869  0.094422  0  1.033371  0
H  H19  1  0.69448361  0.95761811  0.21686640  1  0  0.089357  0  0.965955  0  0  0.096847  0  1.030427  0  0  0.099571  0  1.026972  0  0.154957  0  0.119896  0.094411  0  1.033421  0
H  H20  1  0.79892988  0.62150799  0.63958749  1  0  0.104848  0  0.939991  0  0  0.11961  0  0.991223  0  0  0.121901  0  0.992352  0  0.04005  0  0.10963  0.117754  0  0.990856  0
H  H21  1  0.29893111  0.87849398  0.86041333  1  0  0.104805  0  0.940035  0  0  0.119557  0  0.991285  0  0  0.121848  0  0.992414  0  0.040005  0  0.109597  0.117705  0  0.990904  0
H  H22  1  0.20106765  0.37849495  0.36041265  1  0  0.104832  0  0.940012  0  0  0.119592  0  0.991245  0  0  0.121888  0  0.992377  0  0.040015  0  0.109621  0.117738  0  0.990867  0
H  H23  1  0.70106792  0.12150603  0.13958626  1  0  0.104833  0  0.939965  0  0  0.119596  0  0.991208  0  0  0.121888  0  0.992336  0  0.039992  0  0.109611  0.117739  0  0.990835  0
H  H24  1  0.79396611  0.86199707  0.67676179  1  0  0.11977  0  0.958862  0  0  0.127642  0  1.023177  0  0  0.130945  0  1.020092  0  0.154712  0  0.110416  0.124837  0  1.025955  0
H  H25  1  0.29396735  0.63800587  0.82323998  1  0  0.119751  0  0.958948  0  0  0.127638  0  1.023237  0  0  0.130939  0  1.020156  0  0.152718  0  0.110401  0.124834  0  1.026012  0
H  H26  1  0.20603292  0.13800684  0.32323930  1  0  0.119759  0  0.958917  0  0  0.127628  0  1.023229  0  0  0.13093  0  1.020147  0  0.152751  0  0.110395  0.124825  0  1.026004  0
H  H27  1  0.70603018  0.36199414  0.17676007  1  0  0.11976  0  0.958939  0  0  0.127643  0  1.023236  0  0  0.130945  0  1.020153  0  0.152624  0  0.110429  0.124838  0  1.026012  0
H  H28  1  0.79816391  0.02525425  0.75942176  1  0  0.113589  0  0.960277  0  0  0.119082  0  1.027937  0  0  0.122488  0  1.025233  0  0.138504  0  0.108617  0.11709  0  1.028979  0
H  H29  1  0.29816665  0.47474576  0.74057849  1  0  0.113565  0  0.960315  0  0  0.119062  0  1.027984  0  0  0.122472  0  1.025267  0  0.138483  0  0.108617  0.11707  0  1.029026  0
H  H30  1  0.20183362  0.97474771  0.24057789  1  0  0.113586  0  0.960287  0  0  0.119061  0  1.027965  0  0  0.12247  0  1.025252  0  0.138527  0  0.108622  0.11707  0  1.029006  0
H  H31  1  0.70183088  0.52525230  0.25942149  1  0  0.113552  0  0.960288  0  0  0.119022  0  1.027976  0  0  0.122432  0  1.02526  0  0.138506  0  0.108603  0.117029  0  1.02902  0
H  H32  1  0.78686816  0.09112977  0.87191968  1  0  0.12709  0  0.958433  0  0  0.13279  0  1.020108  0  0  0.136849  0  1.017935  0  0.130072  0  0.10864  0.129931  0  1.021656  0
H  H33  1  0.28687090  0.40887024  0.62808149  1  0  0.12711  0  0.958382  0  0  0.132873  0  1.019997  0  0  0.136938  0  1.017826  0  0.130079  0  0.108654  0.130009  0  1.021552  0
H  H34  1  0.21312937  0.90887024  0.12808082  1  0  0.127088  0  0.958432  0  0  0.132825  0  1.020073  0  0  0.136887  0  1.0179  0  0.130068  0  0.108645  0.129962  0  1.021624  0
H  H35  1  0.71312964  0.59112880  0.37191853  1  0  0.127045  0  0.958451  0  0  0.132806  0  1.020074  0  0  0.136865  0  1.017901  0  0.130097  0  0.108635  0.129945  0  1.021622  0
H  H36  1  0.77377915  0.91936287  0.94641378  1  0  0.089656  0  0.938957  0  0  0.103481  0  0.992762  0  0  0.106382  0  0.990719  0  0.080364  0  0.105709  0.101015  0  0.994775  0
H  H37  1  0.27377588  0.58063715  0.55358744  1  0  0.08962  0  0.939029  0  0  0.103436  0  0.992844  0  0  0.106327  0  0.990813  0  0.08041  0  0.105696  0.100971  0  0.994857  0
H  H38  1  0.22622289  0.08063519  0.05358666  1  0  0.089598  0  0.939025  0  0  0.103415  0  0.992841  0  0  0.106305  0  0.99081  0  0.080374  0  0.105677  0.100949  0  0.994854  0
H  H39  1  0.72622466  0.41936384  0.44641310  1  0  0.089648  0  0.939005  0  0  0.103464  0  0.99282  0  0  0.106355  0  0.990788  0  0.080388  0  0.10569  0.100998  0  0.994833  0
H  H40  1  0.76114371  0.72525172  0.97643878  1  0  0.091623  0  0.941026  0  0  0.102623  0  1.004074  0  0  0.105987  0  0.999598  0  0.126216  0  0.124729  0.100125  0  1.007342  0
H  H41  1  0.26114044  0.77474829  0.52356244  1  0  0.091582  0  0.940891  0  0  0.102578  0  1.00397  0  0  0.105941  0  0.999492  0  0.126253  0  0.124712  0.100079  0  1.00724  0
H  H42  1  0.23885833  0.27474829  0.02356264  1  0  0.091572  0  0.940918  0  0  0.102574  0  1.004  0  0  0.105937  0  0.999522  0  0.12607  0  0.124703  0.100075  0  1.007269  0
H  H43  1  0.73885709  0.22524977  0.47643571  1  0  0.091599  0  0.940895  0  0  0.102608  0  1.003968  0  0  0.105971  0  0.999491  0  0.126118  0  0.124728  0.10011  0  1.007236  0
H  H44  1  0.71630164  0.34724226  0.07025933  1  0  0.146305  0  0.94842  0  0  0.162365  0  1.011117  0  0  0.16526  0  1.009575  0  0.064833  0  0.101772  0.160205  0  1.012404  0
H  H45  1  0.21630588  0.15275774  0.42974138  1  0  0.146264  0  0.948321  0  0  0.162305  0  1.011054  0  0  0.165199  0  1.009513  0  0.064877  0  0.10175  0.160147  0  1.012338  0
H  H46  1  0.28369439  0.65275774  0.92974071  1  0  0.146299  0  0.948414  0  0  0.162337  0  1.011129  0  0  0.165231  0  1.009587  0  0.064851  0  0.101774  0.160179  0  1.012412  0
H  H47  1  0.78369466  0.84724324  0.57025870  1  0  0.146314  0  0.948393  0  0  0.162354  0  1.011105  0  0  0.165248  0  1.009564  0  0.064862  0  0.101789  0.160194  0  1.01239  0
H  H48  1  0.85747824  0.21369257  0.03530204  1  0  0.133256  0  0.945486  0  0  0.153067  0  1.005906  0  0  0.154814  0  1.005572  0  0.048392  0  0.101394  0.151837  0  1.006169  0
H  H49  1  0.35748548  0.28630938  0.46469874  1  0  0.133261  0  0.945473  0  0  0.15307  0  1.005881  0  0  0.154816  0  1.005549  0  0.048409  0  0.101405  0.151841  0  1.006144  0
H  H50  1  0.14251629  0.78631036  0.96469856  1  0  0.133274  0  0.945467  0  0  0.153093  0  1.00586  0  0  0.15484  0  1.005525  0  0.048404  0  0.101407  0.151863  0  1.006124  0
H  H51  1  0.64251656  0.71369160  0.53530180  1  0  0.13326  0  0.945474  0  0  0.153072  0  1.00588  0  0  0.154819  0  1.005547  0  0.048425  0  0.101402  0.151843  0  1.006143  0
H  H52  1  0.59608248  0.22233000  0.02123722  1  0  0.142223  0  0.933277  0  0  0.163314  0  0.990248  0  0  0.165453  0  0.989242  0  0.084556  0  0.105566  0.161788  0  0.991056  0
H  H53  1  0.09608521  0.27767000  0.47876257  1  0  0.142233  0  0.933273  0  0  0.163328  0  0.990237  0  0  0.165466  0  0.989231  0  0.084525  0  0.105578  0.161801  0  0.991045  0
H  H54  1  0.40391655  0.77767098  0.97876194  1  0  0.142227  0  0.93327  0  0  0.163321  0  0.990234  0  0  0.16546  0  0.989229  0  0.084508  0  0.105577  0.161795  0  0.991042  0
H  H55  1  0.90391682  0.72232806  0.52123787  1  0  0.142199  0  0.93329  0  0  0.163293  0  0.990259  0  0  0.165431  0  0.989255  0  0.08443  0  0.105566  0.161768  0  0.991066  0
C  C56  1  0.80141251  0.56073011  0.73219938  1  0  0.158825  0  3.671051  0  0  0.124393  0  3.927185  0  0  0.134885  0  3.942156  0  0.491731  0  0.061222  0.117663  0  3.917428  0
C  C57  1  0.30141374  0.93927088  0.76780095  1  0  0.158895  0  3.67095  0  0  0.124412  0  3.927091  0  0  0.134899  0  3.94206  0  0.491711  0  0.06119  0.117673  0  3.917344  0
C  C58  1  0.19859103  0.43927087  0.26780069  1  0  0.158787  0  3.670939  0  0  0.124375  0  3.927071  0  0  0.13486  0  3.942039  0  0.491627  0  0.061205  0.117643  0  3.917318  0
C  C59  1  0.69858979  0.06072913  0.23219818  1  0  0.158919  0  3.670991  0  0  0.124442  0  3.927109  0  0  0.134933  0  3.942077  0  0.491638  0  0.061254  0.117711  0  3.917352  0
C  C60  1  0.79834864  0.65407871  0.68816799  1  0  -0.127643  0  3.757908  0  0  -0.143132  0  4.019385  0  0  -0.152497  0  4.042744  0  -0.018862  0  -0.085745  -0.137174  0  4.004285  0
C  C61  1  0.29834988  0.84592228  0.81183326  1  0  -0.127606  0  3.757891  0  0  -0.143099  0  4.019395  0  0  -0.152464  0  4.042757  0  -0.019339  0  -0.08573  -0.137137  0  4.004294  0
C  C62  1  0.20164889  0.34592325  0.31183258  1  0  -0.127577  0  3.757807  0  0  -0.143073  0  4.019293  0  0  -0.152446  0  4.04266  0  -0.018912  0  -0.085707  -0.13711  0  4.004193  0
C  C63  1  0.70164915  0.15407773  0.18816633  1  0  -0.127605  0  3.75781  0  0  -0.143117  0  4.019319  0  0  -0.152483  0  4.04268  0  -0.019364  0  -0.085735  -0.137153  0  4.004214  0
C  C64  1  0.79676715  0.78383417  0.70815312  1  0  -0.0236  0  3.648976  0  0  -0.054457  0  3.905425  0  0  -0.049503  0  3.921816  0  -0.06441  0  -0.05821  -0.057509  0  3.894845  0
C  C65  1  0.29677139  0.71616779  0.79184862  1  0  -0.023643  0  3.649095  0  0  -0.054505  0  3.905549  0  0  -0.049552  0  3.921943  0  0.005701  0  -0.058204  -0.057555  0  3.894965  0
C  C66  1  0.20323038  0.21616877  0.29184748  1  0  -0.023683  0  3.649078  0  0  -0.054574  0  3.905526  0  0  -0.049619  0  3.921918  0  0.005327  0  -0.058244  -0.057625  0  3.894941  0
C  C67  1  0.70322614  0.28383124  0.20815139  1  0  -0.023667  0  3.649033  0  0  -0.05452  0  3.905481  0  0  -0.049568  0  3.921876  0  0.005818  0  -0.058243  -0.057571  0  3.8949  0
C  C68  1  0.79492432  0.81904291  0.77214322  1  0  0.002716  0  3.777397  0  0  0.023686  0  4.005197  0  0  0.018275  0  4.030657  0  0.085635  0  -0.00309  0.027247  0  3.988562  0
C  C69  1  0.29492406  0.68096003  0.72785901  1  0  0.002775  0  3.77723  0  0  0.023735  0  4.005066  0  0  0.018325  0  4.030526  0  0.017912  0  -0.003092  0.027295  0  3.988432  0
C  C70  1  0.20507771  0.18096100  0.22785741  1  0  0.002706  0  3.777595  0  0  0.023767  0  4.005283  0  0  0.018355  0  4.030747  0  0.017892  0  -0.003076  0.027329  0  3.988648  0
C  C71  1  0.70507498  0.31903998  0.27214149  1  0  0.002773  0  3.777303  0  0  0.023767  0  4.005132  0  0  0.018357  0  4.030593  0  0.017907  0  -0.003073  0.027325  0  3.988503  0
C  C72  1  0.79318213  0.95245125  0.79334645  1  0  -0.050977  0  3.66738  0  0  -0.076565  0  3.918533  0  0  -0.075051  0  3.937921  0  -0.099445  0  -0.067839  -0.07871  0  3.905854  0
C  C73  1  0.29318036  0.54754974  0.70665572  1  0  -0.050902  0  3.667271  0  0  -0.076502  0  3.918457  0  0  -0.074987  0  3.937848  0  -0.099434  0  -0.067817  -0.078647  0  3.905773  0
C  C74  1  0.20681991  0.04755169  0.20665461  1  0  -0.050885  0  3.667326  0  0  -0.076474  0  3.918442  0  0  -0.074956  0  3.937829  0  -0.099384  0  -0.067802  -0.07862  0  3.905759  0
C  C75  1  0.70682018  0.45244929  0.29334475  1  0  -0.050877  0  3.667234  0  0  -0.076418  0  3.918372  0  0  -0.074901  0  3.93776  0  -0.099412  0  -0.067811  -0.078564  0  3.905694  0
C  C76  1  0.78754101  0.98863682  0.85540076  1  0  -0.066907  0  3.738923  0  0  -0.079865  0  3.991954  0  0  -0.08572  0  4.01357  0  0.032601  0  -0.084684  -0.076188  0  3.977512  0
C  C77  1  0.28754375  0.51136222  0.64460042  1  0  -0.06695  0  3.738882  0  0  -0.079973  0  3.991921  0  0  -0.085838  0  4.013542  0  0.032814  0  -0.084693  -0.07629  0  3.977473  0
C  C78  1  0.21245952  0.01136222  0.14459879  1  0  -0.066966  0  3.738902  0  0  -0.079972  0  3.991941  0  0  -0.085833  0  4.013556  0  0.032699  0  -0.084706  -0.076292  0  3.977495  0
C  C79  1  0.71245979  0.48863584  0.35540048  1  0  -0.066853  0  3.738892  0  0  -0.0799  0  3.991962  0  0  -0.085757  0  4.013577  0  0.032726  0  -0.084646  -0.07622  0  3.977517  0
C  C80  1  0.78161904  0.89093441  0.89722691  1  0  -0.08059  0  3.740923  0  0  -0.10673  0  3.993518  0  0  -0.104961  0  4.014414  0  -0.137917  0  -0.074302  -0.106622  0  3.978904  0
C  C81  1  0.28162027  0.60906463  0.60277474  1  0  -0.080574  0  3.741007  0  0  -0.10671  0  3.993607  0  0  -0.10493  0  4.014509  0  -0.138077  0  -0.074309  -0.1066  0  3.978987  0
C  C82  1  0.21838300  0.10906462  0.10277357  1  0  -0.08053  0  3.74099  0  0  -0.106661  0  3.99358  0  0  -0.104882  0  4.014481  0  -0.137991  0  -0.074291  -0.106551  0  3.978962  0
C  C83  1  0.71838176  0.39093343  0.39722616  1  0  -0.080698  0  3.740977  0  0  -0.106831  0  3.993581  0  0  -0.105053  0  4.014481  0  -0.137974  0  -0.074333  -0.106722  0  3.978965  0
C  C84  1  0.78414072  0.75734085  0.87941433  1  0  -0.045636  0  3.781249  0  0  -0.028714  0  4.027024  0  0  -0.037007  0  4.054184  0  0.026987  0  -0.009691  -0.023269  0  4.008029  0
C  C85  1  0.28413745  0.74265917  0.62058643  1  0  -0.045566  0  3.781232  0  0  -0.02861  0  4.026954  0  0  -0.036907  0  4.054119  0  0.027744  0  -0.009658  -0.023166  0  4.007959  0
C  C86  1  0.21585831  0.24266111  0.12058578  1  0  -0.045596  0  3.781185  0  0  -0.028641  0  4.026925  0  0  -0.036936  0  4.054085  0  0.027793  0  -0.00964  -0.023198  0  4.007931  0
C  C87  1  0.71586008  0.25733792  0.37941306  1  0  -0.045494  0  3.781029  0  0  -0.028465  0  4.026739  0  0  -0.036763  0  4.053905  0  0.027757  0  -0.009618  -0.023021  0  4.007743  0
C  C88  1  0.79349302  0.71833788  0.81459200  1  0  0.179043  0  3.699072  0  0  0.168943  0  3.933523  0  0  0.176098  0  3.956655  0  0.451727  0  0.121842  0.163892  0  3.918145  0
C  C89  1  0.29349125  0.78166214  0.68540922  1  0  0.178985  0  3.699042  0  0  0.168868  0  3.933518  0  0  0.176019  0  3.956653  0  0.451752  0  0.121843  0.163817  0  3.91814  0
C  C90  1  0.20650752  0.28166311  0.18540854  1  0  0.179082  0  3.699104  0  0  0.168939  0  3.933566  0  0  0.176088  0  3.956696  0  0.451709  0  0.12185  0.163888  0  3.91819  0
C  C91  1  0.70650628  0.21833690  0.31459034  1  0  0.178928  0  3.699022  0  0  0.168688  0  3.933639  0  0  0.175842  0  3.956775  0  0.451739  0  0.121751  0.163638  0  3.918262  0
C  C92  1  0.77280292  0.67466328  0.93052866  1  0  0.087403  0  3.66593  0  0  0.041548  0  3.931091  0  0  0.052293  0  3.943278  0  0.516997  0  0.07084  0.03479  0  3.922587  0
C  C93  1  0.27279814  0.82533576  0.56947298  1  0  0.087466  0  3.665828  0  0  0.041604  0  3.930984  0  0  0.052353  0  3.943167  0  0.516223  0  0.070843  0.034846  0  3.922482  0
C  C94  1  0.22720062  0.32533868  0.06947282  1  0  0.087449  0  3.665786  0  0  0.041568  0  3.93098  0  0  0.052314  0  3.943165  0  0.51627  0  0.070841  0.03481  0  3.922478  0
C  C95  1  0.72720239  0.17466035  0.43052602  1  0  0.087421  0  3.665734  0  0  0.041509  0  3.930969  0  0  0.052258  0  3.943153  0  0.516272  0  0.070819  0.034752  0  3.922463  0
C  C96  1  0.76918185  0.35187489  0.97220841  1  0  0.630157  0  3.755936  0  0  0.585308  0  4.05126  0  0  0.61468  0  4.051626  0  1.416906  0  0.249409  0.565407  0  4.050682  0
C  C97  1  0.26918308  0.14812706  0.52779190  1  0  0.630208  0  3.755763  0  0  0.585322  0  4.051124  0  0  0.614693  0  4.05149  0  1.416923  0  0.249403  0.565399  0  4.05058  0
C  C98  1  0.23081718  0.64812707  0.02779078  1  0  0.630081  0  3.755805  0  0  0.585153  0  4.051239  0  0  0.614546  0  4.051567  0  1.416895  0  0.249328  0.565228  0  4.050694  0
C  C99  1  0.73081895  0.85187197  0.47220857  1  0  0.630156  0  3.755795  0  0  0.585211  0  4.051272  0  0  0.614634  0  4.05156  0  1.416633  0  0.249335  0.565287  0  4.050728  0
C  C100  1  0.73263474  0.28111620  0.02894898  1  0  -0.435502  0  3.655284  0  0  -0.515265  0  3.89123  0  0  -0.520939  0  3.894385  0  -0.068247  0  -0.23637  -0.511129  0  3.888897  0
C  C101  1  0.23263898  0.21888673  0.47105183  1  0  -0.435459  0  3.655173  0  0  -0.515204  0  3.891173  0  0  -0.520876  0  3.894328  0  -0.068264  0  -0.236351  -0.511061  0  3.888844  0
C  C102  1  0.26736129  0.71888673  0.97105070  1  0  -0.435517  0  3.655287  0  0  -0.515246  0  3.891277  0  0  -0.520926  0  3.894421  0  -0.068262  0  -0.236388  -0.511103  0  3.888951  0
C  C103  1  0.76736305  0.78111328  0.52894868  1  0  -0.435474  0  3.655304  0  0  -0.515184  0  3.8913  0  0  -0.520874  0  3.894439  0  -0.067925  0  -0.236365  -0.511041  0  3.888974  0
S  S104  1  0.30464582  0.36388930  0.86305866  1  0  1.585656  0  5.807346  0  0  1.464013  0  6.350301  0  0  1.520112  0  6.312371  0  3.792363  0  0.55951  1.424964  0  6.375345  0
S  S105  1  0.80464459  0.13610778  0.63694242  1  0  1.58562  0  5.807389  0  0  1.463997  0  6.350316  0  0  1.520087  0  6.3124  0  3.792377  0  0.559511  1.424947  0  6.375368  0
S  S106  1  0.69535622  0.63610876  0.13694041  1  0  1.585704  0  5.80724  0  0  1.464079  0  6.350164  0  0  1.520173  0  6.312238  0  3.792241  0  0.559559  1.425028  0  6.375216  0
S  S107  1  0.19535445  0.86389028  0.36305894  1  0  1.585648  0  5.807348  0  0  1.464017  0  6.350275  0  0  1.520103  0  6.312362  0  3.792369  0  0.55949  1.424964  0  6.375323  0
N  N108  1  0.79946305  0.59012467  0.79278621  1  0  -0.357148  0  3.230009  0  0  -0.283355  0  3.499437  0  0  -0.303093  0  3.514387  0  -1.234311  0  -0.316659  -0.270707  0  3.489251  0
N  N109  1  0.29946579  0.90987534  0.70721363  1  0  -0.357156  0  3.230023  0  0  -0.283365  0  3.499476  0  0  -0.303091  0  3.514418  0  -1.23429  0  -0.31668  -0.270713  0  3.489286  0
N  N110  1  0.20053748  0.40987631  0.20721341  1  0  -0.357111  0  3.23  0  0  -0.283351  0  3.499469  0  0  -0.303069  0  3.514401  0  -1.234316  0  -0.316647  -0.270705  0  3.489288  0
N  N111  1  0.70053475  0.09012369  0.29278547  1  0  -0.357128  0  3.230068  0  0  -0.283286  0  3.499516  0  0  -0.30302  0  3.514462  0  -1.234268  0  -0.316656  -0.270637  0  3.489327  0
N  N112  1  0.77424023  0.54851000  0.92623029  1  0  -0.154743  0  3.30374  0  0  -0.097989  0  3.585891  0  0  -0.108165  0  3.600717  0  -0.72806  0  -0.223337  -0.091526  0  3.575754  0
N  N113  1  0.27423846  0.95149001  0.57377046  1  0  -0.15479  0  3.303792  0  0  -0.098035  0  3.585904  0  0  -0.108207  0  3.600723  0  -0.728001  0  -0.223347  -0.091573  0  3.575768  0
N  N114  1  0.22576030  0.45149293  0.07376939  1  0  -0.154872  0  3.303763  0  0  -0.098124  0  3.585902  0  0  -0.108296  0  3.600725  0  -0.728013  0  -0.223395  -0.091663  0  3.575766  0
N  N115  1  0.72576207  0.04850610  0.42622991  1  0  -0.154779  0  3.303692  0  0  -0.098019  0  3.585851  0  0  -0.108192  0  3.600678  0  -0.728102  0  -0.223371  -0.091556  0  3.575713  0
N  N116  1  0.75653590  0.48443996  0.97840934  1  0  -0.31013  0  3.33449  0  0  -0.259103  0  3.577433  0  0  -0.28161  0  3.5937  0  -0.882575  0  -0.289041  -0.243442  0  3.566104  0
N  N117  1  0.25653563  0.01555907  0.52159180  1  0  -0.310102  0  3.334455  0  0  -0.259029  0  3.577363  0  0  -0.281538  0  3.593631  0  -0.882652  0  -0.289004  -0.243362  0  3.566043  0
N  N118  1  0.24346164  0.51556103  0.02159074  1  0  -0.310018  0  3.33446  0  0  -0.258906  0  3.577346  0  0  -0.281422  0  3.593605  0  -0.88251  0  -0.28902  -0.243239  0  3.566025  0
N  N119  1  0.74346340  0.98443996  0.47840913  1  0  -0.310167  0  3.334471  0  0  -0.259089  0  3.577422  0  0  -0.281618  0  3.593676  0  -0.882506  0  -0.289037  -0.243422  0  3.566103  0
O  O120  1  0.80841735  0.29296976  0.92163802  1  0  -0.555595  0  2.006337  0  0  -0.49365  0  2.242219  0  0  -0.519015  0  2.233242  0  -1.138861  0  -0.275693  -0.476204  0  2.248058  0
O  O121  1  0.30841708  0.20702830  0.57836309  1  0  -0.555622  0  2.006262  0  0  -0.493676  0  2.242186  0  0  -0.519042  0  2.233206  0  -1.138918  0  -0.275682  -0.476224  0  2.248038  0
O  O122  1  0.19159070  0.70703123  0.07836252  1  0  -0.555509  0  2.006215  0  0  -0.493571  0  2.242168  0  0  -0.518946  0  2.23319  0  -1.138854  0  -0.2756  -0.476116  0  2.248016  0
O  O123  1  0.69159097  0.79296879  0.42163686  1  0  -0.555548  0  2.006215  0  0  -0.493608  0  2.242194  0  0  -0.518985  0  2.233186  0  -1.138877  0  -0.275627  -0.476152  0  2.248041  0
O  O124  1  0.48669198  0.41833339  0.83385208  1  0  -0.764698  0  2.037918  0  0  -0.702546  0  2.329783  0  0  -0.726561  0  2.309548  0  -1.349081  0  -0.370923  -0.684992  0  2.342472  0
O  O125  1  0.98668624  0.08166369  0.66615083  1  0  -0.764622  0  2.037832  0  0  -0.702509  0  2.329722  0  0  -0.726522  0  2.309491  0  -1.349138  0  -0.37091  -0.68496  0  2.342415  0
O  O126  1  0.51331006  0.58166565  0.16614701  1  0  -0.764697  0  2.037836  0  0  -0.702538  0  2.32969  0  0  -0.72655  0  2.309457  0  -1.34907  0  -0.370939  -0.684981  0  2.34237  0
O  O127  1  0.01330829  0.91833437  0.33385237  1  0  -0.764675  0  2.037926  0  0  -0.702517  0  2.329776  0  0  -0.726535  0  2.309562  0  -1.34909  0  -0.370911  -0.68496  0  2.342463  0
O  O128  1  0.34331210  0.33911275  0.92826536  1  0  -0.728206  0  1.94431  0  0  -0.681545  0  2.194508  0  0  -0.70205  0  2.177277  0  -1.350284  0  -0.369097  -0.666964  0  2.20582  0
O  O129  1  0.84331687  0.16088531  0.57173621  1  0  -0.728166  0  1.944259  0  0  -0.681507  0  2.194443  0  0  -0.702009  0  2.177217  0  -1.350209  0  -0.369087  -0.666928  0  2.205755  0
O  O130  1  0.65668994  0.66088726  0.07173423  1  0  -0.728188  0  1.944312  0  0  -0.681548  0  2.194505  0  0  -0.702057  0  2.177288  0  -1.350192  0  -0.369101  -0.66697  0  2.205818  0
O  O131  1  0.15668817  0.83911373  0.42826518  1  0  -0.728195  0  1.944325  0  0  -0.681543  0  2.194518  0  0  -0.702046  0  2.177297  0  -1.3503  0  -0.369093  -0.66696  0  2.205831  0
O  O132  1  0.24845543  0.23890880  0.82696987  1  0  -0.748566  0  1.952716  0  0  -0.678962  0  2.17814  0  0  -0.701687  0  2.159498  0  -1.347541  0  -0.359402  -0.662688  0  2.190685  0
O  O133  1  0.74845570  0.26109023  0.67302989  1  0  -0.74855  0  1.952733  0  0  -0.678947  0  2.178114  0  0  -0.701669  0  2.159478  0  -1.347557  0  -0.359404  -0.662674  0  2.19066  0
O  O134  1  0.75154360  0.76109023  0.17302968  1  0  -0.748573  0  1.952705  0  0  -0.67897  0  2.178118  0  0  -0.701694  0  2.159478  0  -1.3475  0  -0.359403  -0.662695  0  2.190661  0
O  O135  1  0.25154333  0.73890880  0.32697012  1  0  -0.748581  0  1.952707  0  0  -0.678979  0  2.178123  0  0  -0.701699  0  2.159486  0  -1.34752  0  -0.359402  -0.662703  0  2.19067  0
O  O136  1  0.13885016  0.46074454  0.85907982  1  0  -0.771061  0  2.000917  0  0  -0.717659  0  2.284139  0  0  -0.74037  0  2.265502  0  -1.34815  0  -0.369674  -0.701114  0  2.296438  0
O  O137  1  0.63884743  0.03925352  0.64091991  1  0  -0.77114  0  2.001  0  0  -0.717762  0  2.284255  0  0  -0.740473  0  2.265622  0  -1.348211  0  -0.369728  -0.701192  0  2.296501  0
O  O138  1  0.86115337  0.53925450  0.14091928  1  0  -0.771112  0  2.000922  0  0  -0.717736  0  2.284169  0  0  -0.740445  0  2.265534  0  -1.348196  0  -0.369709  -0.701176  0  2.296435  0
O  O139  1  0.36115010  0.96074454  0.35907961  1  0  -0.771095  0  2.000957  0  0  -0.717671  0  2.284128  0  0  -0.740379  0  2.265497  0  -1.348161  0  -0.369686  -0.701136  0  2.296452  0
O  O140  1  0.87085712  0.26935331  0.78986462  1  0  -0.820592  0  1.94489  0  0  -0.746753  0  2.158366  0  0  -0.769179  0  2.123318  0  -1.241784  0  -0.572913  -0.731444  0  2.181518  0
O  O141  1  0.37085685  0.23064475  0.71013557  1  0  -0.820503  0  1.945  0  0  -0.746677  0  2.158484  0  0  -0.769106  0  2.123435  0  -1.241714  0  -0.572897  -0.731369  0  2.181636  0
O  O142  1  0.12914342  0.73064573  0.21013539  1  0  -0.820586  0  1.944878  0  0  -0.746745  0  2.158358  0  0  -0.769173  0  2.123311  0  -1.241777  0  -0.57292  -0.731437  0  2.181508  0
O  O143  1  0.62914218  0.76935429  0.28986353  1  0  -0.820534  0  1.94495  0  0  -0.746676  0  2.158412  0  0  -0.769103  0  2.123367  0  -1.241762  0  -0.572883  -0.731367  0  2.181563  0
