# generated using pymatgen
data_Zn2H20C30N4O13
_symmetry_space_group_name_H-M   'P 1'
_cell_length_a   10.95925496
_cell_length_b   11.69923813
_cell_length_c   12.20293151
_cell_angle_alpha   77.05402095
_cell_angle_beta   88.10101060
_cell_angle_gamma   74.72993335
_symmetry_Int_Tables_number   1
_chemical_formula_structural   Zn2H20C30N4O13
_chemical_formula_sum   'Zn4 H40 C60 N8 O26'
_cell_volume   1470.43802007
_cell_formula_units_Z   2
loop_
 _symmetry_equiv_pos_site_id
 _symmetry_equiv_pos_as_xyz
  1  'x, y, z'
loop_
 _atom_site_type_symbol
 _atom_site_label
 _atom_site_symmetry_multiplicity
 _atom_site_fract_x
 _atom_site_fract_y
 _atom_site_fract_z
 _atom_site_occupancy
 _atom_site_hle17_bader_spin_density
 _atom_site_hle17_ddec_charge
 _atom_site_hle17_ddec_spin_density
 _atom_site_hle17_ddec_sum_bond_order
 _atom_site_hle17_magmom
 _atom_site_hse06_10hf_bader_spin_density
 _atom_site_hse06_10hf_ddec_charge
 _atom_site_hse06_10hf_ddec_spin_density
 _atom_site_hse06_10hf_ddec_sum_bond_order
 _atom_site_hse06_10hf_magmom
 _atom_site_hse06_bader_spin_density
 _atom_site_hse06_ddec_charge
 _atom_site_hse06_ddec_spin_density
 _atom_site_hse06_ddec_sum_bond_order
 _atom_site_hse06_magmom
 _atom_site_pbe_bader_spin_density
 _atom_site_pbe_cm5_charge
 _atom_site_pbe_ddec_charge
 _atom_site_pbe_ddec_spin_density
 _atom_site_pbe_ddec_sum_bond_order
 _atom_site_pbe_magmom
Zn  Zn0  1  0.49740288  0.24381605  0.01878242  1  0  1.093297  0  1.798212  0  0  0.912945  0  2.273989  0  0  0.960316  0  2.215552  0  0  0.691975  0.87956  0  2.314638  0
Zn  Zn1  1  0.50259854  0.75618604  0.98121741  1  0  1.093341  0  1.798204  0  0  0.912999  0  2.273969  0  0  0.960378  0  2.215535  0  0  0.691977  0.879608  0  2.314619  0
Zn  Zn2  1  0.54795041  0.44719661  0.13103472  1  0  1.132066  0  1.810188  0  0  0.976218  0  2.250627  0  0  1.022097  0  2.193463  0  0  0.670525  0.943944  0  2.289811  0
Zn  Zn3  1  0.45204855  0.55280456  0.86896452  1  0  1.132095  0  1.810126  0  0  0.976276  0  2.250514  0  0  1.022152  0  2.193351  0  0  0.670537  0.944002  0  2.289701  0
H  H4  1  0.07209348  0.73452872  0.03091737  1  0  0.410757  0  0.887792  0  0  0.377641  0  0.966617  0  0  0.390668  0  0.948325  0  0  0.29911  0.368473  0  0.979445  0
H  H5  1  0.92790742  0.26546885  0.96908171  1  0  0.410743  0  0.88779  0  0  0.377638  0  0.966613  0  0  0.390664  0  0.948324  0  0  0.299105  0.36847  0  0.979443  0
H  H6  1  0.65096362  0.36946493  0.96454319  1  0  0.418613  0  0.864791  0  0  0.386519  0  0.943897  0  0  0.397401  0  0.929942  0  0  0.287085  0.378459  0  0.953183  0
H  H7  1  0.34903625  0.63053627  0.03545520  1  0  0.418601  0  0.864817  0  0  0.386509  0  0.943922  0  0  0.397392  0  0.92996  0  0  0.287088  0.378449  0  0.953209  0
H  H8  1  0.29406325  0.27241172  0.85514036  1  0  0.086015  0  0.941404  0  0  0.096149  0  1.003739  0  0  0.098752  0  1.000841  0  0  0.118956  0.094093  0  1.006  0
H  H9  1  0.70593739  0.72758671  0.14486019  1  0  0.086026  0  0.941357  0  0  0.096146  0  1.00371  0  0  0.098747  0  1.000811  0  0  0.118956  0.094089  0  1.005972  0
H  H10  1  0.26194406  0.17889365  0.69660411  1  0  0.117819  0  0.95292  0  0  0.127652  0  1.012237  0  0  0.13067  0  1.011707  0  0  0.109314  0.125506  0  1.012789  0
H  H11  1  0.73805708  0.82110295  0.30339761  1  0  0.117795  0  0.952961  0  0  0.12763  0  1.012286  0  0  0.13065  0  1.011752  0  0  0.109301  0.125485  0  1.012833  0
H  H12  1  0.63973523  0.94095604  0.77336589  1  0  0.109149  0  0.963433  0  0  0.117835  0  1.025333  0  0  0.12095  0  1.024544  0  0  0.106267  0.115488  0  1.026301  0
H  H13  1  0.36026904  0.05904239  0.22663623  1  0  0.10912  0  0.963486  0  0  0.11782  0  1.02538  0  0  0.120936  0  1.024587  0  0  0.106256  0.115461  0  1.026362  0
H  H14  1  0.65636996  0.04674628  0.92449021  1  0  0.089808  0  0.930092  0  0  0.101703  0  0.987212  0  0  0.10406  0  0.985144  0  0  0.121581  0.099858  0  0.988929  0
H  H15  1  0.34362899  0.95325485  0.07551068  1  0  0.089808  0  0.930071  0  0  0.101699  0  0.987202  0  0  0.104057  0  0.985132  0  0  0.121578  0.099857  0  0.988914  0
H  H16  1  0.34053902  0.02912679  0.58361871  1  0  0.101744  0  0.960467  0  0  0.108708  0  1.027042  0  0  0.112369  0  1.025449  0  0  0.100874  0.106029  0  1.028368  0
H  H17  1  0.65946342  0.97087160  0.41638427  1  0  0.101728  0  0.960441  0  0  0.108673  0  1.02704  0  0  0.112351  0  1.025428  0  0  0.100843  0.105983  0  1.028399  0
H  H18  1  0.58541695  0.83422297  0.67783659  1  0  0.083825  0  0.952765  0  0  0.098494  0  1.010591  0  0  0.100252  0  1.009882  0  0  0.103275  0.097203  0  1.011108  0
H  H19  1  0.41458343  0.16577638  0.32216379  1  0  0.08384  0  0.952701  0  0  0.098505  0  1.010548  0  0  0.100262  0  1.009838  0  0  0.10328  0.097216  0  1.01106  0
H  H20  1  0.39389358  0.85921175  0.48737513  1  0  0.090485  0  0.955531  0  0  0.104135  0  1.013742  0  0  0.106422  0  1.012759  0  0  0.104143  0.102564  0  1.014389  0
H  H21  1  0.60610602  0.14079030  0.51262556  1  0  0.090483  0  0.955529  0  0  0.104142  0  1.01373  0  0  0.106432  0  1.012741  0  0  0.104153  0.102571  0  1.014377  0
H  H22  1  0.64177814  0.67118598  0.58519340  1  0  0.095347  0  0.947594  0  0  0.107599  0  1.008826  0  0  0.109798  0  1.008554  0  0  0.103181  0.105942  0  1.009146  0
H  H23  1  0.35822082  0.32881521  0.41480502  1  0  0.095369  0  0.947605  0  0  0.107621  0  1.00883  0  0  0.109819  0  1.008556  0  0  0.103212  0.10596  0  1.009161  0
H  H24  1  0.35836775  0.74940406  0.37705738  1  0  0.104102  0  0.949523  0  0  0.118203  0  1.004764  0  0  0.120675  0  1.004436  0  0  0.108945  0.116434  0  1.005118  0
H  H25  1  0.64163004  0.25059803  0.62294088  1  0  0.104108  0  0.949555  0  0  0.118204  0  1.0048  0  0  0.120678  0  1.004474  0  0  0.108902  0.116435  0  1.005153  0
H  H26  1  0.35951707  0.63510105  0.23058818  1  0  0.092186  0  0.967819  0  0  0.101294  0  1.032576  0  0  0.104023  0  1.029724  0  0  0.116696  0.099291  0  1.034579  0
H  H27  1  0.64048280  0.36490015  0.76941022  1  0  0.09212  0  0.967882  0  0  0.101244  0  1.03262  0  0  0.103969  0  1.029767  0  0  0.116684  0.09924  0  1.034623  0
H  H28  1  0.70841048  0.39952353  0.34146921  1  0  0.084597  0  0.931644  0  0  0.096042  0  0.990476  0  0  0.098157  0  0.988501  0  0  0.118534  0.094434  0  0.992012  0
H  H29  1  0.29158846  0.60047761  0.65853168  1  0  0.08468  0  0.93177  0  0  0.096132  0  0.990564  0  0  0.098242  0  0.988594  0  0  0.118584  0.094524  0  0.992098  0
H  H30  1  0.72651744  0.50868277  0.49136136  1  0  0.113292  0  0.969432  0  0  0.120204  0  1.035518  0  0  0.123278  0  1.034364  0  0  0.104536  0.11807  0  1.036316  0
H  H31  1  0.27347852  0.49131925  0.50863942  1  0  0.113264  0  0.969433  0  0  0.120174  0  1.035519  0  0  0.123246  0  1.034366  0  0  0.104516  0.11804  0  1.036316  0
H  H32  1  0.84380522  0.97842881  0.09814603  1  0  0.117563  0  0.934461  0  0  0.124071  0  1.000611  0  0  0.128303  0  0.996701  0  0  0.113913  0.12104  0  1.003299  0
H  H33  1  0.15619544  0.02157604  0.90185164  1  0  0.117557  0  0.934425  0  0  0.124054  0  1.000587  0  0  0.128292  0  0.996669  0  0  0.113908  0.120996  0  1.003307  0
H  H34  1  0.18859540  0.91357619  0.28910996  1  0  0.119563  0  0.955234  0  0  0.121787  0  1.028286  0  0  0.126411  0  1.023778  0  0  0.116215  0.118401  0  1.031614  0
H  H35  1  0.81140368  0.08642134  0.71088998  1  0  0.119597  0  0.955251  0  0  0.121832  0  1.028287  0  0  0.126455  0  1.023778  0  0  0.116211  0.118444  0  1.031619  0
H  H36  1  0.86136461  0.19846807  0.33322081  1  0  0.127688  0  0.93364  0  0  0.132566  0  1.000243  0  0  0.137298  0  0.995461  0  0  0.117389  0.129178  0  1.003572  0
H  H37  1  0.13863497  0.80152758  0.66678195  1  0  0.127658  0  0.933643  0  0  0.132552  0  1.000239  0  0  0.137282  0  0.995454  0  0  0.117382  0.129164  0  1.003568  0
H  H38  1  0.22551288  0.48811703  0.29035259  1  0  0.123289  0  0.957117  0  0  0.126003  0  1.030546  0  0  0.130667  0  1.025737  0  0  0.117775  0.122847  0  1.033558  0
H  H39  1  0.77448779  0.51188788  0.70964261  1  0  0.123252  0  0.957131  0  0  0.126008  0  1.030532  0  0  0.130669  0  1.025726  0  0  0.11778  0.122827  0  1.033572  0
H  H40  1  0.82311359  0.55299207  0.24636736  1  0  0.115361  0  0.981403  0  0  0.117204  0  1.057051  0  0  0.121429  0  1.053257  0  0  0.113575  0.114362  0  1.059295  0
H  H41  1  0.17688627  0.44700909  0.75363268  1  0  0.115367  0  0.981382  0  0  0.117206  0  1.057038  0  0  0.121434  0  1.05324  0  0  0.113572  0.114362  0  1.059284  0
H  H42  1  0.07958669  0.32345527  0.06028290  1  0  0.116799  0  0.933858  0  0  0.126674  0  0.995957  0  0  0.131084  0  0.991858  0  0  0.114006  0.123478  0  0.999004  0
H  H43  1  0.92041475  0.67654685  0.93971529  1  0  0.116751  0  0.933864  0  0  0.12664  0  0.995968  0  0  0.131041  0  0.991879  0  0  0.113993  0.123443  0  0.999017  0
C  C44  1  0.36737007  0.19868891  0.83293694  1  0  0.137281  0  3.697061  0  0  0.105499  0  3.946045  0  0  0.114038  0  3.964035  0  0  0.046949  0.100011  0  3.933745  0
C  C45  1  0.63263095  0.80131133  0.16706407  1  0  0.137275  0  3.697053  0  0  0.105509  0  3.946051  0  0  0.11405  0  3.964055  0  0  0.046948  0.100013  0  3.933747  0
C  C46  1  0.35044243  0.14581056  0.74580041  1  0  -0.160001  0  3.680741  0  0  -0.177417  0  3.928563  0  0  -0.187106  0  3.950594  0  0  -0.080559  -0.17135  0  3.913839  0
C  C47  1  0.64955885  0.85418880  0.25419995  1  0  -0.159972  0  3.680786  0  0  -0.177425  0  3.928576  0  0  -0.187117  0  3.95061  0  0  -0.080552  -0.171358  0  3.91385  0
C  C48  1  0.44688172  0.04849795  0.72237844  1  0  0.156983  0  3.790562  0  0  0.168709  0  4.022259  0  0  0.177352  0  4.043698  0  0  0.013302  0.163303  0  4.007565  0
C  C49  1  0.55312086  0.95150320  0.27762319  1  0  0.156972  0  3.7905  0  0  0.168816  0  4.022069  0  0  0.17745  0  4.04354  0  0  0.013319  0.163412  0  4.007371  0
C  C50  1  0.55999672  0.01365455  0.78764052  1  0  -0.16473  0  3.688413  0  0  -0.181251  0  3.939289  0  0  -0.190029  0  3.959345  0  0  -0.08232  -0.175815  0  3.926199  0
C  C51  1  0.44000586  0.98634662  0.21236029  1  0  -0.16461  0  3.688314  0  0  -0.181197  0  3.939176  0  0  -0.189974  0  3.959233  0  0  -0.082273  -0.175751  0  3.926093  0
C  C52  1  0.57046005  0.07146862  0.87255130  1  0  0.132059  0  3.715542  0  0  0.098406  0  3.968625  0  0  0.106615  0  3.986715  0  0  0.044284  0.093116  0  3.95649  0
C  C53  1  0.42954098  0.92853164  0.12744889  1  0  0.132064  0  3.715513  0  0  0.09842  0  3.96862  0  0  0.106636  0  3.986714  0  0  0.044297  0.093123  0  3.956478  0
C  C54  1  0.42582790  0.98710733  0.63698367  1  0  -0.13128  0  3.699514  0  0  -0.147612  0  3.949128  0  0  -0.156087  0  3.972584  0  0  -0.085432  -0.142009  0  3.933265  0
C  C55  1  0.57417611  0.01289201  0.36301827  1  0  -0.131293  0  3.699521  0  0  -0.147644  0  3.949121  0  0  -0.156129  0  3.972567  0  0  -0.085455  -0.142047  0  3.933254  0
C  C56  1  0.50154691  0.87891828  0.62342088  1  0  -0.013775  0  3.740246  0  0  -0.033481  0  3.994203  0  0  -0.0318  0  4.015207  0  0  -0.073684  -0.03424  0  3.979476  0
C  C57  1  0.49845489  0.12107925  0.37657983  1  0  -0.013738  0  3.740165  0  0  -0.033455  0  3.994141  0  0  -0.031773  0  4.015145  0  0  -0.073633  -0.034211  0  3.979408  0
C  C58  1  0.47838538  0.81662051  0.54154440  1  0  -0.037883  0  3.74998  0  0  -0.054104  0  4.003513  0  0  -0.055357  0  4.02546  0  0  -0.075329  -0.053015  0  3.988136  0
C  C59  1  0.52161317  0.18337880  0.45845685  1  0  -0.037927  0  3.750097  0  0  -0.054144  0  4.003616  0  0  -0.055397  0  4.025562  0  0  -0.075371  -0.053053  0  3.988236  0
C  C60  1  0.55809312  0.70947584  0.52943450  1  0  -0.09436  0  3.675238  0  0  -0.11555  0  3.927688  0  0  -0.120057  0  3.949337  0  0  -0.07678  -0.112356  0  3.912716  0
C  C61  1  0.44190595  0.29052169  0.47056545  1  0  -0.094353  0  3.675314  0  0  -0.115547  0  3.927733  0  0  -0.120054  0  3.949383  0  0  -0.076797  -0.112355  0  3.912761  0
C  C62  1  0.54529705  0.64219485  0.44645502  1  0  0.129272  0  3.817354  0  0  0.14183  0  4.051246  0  0  0.14761  0  4.074634  0  0  0.004348  0.138288  0  4.035118  0
C  C63  1  0.45470034  0.35780539  0.55354443  1  0  0.129273  0  3.817321  0  0  0.141858  0  4.051158  0  0  0.14764  0  4.074542  0  0  0.004358  0.138318  0  4.035028  0
C  C64  1  0.43956322  0.67359923  0.37252869  1  0  -0.15322  0  3.694464  0  0  -0.169875  0  3.941415  0  0  -0.178101  0  3.964554  0  0  -0.07933  -0.164593  0  3.925598  0
C  C65  1  0.56043573  0.32640196  0.62746973  1  0  -0.153274  0  3.694533  0  0  -0.169937  0  3.94148  0  0  -0.178169  0  3.964625  0  0  -0.079335  -0.164655  0  3.925663  0
C  C66  1  0.43867083  0.60870525  0.29065462  1  0  0.1217  0  3.700724  0  0  0.087445  0  3.957766  0  0  0.093946  0  3.976348  0  0  0.040461  0.083492  0  3.944665  0
C  C67  1  0.56132878  0.39129684  0.70934443  1  0  0.121791  0  3.700747  0  0  0.08751  0  3.957815  0  0  0.094016  0  3.976396  0  0  0.040479  0.083558  0  3.944717  0
C  C68  1  0.63418522  0.47867117  0.35225804  1  0  0.132906  0  3.712691  0  0  0.102694  0  3.9646  0  0  0.109688  0  3.983032  0  0  0.045884  0.098072  0  3.952131  0
C  C69  1  0.36581190  0.52132996  0.64774206  1  0  0.132784  0  3.712947  0  0  0.102557  0  3.964848  0  0  0.109553  0  3.983282  0  0  0.045808  0.097937  0  3.952379  0
C  C70  1  0.64282209  0.53937571  0.43595916  1  0  -0.165592  0  3.690161  0  0  -0.181852  0  3.937751  0  0  -0.190262  0  3.959637  0  0  -0.082607  -0.176431  0  3.922809  0
C  C71  1  0.35717439  0.46062451  0.56404113  1  0  -0.165518  0  3.690094  0  0  -0.181783  0  3.937676  0  0  -0.190192  0  3.959561  0  0  -0.08256  -0.176362  0  3.922731  0
C  C72  1  0.83910887  0.09641150  0.21141324  1  0  -0.047257  0  3.70658  0  0  -0.020644  0  3.945261  0  0  -0.030957  0  3.967707  0  0  -0.006287  -0.014246  0  3.930521  0
C  C73  1  0.16089150  0.90358784  0.78858714  1  0  -0.047271  0  3.706545  0  0  -0.020673  0  3.945262  0  0  -0.030987  0  3.967707  0  0  -0.00631  -0.014273  0  3.930515  0
C  C74  1  0.89701574  0.00007462  0.16083113  1  0  -0.019377  0  3.622428  0  0  -0.06484  0  3.875958  0  0  -0.058806  0  3.891755  0  0  -0.055729  -0.068267  0  3.865183  0
C  C75  1  0.10298165  0.99992562  0.83916832  1  0  -0.019384  0  3.622384  0  0  -0.064821  0  3.875914  0  0  -0.058789  0  3.891707  0  0  -0.055719  -0.068225  0  3.86515  0
C  C76  1  0.02278314  0.93424216  0.18831311  1  0  -0.066022  0  3.740245  0  0  -0.040815  0  3.976521  0  0  -0.051907  0  4.00026  0  0  -0.010359  -0.034002  0  3.96078  0
C  C77  1  0.97721633  0.06575720  0.81168647  1  0  -0.065874  0  3.740062  0  0  -0.040688  0  3.976342  0  0  -0.051779  0  4.000078  0  0  -0.0103  -0.033875  0  3.960593  0
C  C78  1  0.09057157  0.96353569  0.26825181  1  0  -0.06428  0  3.669719  0  0  -0.10402  0  3.922679  0  0  -0.099093  0  3.938298  0  0  -0.059242  -0.106834  0  3.912227  0
C  C79  1  0.90942554  0.03645907  0.73174953  1  0  -0.064428  0  3.669702  0  0  -0.104164  0  3.922688  0  0  -0.099237  0  3.938313  0  0  -0.059293  -0.106978  0  3.91224  0
C  C80  1  0.03001370  0.05674094  0.32033424  1  0  0.066477  0  3.723527  0  0  0.056125  0  3.97796  0  0  0.050418  0  4.001759  0  0  0.074613  0.059514  0  3.962004  0
C  C81  1  0.96998523  0.94325384  0.67966706  1  0  0.0665  0  3.723556  0  0  0.056154  0  3.978061  0  0  0.050438  0  4.001862  0  0  0.074711  0.059543  0  3.962107  0
C  C82  1  0.90558758  0.12425412  0.29305020  1  0  -0.06721  0  3.659902  0  0  -0.109844  0  3.918151  0  0  -0.105309  0  3.934274  0  0  -0.0617  -0.112481  0  3.907224  0
C  C83  1  0.09441240  0.87574342  0.70694972  1  0  -0.067166  0  3.659833  0  0  -0.109813  0  3.918122  0  0  -0.105265  0  3.934233  0  0  -0.061684  -0.112452  0  3.907199  0
C  C84  1  0.70810815  0.17447385  0.17473847  1  0  0.667278  0  3.892372  0  0  0.611334  0  4.185682  0  0  0.64685  0  4.178885  0  0  0.215348  0.587138  0  4.190005  0
C  C85  1  0.29189237  0.82552824  0.82526056  1  0  0.667335  0  3.892297  0  0  0.611401  0  4.185617  0  0  0.646915  0  4.178819  0  0  0.215401  0.587204  0  4.189945  0
C  C86  1  0.09121462  0.83460041  0.13256230  1  0  0.647317  0  3.828054  0  0  0.600004  0  4.124386  0  0  0.632178  0  4.118041  0  0  0.226894  0.57812  0  4.128264  0
C  C87  1  0.90878370  0.16539990  0.86743466  1  0  0.64713  0  3.82835  0  0  0.599848  0  4.124644  0  0  0.632025  0  4.118292  0  0  0.226748  0.577965  0  4.128522  0
C  C88  1  0.16562037  0.39737709  0.17469699  1  0  -0.052865  0  3.720473  0  0  -0.026501  0  3.958618  0  0  -0.037249  0  3.9815  0  0  -0.011741  -0.019917  0  3.943707  0
C  C89  1  0.83437782  0.60262686  0.82529927  1  0  -0.052947  0  3.720418  0  0  -0.026505  0  3.95855  0  0  -0.03726  0  3.981435  0  0  -0.011727  -0.019895  0  3.9436  0
C  C90  1  0.14555143  0.47069787  0.25303932  1  0  -0.066275  0  3.668209  0  0  -0.109088  0  3.925536  0  0  -0.103513  0  3.939673  0  0  -0.061938  -0.111876  0  3.915537  0
C  C91  1  0.85444909  0.52930426  0.74695806  1  0  -0.066168  0  3.667997  0  0  -0.109049  0  3.925396  0  0  -0.103471  0  3.939541  0  0  -0.061915  -0.111824  0  3.915406  0
C  C92  1  0.02251331  0.52323694  0.27931687  1  0  0.067174  0  3.710919  0  0  0.063727  0  3.966654  0  0  0.058961  0  3.988346  0  0  0.076089  0.066476  0  3.951769  0
C  C93  1  0.97748852  0.47676703  0.72068012  1  0  0.067171  0  3.710842  0  0  0.063665  0  3.966709  0  0  0.058898  0  3.988401  0  0  0.076095  0.066415  0  3.951818  0
C  C94  1  0.91878508  0.50882824  0.22655641  1  0  -0.074995  0  3.67354  0  0  -0.114908  0  3.926054  0  0  -0.110066  0  3.941668  0  0  -0.065925  -0.117212  0  3.914858  0
C  C95  1  0.08121583  0.49117568  0.77344225  1  0  -0.074976  0  3.67362  0  0  -0.114869  0  3.926147  0  0  -0.110025  0  3.941761  0  0  -0.065922  -0.117172  0  3.914949  0
C  C96  1  0.93843205  0.43766843  0.14620232  1  0  -0.066432  0  3.721896  0  0  -0.038134  0  3.960841  0  0  -0.049113  0  3.985013  0  0  -0.010753  -0.031229  0  3.944744  0
C  C97  1  0.06157003  0.56233461  0.85379567  1  0  -0.066585  0  3.721999  0  0  -0.038258  0  3.960956  0  0  -0.04924  0  3.985127  0  0  -0.010803  -0.031353  0  3.944861  0
C  C98  1  0.06237449  0.37943395  0.12244507  1  0  -0.036488  0  3.636989  0  0  -0.080777  0  3.888966  0  0  -0.075987  0  3.906564  0  0  -0.062026  -0.083861  0  3.877429  0
C  C99  1  0.93762760  0.62056909  0.87755292  1  0  -0.036373  0  3.636847  0  0  -0.080705  0  3.888831  0  0  -0.075901  0  3.906434  0  0  -0.062029  -0.083796  0  3.87729  0
C  C100  1  0.29998505  0.35051253  0.14277244  1  0  0.662308  0  3.893057  0  0  0.60779  0  4.186646  0  0  0.643301  0  4.178636  0  0  0.213597  0.583535  0  4.191643  0
C  C101  1  0.70001769  0.64949143  0.85722536  1  0  0.662342  0  3.893071  0  0  0.60778  0  4.186727  0  0  0.643297  0  4.178717  0  0  0.213649  0.583518  0  4.191722  0
C  C102  1  0.82308818  0.43027807  0.08618041  1  0  0.663256  0  3.894723  0  0  0.607989  0  4.192281  0  0  0.641994  0  4.186502  0  0  0.21247  0.584893  0  4.195411  0
C  C103  1  0.17691285  0.56972219  0.91381978  1  0  0.663357  0  3.894671  0  0  0.608029  0  4.192313  0  0  0.642037  0  4.186532  0  0  0.212463  0.584932  0  4.195445  0
N  N104  1  0.47540815  0.16212271  0.89610713  1  0  -0.360357  0  3.330203  0  0  -0.273598  0  3.615279  0  0  -0.294604  0  3.629554  0  0  -0.345127  -0.259415  0  3.605434  0
N  N105  1  0.52459196  0.83787754  0.10389309  1  0  -0.360417  0  3.330351  0  0  -0.273668  0  3.615433  0  0  -0.29469  0  3.629722  0  0  -0.34513  -0.25946  0  3.605564  0
N  N106  1  0.53520167  0.51354331  0.27886477  1  0  -0.330193  0  3.272723  0  0  -0.252229  0  3.542418  0  0  -0.270875  0  3.559028  0  0  -0.325433  -0.239521  0  3.530791  0
N  N107  1  0.46479521  0.48645875  0.72113434  1  0  -0.330239  0  3.272877  0  0  -0.252253  0  3.542549  0  0  -0.270899  0  3.559159  0  0  -0.325433  -0.239551  0  3.530931  0
N  N108  1  0.09980025  0.08568988  0.40678959  1  0  0.467811  0  3.950583  0  0  0.523771  0  4.207087  0  0  0.544109  0  4.216851  0  0  0.054522  0.510232  0  4.200407  0
N  N109  1  0.90020075  0.91430398  0.59321266  1  0  0.4681  0  3.950344  0  0  0.52392  0  4.207049  0  0  0.544263  0  4.21681  0  0  0.054498  0.510377  0  4.200372  0
N  N110  1  0.00197622  0.59948285  0.36275040  1  0  0.500809  0  3.895691  0  0  0.529795  0  4.192296  0  0  0.55048  0  4.201217  0  0  0.059213  0.515817  0  4.186572  0
N  N111  1  0.99802456  0.40051831  0.63724962  1  0  0.500899  0  3.895519  0  0  0.529912  0  4.192117  0  0  0.550599  0  4.201035  0  0  0.059268  0.515934  0  4.186394  0
O  O112  1  0.64944021  0.13657049  0.10685258  1  0  -0.646817  0  2.090015  0  0  -0.573357  0  2.367271  0  0  -0.602582  0  2.353968  0  0  -0.318164  -0.552896  0  2.375919  0
O  O113  1  0.35055874  0.86343068  0.89314666  1  0  -0.646835  0  2.090002  0  0  -0.57337  0  2.367237  0  0  -0.602607  0  2.353964  0  0  -0.31818  -0.552909  0  2.375886  0
O  O114  1  0.66797031  0.26956066  0.21176308  1  0  -0.634061  0  2.079648  0  0  -0.576299  0  2.341564  0  0  -0.603178  0  2.331225  0  0  -0.303933  -0.557954  0  2.348124  0
O  O115  1  0.33202981  0.73043959  0.78823713  1  0  -0.634081  0  2.079565  0  0  -0.576341  0  2.341493  0  0  -0.603224  0  2.331153  0  0  -0.303963  -0.557989  0  2.348041  0
O  O116  1  0.03932210  0.15367412  0.46564181  1  0  -0.334443  0  1.740551  0  0  -0.336035  0  1.928692  0  0  -0.346221  0  1.924878  0  0  -0.126691  -0.329127  0  1.931288  0
O  O117  1  0.96067734  0.84631880  0.53436148  1  0  -0.334609  0  1.740544  0  0  -0.336149  0  1.928751  0  0  -0.346338  0  1.924934  0  0  -0.126702  -0.329243  0  1.931349  0
O  O118  1  0.21635676  0.03985103  0.41627309  1  0  -0.364466  0  1.771275  0  0  -0.353867  0  1.967248  0  0  -0.367091  0  1.964118  0  0  -0.129284  -0.345061  0  1.969507  0
O  O119  1  0.78364334  0.96014287  0.58372753  1  0  -0.364603  0  1.771166  0  0  -0.353952  0  1.967192  0  0  -0.367177  0  1.96406  0  0  -0.129328  -0.345132  0  1.969443  0
O  O120  1  0.20652260  0.79104965  0.14499166  1  0  -0.547152  0  1.937732  0  0  -0.509161  0  2.159912  0  0  -0.529011  0  2.152713  0  0  -0.286569  -0.495525  0  2.164737  0
O  O121  1  0.79348077  0.20894883  0.85500801  1  0  -0.547004  0  1.937933  0  0  -0.509014  0  2.160074  0  0  -0.528871  0  2.152878  0  0  -0.286446  -0.495379  0  2.164899  0
O  O122  1  0.01678484  0.79992825  0.06950001  1  0  -0.566107  0  2.06038  0  0  -0.518471  0  2.271506  0  0  -0.541421  0  2.254972  0  0  -0.340585  -0.502361  0  2.282433  0
O  O123  1  0.98321540  0.20006834  0.93050173  1  0  -0.566108  0  2.060438  0  0  -0.518481  0  2.27154  0  0  -0.541432  0  2.255007  0  0  -0.340579  -0.502369  0  2.282463  0
O  O124  1  0.32420784  0.27075836  0.08244598  1  0  -0.635237  0  2.035291  0  0  -0.56561  0  2.306151  0  0  -0.593891  0  2.29116  0  0  -0.317137  -0.545684  0  2.315826  0
O  O125  1  0.67579319  0.72924186  0.91755586  1  0  -0.63524  0  2.035293  0  0  -0.565588  0  2.30616  0  0  -0.593877  0  2.291176  0  0  -0.317115  -0.545663  0  2.315841  0
O  O126  1  0.38033009  0.39437357  0.17821011  1  0  -0.632837  0  2.110904  0  0  -0.572827  0  2.384111  0  0  -0.599196  0  2.371033  0  0  -0.304388  -0.554152  0  2.392399  0
O  O127  1  0.61967200  0.60562945  0.82178871  1  0  -0.632868  0  2.11082  0  0  -0.572875  0  2.384071  0  0  -0.599213  0  2.370913  0  0  -0.304465  -0.554199  0  2.392356  0
O  O128  1  0.89155935  0.63979726  0.39023080  1  0  -0.35799  0  1.753486  0  0  -0.34357  0  1.961087  0  0  -0.355261  0  1.957589  0  0  -0.126376  -0.335813  0  1.963559  0
O  O129  1  0.10844063  0.36020028  0.60976913  1  0  -0.358049  0  1.753464  0  0  -0.343623  0  1.961047  0  0  -0.355314  0  1.957547  0  0  -0.12639  -0.335865  0  1.963517  0
O  O130  1  0.09601476  0.61939778  0.40107352  1  0  -0.35595  0  1.736109  0  0  -0.338695  0  1.934679  0  0  -0.351003  0  1.931513  0  0  -0.128829  -0.330592  0  1.936914  0
O  O131  1  0.90398418  0.38060332  0.59892901  1  0  -0.355952  0  1.73594  0  0  -0.33871  0  1.934511  0  0  -0.351027  0  1.931352  0  0  -0.128864  -0.330611  0  1.936749  0
O  O132  1  0.83362123  0.35898881  0.01987475  1  0  -0.634061  0  2.036587  0  0  -0.575348  0  2.266126  0  0  -0.601649  0  2.257666  0  0  -0.309365  -0.556809  0  2.271479  0
O  O133  1  0.16638136  0.64101236  0.98012605  1  0  -0.634122  0  2.036542  0  0  -0.575363  0  2.266067  0  0  -0.601666  0  2.257606  0  0  -0.309358  -0.556824  0  2.271421  0
O  O134  1  0.71878832  0.50017509  0.10692250  1  0  -0.645137  0  2.071527  0  0  -0.582104  0  2.338272  0  0  -0.609923  0  2.328085  0  0  -0.317229  -0.562127  0  2.344461  0
O  O135  1  0.28121296  0.49982426  0.89307786  1  0  -0.645179  0  2.071608  0  0  -0.582116  0  2.338359  0  0  -0.609935  0  2.328168  0  0  -0.317217  -0.562139  0  2.344549  0
O  O136  1  0.55897013  0.39072418  0.97565084  1  0  -0.969137  0  1.957329  0  0  -0.862887  0  2.262072  0  0  -0.895921  0  2.224046  0  0  -0.564997  -0.839896  0  2.287715  0
O  O137  1  0.44102999  0.60927607  0.02434937  1  0  -0.96914  0  1.957318  0  0  -0.862893  0  2.262052  0  0  -0.89593  0  2.224023  0  0  -0.565008  -0.839903  0  2.287697  0
