# generated using pymatgen
data_CuH4C6N2Cl
_symmetry_space_group_name_H-M   'P 1'
_cell_length_a   7.31832643
_cell_length_b   7.32502482
_cell_length_c   8.19564117
_cell_angle_alpha   102.98359940
_cell_angle_beta   111.06114786
_cell_angle_gamma   110.16328890
_symmetry_Int_Tables_number   1
_chemical_formula_structural   CuH4C6N2Cl
_chemical_formula_sum   'Cu2 H8 C12 N4 Cl2'
_cell_volume   353.09165581
_cell_formula_units_Z   2
loop_
 _symmetry_equiv_pos_site_id
 _symmetry_equiv_pos_as_xyz
  1  'x, y, z'
loop_
 _atom_site_type_symbol
 _atom_site_label
 _atom_site_symmetry_multiplicity
 _atom_site_fract_x
 _atom_site_fract_y
 _atom_site_fract_z
 _atom_site_occupancy
 _atom_site_hle17_bader_spin_density
 _atom_site_hle17_ddec_charge
 _atom_site_hle17_ddec_spin_density
 _atom_site_hle17_ddec_sum_bond_order
 _atom_site_hle17_magmom
 _atom_site_hse06_10hf_bader_spin_density
 _atom_site_hse06_10hf_ddec_charge
 _atom_site_hse06_10hf_ddec_spin_density
 _atom_site_hse06_10hf_ddec_sum_bond_order
 _atom_site_hse06_10hf_magmom
 _atom_site_hse06_bader_spin_density
 _atom_site_hse06_ddec_charge
 _atom_site_hse06_ddec_spin_density
 _atom_site_hse06_ddec_sum_bond_order
 _atom_site_hse06_magmom
 _atom_site_pbe_bader_spin_density
 _atom_site_pbe_cm5_charge
 _atom_site_pbe_ddec_charge
 _atom_site_pbe_ddec_spin_density
 _atom_site_pbe_ddec_sum_bond_order
 _atom_site_pbe_magmom
Cu  Cu0  1  0.15315543  0.01582693  0.42913415  1  0  0.402439  0  2.205048  0  0  0.308084  0  2.687489  0  0  0.301819  0  2.648573  0  0  0.48146  0.315521  0  2.711261  0
Cu  Cu1  1  0.91314648  0.27590738  0.92917293  1  0  0.40195  0  2.204056  0  0  0.307331  0  2.686486  0  0  0.30119  0  2.647611  0  0  0.480818  0.314666  0  2.710517  0
H  H2  1  0.61996280  0.46988691  0.56256049  1  0  0.127582  0  0.954412  0  0  0.138041  0  1.012301  0  0  0.140595  0  1.012774  0  0  0.107107  0.136201  0  1.012106  0
H  H3  1  0.59205225  0.94167300  0.06190564  1  0  0.127331  0  0.955412  0  0  0.137569  0  1.013481  0  0  0.140121  0  1.013953  0  0  0.107042  0.135734  0  1.013274  0
H  H4  1  0.40998509  0.19623672  0.23011196  1  0  0.09481  0  0.962013  0  0  0.101472  0  1.028606  0  0  0.104216  0  1.026383  0  0  0.100915  0.099341  0  1.030425  0
H  H5  1  0.53426139  0.81955866  0.72954901  1  0  0.094897  0  0.963389  0  0  0.101956  0  1.029624  0  0  0.104709  0  1.02743  0  0  0.100776  0.099841  0  1.0314  0
H  H6  1  0.51412044  0.28425216  0.98338781  1  0  0.112826  0  0.966232  0  0  0.123129  0  1.024854  0  0  0.125349  0  1.025557  0  0  0.104359  0.121498  0  1.024587  0
H  H7  1  0.20008253  0.46931236  0.48299676  1  0  0.112327  0  0.966642  0  0  0.123014  0  1.024973  0  0  0.125257  0  1.025663  0  0  0.104349  0.121339  0  1.024747  0
H  H8  1  0.82356539  0.64025187  0.08533918  1  0  0.080976  0  0.932566  0  0  0.087441  0  0.999748  0  0  0.09125  0  0.995328  0  0  0.111883  0.084512  0  1.003263  0
H  H9  1  0.94565579  0.26182968  0.58506130  1  0  0.082079  0  0.930955  0  0  0.088195  0  0.998598  0  0  0.092108  0  0.994085  0  0  0.112019  0.085192  0  1.002169  0
C  C10  1  0.44067834  0.12704875  0.61691014  1  0  -0.123413  0  3.544735  0  0  -0.124669  0  3.922623  0  0  -0.108388  0  3.914301  0  0  -0.063396  -0.135985  0  3.927287  0
C  C11  1  0.98957973  0.17680852  0.11761955  1  0  -0.123343  0  3.543576  0  0  -0.124524  0  3.921437  0  0  -0.108242  0  3.91307  0  0  -0.063882  -0.135864  0  3.92631  0
C  C12  1  0.82967214  0.69507479  0.49444673  1  0  0.279982  0  3.796643  0  0  0.274686  0  4.065785  0  0  0.284128  0  4.084754  0  0  0.135321  0.268288  0  4.053153  0
C  C13  1  0.29892193  0.66424986  0.99403839  1  0  0.281386  0  3.798094  0  0  0.275385  0  4.067927  0  0  0.284888  0  4.086935  0  0  0.135357  0.268938  0  4.055274  0
C  C14  1  0.65959541  0.50119664  0.45264170  1  0  -0.173794  0  3.722963  0  0  -0.191964  0  3.964651  0  0  -0.201329  0  3.988884  0  0  -0.090846  -0.185958  0  3.948583  0
C  C15  1  0.45117858  0.79234128  0.95211864  1  0  -0.173367  0  3.724512  0  0  -0.191162  0  3.966273  0  0  -0.200504  0  3.990513  0  0  -0.090485  -0.18517  0  3.95022  0
C  C16  1  0.54435770  0.34888598  0.26698995  1  0  0.020296  0  3.699374  0  0  0.004402  0  3.94539  0  0  0.008956  0  3.963346  0  0  -0.065024  0.001397  0  3.933519  0
C  C17  1  0.41847227  0.72201733  0.76656203  1  0  0.01892  0  3.703421  0  0  0.002603  0  3.949414  0  0  0.007104  0  3.967431  0  0  -0.065842  -0.000378  0  3.937515  0
C  C18  1  0.60106843  0.39677194  0.13086046  1  0  -0.12396  0  3.728404  0  0  -0.139863  0  3.97963  0  0  -0.146348  0  4.00008  0  0  -0.08956  -0.135936  0  3.966345  0
C  C19  1  0.23477471  0.52959829  0.63055374  1  0  -0.123348  0  3.728601  0  0  -0.139381  0  3.979484  0  0  -0.145901  0  3.999994  0  0  -0.089114  -0.135403  0  3.966159  0
C  C20  1  0.77364561  0.59438149  0.18635474  1  0  0.130266  0  3.688614  0  0  0.099661  0  3.94825  0  0  0.106977  0  3.961848  0  0  0.038599  0.094706  0  3.939667  0
C  C21  1  0.09242062  0.41257686  0.68612330  1  0  0.129768  0  3.68801  0  0  0.099143  0  3.947632  0  0  0.106461  0  3.961281  0  0  0.038278  0.094209  0  3.938975  0
N  N22  1  0.62670242  0.19935701  0.73411789  1  0  -0.400659  0  3.323324  0  0  -0.334888  0  3.649169  0  0  -0.349448  0  3.652704  0  0  -0.443911  -0.325561  0  3.646098  0
N  N23  1  0.03452597  0.10792712  0.23480203  1  0  -0.400384  0  3.323624  0  0  -0.334779  0  3.649558  0  0  -0.349276  0  3.652988  0  0  -0.443586  -0.325417  0  3.646297  0
N  N24  1  0.88971939  0.74330648  0.36699797  1  0  -0.338651  0  3.349499  0  0  -0.276266  0  3.63926  0  0  -0.286603  0  3.646117  0  0  -0.360859  -0.269956  0  3.634677  0
N  N25  1  0.12356749  0.47695224  0.86668709  1  0  -0.340153  0  3.351122  0  0  -0.277141  0  3.640636  0  0  -0.287717  0  3.647764  0  0  -0.360688  -0.270661  0  3.635926  0
Cl  Cl26  1  0.97283823  0.88934490  0.72313005  1  0  -0.088209  0  1.395793  0  0  -0.068673  0  1.647247  0  0  -0.070624  0  1.638564  0  0  0.034436  -0.067483  0  1.653372  0
Cl  Cl27  1  0.33284798  0.74971650  0.22268238  1  0  -0.088556  0  1.398043  0  0  -0.0688  0  1.649889  0  0  -0.070748  0  1.641178  0  0  0.034473  -0.067609  0  1.656031  0
