# generated using pymatgen
data_SmCuH13C17S(NO3)3
_symmetry_space_group_name_H-M   'P 1'
_cell_length_a   6.28699294
_cell_length_b   12.10409865
_cell_length_c   13.20807375
_cell_angle_alpha   97.09752828
_cell_angle_beta   93.49112462
_cell_angle_gamma   94.24064297
_symmetry_Int_Tables_number   1
_chemical_formula_structural   SmCuH13C17S(NO3)3
_chemical_formula_sum   'Sm2 Cu2 H26 C34 S2 N6 O18'
_cell_volume   992.18685042
_cell_formula_units_Z   2
loop_
 _symmetry_equiv_pos_site_id
 _symmetry_equiv_pos_as_xyz
  1  'x, y, z'
loop_
 _atom_site_type_symbol
 _atom_site_label
 _atom_site_symmetry_multiplicity
 _atom_site_fract_x
 _atom_site_fract_y
 _atom_site_fract_z
 _atom_site_occupancy
 _atom_site_hle17_bader_spin_density
 _atom_site_hle17_ddec_charge
 _atom_site_hle17_ddec_spin_density
 _atom_site_hle17_ddec_sum_bond_order
 _atom_site_hle17_magmom
 _atom_site_hse06_10hf_bader_spin_density
 _atom_site_hse06_10hf_ddec_charge
 _atom_site_hse06_10hf_ddec_spin_density
 _atom_site_hse06_10hf_ddec_sum_bond_order
 _atom_site_hse06_10hf_magmom
 _atom_site_hse06_bader_spin_density
 _atom_site_hse06_ddec_charge
 _atom_site_hse06_ddec_spin_density
 _atom_site_hse06_ddec_sum_bond_order
 _atom_site_hse06_magmom
 _atom_site_pbe_bader_spin_density
 _atom_site_pbe_cm5_charge
 _atom_site_pbe_ddec_charge
 _atom_site_pbe_ddec_spin_density
 _atom_site_pbe_ddec_sum_bond_order
 _atom_site_pbe_magmom
Sm  Sm0  1  0.67168692  0.62166870  0.42725578  1  0  2.229909  0  1.647997  0  0  2.06211  0  2.125646  0  0  2.104921  0  2.084861  0  0  1.520987  2.029367  0  2.156758  0
Sm  Sm1  1  0.32831181  0.37832786  0.57275113  1  0  2.22989  0  1.647948  0  0  2.062242  0  2.125359  0  0  2.105044  0  2.084576  0  0  1.520958  2.029486  0  2.156486  0
Cu  Cu2  1  0.74180413  0.77067825  0.05025674  1  0  0.483537  0  1.587996  0  0  0.342757  0  2.020205  0  0  0.352213  0  1.978819  0  0  0.522293  0.339298  0  2.045948  0
Cu  Cu3  1  0.25819797  0.22932000  0.94973531  1  0  0.483472  0  1.588121  0  0  0.34273  0  2.020324  0  0  0.352211  0  1.978984  0  0  0.522292  0.339277  0  2.046076  0
H  H4  1  0.49051455  0.39077011  0.33366668  1  0  0.44625  0  0.853643  0  0  0.413573  0  0.918784  0  0  0.426093  0  0.900534  0  0  0.298413  0.404705  0  0.931708  0
H  H5  1  0.50948302  0.60922898  0.66633670  1  0  0.446244  0  0.853667  0  0  0.413543  0  0.918845  0  0  0.426063  0  0.900596  0  0  0.298416  0.404674  0  0.931771  0
H  H6  1  0.72487559  0.42094492  0.30373783  1  0  0.434971  0  0.821406  0  0  0.417475  0  0.874776  0  0  0.426109  0  0.86483  0  0  0.322258  0.411328  0  0.881925  0
H  H7  1  0.27512053  0.57905500  0.69626485  1  0  0.434907  0  0.821463  0  0  0.417413  0  0.874836  0  0  0.426046  0  0.864892  0  0  0.322237  0.411266  0  0.881983  0
H  H8  1  0.78447140  0.05991791  0.34855637  1  0  0.119314  0  0.924452  0  0  0.129818  0  0.979857  0  0  0.133511  0  0.978224  0  0  0.116152  0.127191  0  0.981101  0
H  H9  1  0.21552841  0.94007615  0.65144119  1  0  0.119261  0  0.924437  0  0  0.129788  0  0.979826  0  0  0.13348  0  0.978194  0  0  0.116165  0.127157  0  0.981072  0
H  H10  1  0.78993134  0.15307883  0.53008326  1  0  0.11807  0  0.954164  0  0  0.125069  0  1.016198  0  0  0.128306  0  1.014199  0  0  0.114245  0.122675  0  1.017728  0
H  H11  1  0.21006936  0.84692025  0.46991491  1  0  0.118067  0  0.954168  0  0  0.125097  0  1.016161  0  0  0.128336  0  1.014159  0  0  0.114245  0.122705  0  1.017691  0
H  H12  1  0.72870467  0.03267952  0.66980823  1  0  0.113837  0  0.941768  0  0  0.125415  0  0.999001  0  0  0.128726  0  0.997512  0  0  0.115022  0.123073  0  1.00009  0
H  H13  1  0.27129839  0.96732371  0.33019275  1  0  0.113867  0  0.94175  0  0  0.125394  0  0.999041  0  0  0.128705  0  0.997554  0  0  0.115047  0.123061  0  1.000129  0
H  H14  1  0.44406041  0.69101134  0.18880396  1  0  0.09343  0  0.981426  0  0  0.10146  0  1.044298  0  0  0.104173  0  1.04165  0  0  0.121317  0.099354  0  1.046436  0
H  H15  1  0.55594465  0.30899442  0.81119132  1  0  0.093447  0  0.981421  0  0  0.101503  0  1.044284  0  0  0.10422  0  1.041629  0  0  0.121339  0.099398  0  1.046426  0
H  H16  1  0.10859846  0.57331337  0.17398681  1  0  0.124711  0  0.959305  0  0  0.135043  0  1.016755  0  0  0.138265  0  1.015572  0  0  0.114647  0.132631  0  1.01792  0
H  H17  1  0.89140666  0.42669236  0.82601679  1  0  0.124741  0  0.959295  0  0  0.135026  0  1.016783  0  0  0.138276  0  1.015566  0  0  0.114645  0.132615  0  1.017951  0
H  H18  1  0.16672290  0.52130190  0.84591816  1  0  0.117355  0  0.960949  0  0  0.130743  0  1.01624  0  0  0.133438  0  1.015626  0  0  0.116124  0.128783  0  1.016865  0
H  H19  1  0.83327025  0.47869053  0.15408055  1  0  0.117421  0  0.960987  0  0  0.130798  0  1.016265  0  0  0.133496  0  1.015642  0  0  0.116126  0.128836  0  1.016889  0
H  H20  1  0.49744707  0.64499121  0.87425465  1  0  0.087041  0  0.947547  0  0  0.094039  0  1.015341  0  0  0.098114  0  1.010041  0  0  0.116654  0.090978  0  1.019158  0
H  H21  1  0.50254301  0.35500208  0.12574104  1  0  0.087057  0  0.947377  0  0  0.094058  0  1.015168  0  0  0.098129  0  1.009875  0  0  0.116644  0.091005  0  1.01898  0
H  H22  1  0.07005671  0.88862538  0.18413434  1  0  0.081189  0  0.96536  0  0  0.093111  0  1.023112  0  0  0.095142  0  1.021385  0  0  0.116329  0.091485  0  1.024617  0
H  H23  1  0.92994714  0.11137369  0.81585937  1  0  0.081178  0  0.965332  0  0  0.09309  0  1.023085  0  0  0.095122  0  1.021355  0  0  0.116289  0.091457  0  1.024602  0
H  H24  1  0.40854856  0.99995553  0.17157255  1  0  0.119178  0  0.984741  0  0  0.126545  0  1.049788  0  0  0.130058  0  1.047414  0  0  0.108528  0.123927  0  1.051849  0
H  H25  1  0.59145128  0.00004774  0.82842305  1  0  0.119164  0  0.984694  0  0  0.126528  0  1.049728  0  0  0.130039  0  1.047356  0  0  0.108539  0.123914  0  1.051776  0
H  H26  1  0.32005454  0.91209469  0.84301708  1  0  0.119212  0  0.953822  0  0  0.130519  0  1.011422  0  0  0.133525  0  1.010056  0  0  0.113359  0.128328  0  1.01263  0
H  H27  1  0.67994429  0.08791194  0.15697661  1  0  0.119171  0  0.953724  0  0  0.130432  0  1.011401  0  0  0.133435  0  1.010038  0  0  0.113335  0.128243  0  1.012609  0
H  H28  1  0.97864988  0.80864279  0.86958412  1  0  0.086981  0  0.9285  0  0  0.097928  0  0.987208  0  0  0.100884  0  0.984302  0  0  0.119315  0.095692  0  0.989398  0
H  H29  1  0.02134477  0.19136721  0.13040985  1  0  0.086975  0  0.928437  0  0  0.097919  0  0.987153  0  0  0.100875  0  0.984249  0  0  0.11934  0.095684  0  0.989344  0
C  C30  1  0.73467891  0.82815689  0.28846991  1  0  0.626812  0  3.911314  0  0  0.579728  0  4.20314  0  0  0.612442  0  4.194414  0  0  0.21126  0.557677  0  4.208191  0
C  C31  1  0.26531950  0.17183800  0.71153452  1  0  0.626665  0  3.911691  0  0  0.57971  0  4.203379  0  0  0.612425  0  4.194648  0  0  0.211259  0.557648  0  4.208424  0
C  C32  1  0.73612697  0.89509552  0.39299107  1  0  0.106646  0  3.76427  0  0  0.112963  0  4.005898  0  0  0.113195  0  4.024901  0  0  0.118225  0.112424  0  3.993289  0
C  C33  1  0.26386858  0.10490106  0.60701575  1  0  0.106445  0  3.764466  0  0  0.112641  0  4.00623  0  0  0.112874  0  4.025229  0  0  0.117985  0.112142  0  3.993559  0
C  C34  1  0.76417276  0.01148718  0.41197683  1  0  -0.095723  0  3.67875  0  0  -0.119579  0  3.931518  0  0  -0.122744  0  3.950948  0  0  -0.06637  -0.117425  0  3.918615  0
C  C35  1  0.23581970  0.98851027  0.58802319  1  0  -0.095519  0  3.678597  0  0  -0.119376  0  3.93138  0  0  -0.122539  0  3.950808  0  0  -0.066304  -0.117231  0  3.918459  0
C  C36  1  0.76525693  0.06259764  0.51272398  1  0  0.003464  0  3.661954  0  0  -0.015596  0  3.918255  0  0  -0.014619  0  3.937157  0  0  -0.061331  -0.016027  0  3.905676  0
C  C37  1  0.23474553  0.93740226  0.48727584  1  0  0.003372  0  3.662015  0  0  -0.0157  0  3.9183  0  0  -0.014726  0  3.937205  0  0  -0.061358  -0.01613  0  3.905723  0
C  C38  1  0.73303678  0.99631262  0.59049420  1  0  -0.100543  0  3.68048  0  0  -0.123405  0  3.930691  0  0  -0.126566  0  3.950322  0  0  -0.068425  -0.121283  0  3.917644  0
C  C39  1  0.26696427  0.00368811  0.40951022  1  0  -0.100452  0  3.680461  0  0  -0.123296  0  3.930643  0  0  -0.126456  0  3.950276  0  0  -0.068386  -0.121184  0  3.917608  0
C  C40  1  0.70152741  0.88052401  0.56525309  1  0  0.112435  0  3.752005  0  0  0.116901  0  3.995231  0  0  0.117287  0  4.013805  0  0  0.120421  0.116351  0  3.982864  0
C  C41  1  0.29846407  0.11947678  0.43474881  1  0  0.112268  0  3.751915  0  0  0.116815  0  3.99504  0  0  0.1172  0  4.013612  0  0  0.120305  0.116261  0  3.982685  0
C  C42  1  0.65016391  0.80024424  0.64141655  1  0  0.636239  0  3.909328  0  0  0.589472  0  4.204504  0  0  0.622319  0  4.195594  0  0  0.216728  0.567247  0  4.209729  0
C  C43  1  0.34982905  0.19975569  0.35858983  1  0  0.63628  0  3.909065  0  0  0.589474  0  4.204285  0  0  0.622324  0  4.195372  0  0  0.216717  0.567251  0  4.209511  0
C  C44  1  0.37512843  0.65358799  0.11395725  1  0  0.134367  0  3.668583  0  0  0.102761  0  3.911954  0  0  0.109875  0  3.929343  0  0  0.045609  0.098106  0  3.900291  0
C  C45  1  0.62487175  0.34641694  0.88604310  1  0  0.134229  0  3.668584  0  0  0.102594  0  3.91194  0  0  0.109703  0  3.929342  0  0  0.045545  0.097939  0  3.900285  0
C  C46  1  0.18569607  0.58584446  0.10421341  1  0  -0.147329  0  3.673113  0  0  -0.165144  0  3.919175  0  0  -0.172371  0  3.938225  0  0  -0.07635  -0.16073  0  3.906843  0
C  C47  1  0.81430669  0.41415711  0.89578586  1  0  -0.147364  0  3.673025  0  0  -0.165099  0  3.919088  0  0  -0.17235  0  3.938123  0  0  -0.07636  -0.160686  0  3.906762  0
C  C48  1  0.10087793  0.53623672  0.00701192  1  0  0.084846  0  3.771743  0  0  0.093231  0  4.012703  0  0  0.09944  0  4.029424  0  0  0.01163  0.089117  0  4.001762  0
C  C49  1  0.89912613  0.46376317  0.99298946  1  0  0.08485  0  3.771568  0  0  0.093154  0  4.012582  0  0  0.099361  0  4.029312  0  0  0.011597  0.089049  0  4.001635  0
C  C50  1  0.21833564  0.55841803  0.92354919  1  0  -0.150411  0  3.689196  0  0  -0.169599  0  3.933008  0  0  -0.177544  0  3.955209  0  0  -0.080829  -0.164826  0  3.918282  0
C  C51  1  0.78166638  0.44157936  0.07645260  1  0  -0.150471  0  3.689125  0  0  -0.169611  0  3.932923  0  0  -0.177552  0  3.955114  0  0  -0.080773  -0.164836  0  3.918195  0
C  C52  1  0.40643824  0.62749056  0.93882382  1  0  0.115381  0  3.707011  0  0  0.085095  0  3.953252  0  0  0.091197  0  3.972118  0  0  0.04042  0.081583  0  3.9402  0
C  C53  1  0.59356052  0.37250687  0.06116880  1  0  0.115327  0  3.706924  0  0  0.08504  0  3.953171  0  0  0.091145  0  3.97204  0  0  0.040398  0.081524  0  3.940131  0
C  C54  1  0.13342701  0.89545987  0.11026531  1  0  0.121661  0  3.694017  0  0  0.091329  0  3.936756  0  0  0.097308  0  3.955521  0  0  0.036213  0.087147  0  3.924854  0
C  C55  1  0.86657714  0.10454087  0.88972860  1  0  0.1217  0  3.693898  0  0  0.09141  0  3.936623  0  0  0.09739  0  3.955386  0  0  0.036289  0.087245  0  3.924695  0
C  C56  1  0.32391426  0.95716440  0.10206002  1  0  -0.135759  0  3.697564  0  0  -0.158056  0  3.949067  0  0  -0.164206  0  3.967974  0  0  -0.079206  -0.154429  0  3.936841  0
C  C57  1  0.67609179  0.04283800  0.89793488  1  0  -0.13579  0  3.697393  0  0  -0.15808  0  3.948892  0  0  -0.16423  0  3.967798  0  0  -0.079231  -0.154456  0  3.936666  0
C  C58  1  0.39931927  0.96643756  0.00543355  1  0  0.08074  0  3.751958  0  0  0.092089  0  3.988996  0  0  0.098314  0  4.004131  0  0  0.010309  0.087989  0  3.978718  0
C  C59  1  0.60067957  0.03356906  0.99456241  1  0  0.080773  0  3.751811  0  0  0.092147  0  3.988826  0  0  0.098368  0  4.003963  0  0  0.010318  0.08805  0  3.978551  0
C  C60  1  0.27274852  0.90983449  0.92057411  1  0  -0.129939  0  3.672826  0  0  -0.150227  0  3.919088  0  0  -0.156626  0  3.93911  0  0  -0.075504  -0.146455  0  3.905949  0
C  C61  1  0.72725176  0.09017129  0.07942028  1  0  -0.129966  0  3.672943  0  0  -0.150234  0  3.919222  0  0  -0.15663  0  3.939241  0  0  -0.075526  -0.146467  0  3.906089  0
C  C62  1  0.08165819  0.85047275  0.93454730  1  0  0.110138  0  3.697425  0  0  0.081109  0  3.941937  0  0  0.086731  0  3.961384  0  0  0.040519  0.077433  0  3.929313  0
C  C63  1  0.91834352  0.14953219  0.06544627  1  0  0.110193  0  3.697765  0  0  0.08119  0  3.942259  0  0  0.086814  0  3.961705  0  0  0.040571  0.077524  0  3.929621  0
S  S64  1  0.16275915  0.60634485  0.41859386  1  0  1.585967  0  5.879722  0  0  1.473735  0  6.409345  0  0  1.529727  0  6.371406  0  0  0.552933  1.434839  0  6.434326  0
S  S65  1  0.83724683  0.39365669  0.58141155  1  0  1.586064  0  5.87953  0  0  1.473897  0  6.409112  0  0  1.529892  0  6.371166  0  0  0.553092  1.435001  0  6.434097  0
N  N66  1  0.70664719  0.83246409  0.46861306  1  0  -0.441138  0  3.353787  0  0  -0.394975  0  3.606334  0  0  -0.407153  0  3.627066  0  0  -0.397081  -0.386473  0  3.592533  0
N  N67  1  0.29335168  0.16753330  0.53139243  1  0  -0.440974  0  3.35357  0  0  -0.394794  0  3.606079  0  0  -0.406971  0  3.62681  0  0  -0.396915  -0.386304  0  3.592263  0
N  N68  1  0.48610832  0.67550843  0.03300315  1  0  -0.306682  0  3.446724  0  0  -0.2192  0  3.7426  0  0  -0.232896  0  3.752503  0  0  -0.379175  -0.210555  0  3.735311  0
N  N69  1  0.51389123  0.32449316  0.96699376  1  0  -0.30649  0  3.446681  0  0  -0.21903  0  3.742568  0  0  -0.232736  0  3.752501  0  0  -0.37913  -0.210389  0  3.735291  0
N  N70  1  0.00992689  0.84285780  0.02839040  1  0  -0.299907  0  3.44297  0  0  -0.21284  0  3.737106  0  0  -0.226055  0  3.747561  0  0  -0.378142  -0.204608  0  3.729392  0
N  N71  1  0.99007468  0.15714630  0.97160459  1  0  -0.299914  0  3.443243  0  0  -0.212909  0  3.73744  0  0  -0.226135  0  3.747922  0  0  -0.3782  -0.204682  0  3.729739  0
O  O72  1  0.04620095  0.67497210  0.49504981  1  0  -0.764162  0  1.933905  0  0  -0.717712  0  2.187399  0  0  -0.738243  0  2.170957  0  0  -0.398592  -0.702847  0  2.198169  0
O  O73  1  0.95380516  0.32503028  0.50495342  1  0  -0.764242  0  1.933801  0  0  -0.717828  0  2.187286  0  0  -0.738355  0  2.170839  0  0  -0.398627  -0.702955  0  2.198042  0
O  O74  1  0.99721905  0.53926646  0.34679381  1  0  -0.762613  0  1.936548  0  0  -0.708858  0  2.184589  0  0  -0.729178  0  2.165991  0  0  -0.380366  -0.694181  0  2.196998  0
O  O75  1  0.00278852  0.46073506  0.65321089  1  0  -0.762658  0  1.936584  0  0  -0.708912  0  2.184569  0  0  -0.729228  0  2.165971  0  0  -0.380413  -0.694236  0  2.19698  0
O  O76  1  0.74524051  0.72256358  0.28759408  1  0  -0.722679  0  2.019952  0  0  -0.673666  0  2.274879  0  0  -0.697099  0  2.262267  0  0  -0.40556  -0.657018  0  2.282942  0
O  O77  1  0.25474360  0.27743139  0.71241225  1  0  -0.722622  0  2.019944  0  0  -0.673687  0  2.274843  0  0  -0.697118  0  2.26223  0  0  -0.405608  -0.657032  0  2.282887  0
O  O78  1  0.72170814  0.87837095  0.21067933  1  0  -0.587705  0  2.010339  0  0  -0.531705  0  2.264614  0  0  -0.554706  0  2.253598  0  0  -0.305293  -0.515606  0  2.271303  0
O  O79  1  0.27829760  0.12162056  0.78932188  1  0  -0.58761  0  2.010592  0  0  -0.531669  0  2.264819  0  0  -0.554681  0  2.253822  0  0  -0.305206  -0.515575  0  2.271513  0
O  O80  1  0.62554253  0.69600089  0.60137509  1  0  -0.733899  0  2.085589  0  0  -0.669769  0  2.322672  0  0  -0.696538  0  2.31107  0  0  -0.39259  -0.650829  0  2.329976  0
O  O81  1  0.37445359  0.30399903  0.39862835  1  0  -0.733888  0  2.085596  0  0  -0.669782  0  2.322685  0  0  -0.696549  0  2.31108  0  0  -0.392547  -0.650842  0  2.329989  0
O  O82  1  0.63017062  0.83572098  0.73243048  1  0  -0.579882  0  1.890014  0  0  -0.542504  0  2.105972  0  0  -0.562812  0  2.096779  0  0  -0.314965  -0.528284  0  2.111801  0
O  O83  1  0.36982242  0.16427981  0.26756692  1  0  -0.579916  0  1.889625  0  0  -0.542524  0  2.105585  0  0  -0.562835  0  2.096392  0  0  -0.314951  -0.528306  0  2.111425  0
O  O84  1  0.31411380  0.67672912  0.36614065  1  0  -0.76102  0  1.923331  0  0  -0.708981  0  2.176067  0  0  -0.730242  0  2.160386  0  0  -0.393011  -0.693577  0  2.186373  0
O  O85  1  0.68589777  0.32326821  0.63386139  1  0  -0.760964  0  1.923237  0  0  -0.708976  0  2.175991  0  0  -0.730241  0  2.160311  0  0  -0.393027  -0.693562  0  2.186271  0
O  O86  1  0.30396961  0.53225985  0.47097168  1  0  -0.887518  0  2.127519  0  0  -0.82405  0  2.409942  0  0  -0.845486  0  2.390829  0  0  -0.457308  -0.808327  0  2.422287  0
O  O87  1  0.69602971  0.46774005  0.52903411  1  0  -0.887505  0  2.127607  0  0  -0.824066  0  2.410034  0  0  -0.845512  0  2.390938  0  0  -0.457336  -0.808344  0  2.422379  0
O  O88  1  0.58379465  0.44963699  0.30444548  1  0  -0.886752  0  1.801841  0  0  -0.838132  0  1.990175  0  0  -0.856203  0  1.961606  0  0  -0.62981  -0.825249  0  2.010118  0
O  O89  1  0.41619957  0.55036128  0.69555696  1  0  -0.886703  0  1.801943  0  0  -0.838084  0  1.990307  0  0  -0.856153  0  1.961738  0  0  -0.629795  -0.825196  0  2.010247  0
