# generated using pymatgen
data_Zn4H12C27S4O15
_symmetry_space_group_name_H-M   'P 1'
_cell_length_a   19.63614920
_cell_length_b   19.64388578
_cell_length_c   33.27969955
_cell_angle_alpha   79.30537598
_cell_angle_beta   79.32172601
_cell_angle_gamma   64.04001423
_symmetry_Int_Tables_number   1
_chemical_formula_structural   Zn4H12C27S4O15
_chemical_formula_sum   'Zn16 H48 C108 S16 O60'
_cell_volume   11262.31409641
_cell_formula_units_Z   4
loop_
 _symmetry_equiv_pos_site_id
 _symmetry_equiv_pos_as_xyz
  1  'x, y, z'
loop_
 _atom_site_type_symbol
 _atom_site_label
 _atom_site_symmetry_multiplicity
 _atom_site_fract_x
 _atom_site_fract_y
 _atom_site_fract_z
 _atom_site_occupancy
 _atom_site_pbe_bader_charge
 _atom_site_pbe_bader_spin_density
 _atom_site_pbe_cm5_charge
 _atom_site_pbe_ddec_charge
 _atom_site_pbe_ddec_spin_density
 _atom_site_pbe_ddec_sum_bond_order
 _atom_site_pbe_magmom
Zn  Zn0  1  0.05616992  0.40026261  0.47900014  1  1.322003  0  0.672132  0.972259  0  2.346335  0
Zn  Zn1  1  0.98432374  0.48297558  0.55960047  1  1.313999  0  0.669329  0.945037  0  2.40798  0
Zn  Zn2  1  0.05658632  0.56428404  0.48217672  1  1.318102  0  0.677416  0.967584  0  2.361484  0
Zn  Zn3  1  0.90029037  0.55648610  0.47837487  1  1.318774  0  0.678189  0.967345  0  2.367539  0
Zn  Zn4  1  0.69233846  0.35129780  0.27127968  1  1.318007  0  0.671918  0.969367  0  2.361172  0
Zn  Zn5  1  0.68625217  0.19338798  0.26716485  1  1.316411  0  0.671443  0.965122  0  2.369823  0
Zn  Zn6  1  0.76969499  0.26533771  0.18969269  1  1.321897  0  0.677255  0.968749  0  2.357309  0
Zn  Zn7  1  0.84678746  0.19628779  0.27224657  1  1.3111  0  0.6699  0.954903  0  2.386626  0
Zn  Zn8  1  0.26786109  0.76748448  0.68902587  1  1.307987  0  0.671359  0.961835  0  2.37556  0
Zn  Zn9  1  0.34989096  0.69580586  0.77023820  1  1.311267  0  0.6706  0.956836  0  2.385465  0
Zn  Zn10  1  0.19240403  0.84853463  0.77199291  1  1.32542  0  0.678809  0.979563  0  2.340865  0
Zn  Zn11  1  0.19199833  0.68808653  0.76650504  1  1.31773  0  0.670351  0.959225  0  2.376259  0
Zn  Zn12  1  0.56046446  0.06041521  0.98273202  1  1.315667  0  0.670976  0.964566  0  2.37214  0
Zn  Zn13  1  0.40109056  0.05600724  0.97797477  1  1.313232  0  0.671089  0.96303  0  2.369311  0
Zn  Zn14  1  0.55506788  0.90117159  0.97810624  1  1.314208  0  0.671146  0.966024  0  2.374667  0
Zn  Zn15  1  0.48447174  0.98180330  0.06024757  1  1.320601  0  0.671456  0.966208  0  2.364985  0
H  H16  1  0.95431239  0.25296402  0.34834552  1  0.099854  0  0.111849  0.117148  0  0.989168  0
H  H17  1  0.74117244  0.45080827  0.35624045  1  0.140562  0  0.115089  0.126787  0  0.986454  0
H  H18  1  0.00266010  0.30164570  0.39663567  1  0.134503  0  0.114374  0.121264  0  0.983608  0
H  H19  1  0.09269650  0.60381196  0.69956496  1  0.081253  0  0.11275  0.118494  0  0.988375  0
H  H20  1  0.21456815  0.68787283  0.59714792  1  0.091697  0  0.11425  0.125275  0  0.988518  0
H  H21  1  0.04434878  0.55634277  0.65062980  1  0.12995  0  0.112556  0.118366  0  0.988362  0
H  H22  1  0.46274834  0.24148963  0.34247367  1  0.141843  0  0.119286  0.144263  0  0.971727  0
H  H23  1  0.48025164  0.69747285  0.59980313  1  0.134835  0  0.121803  0.147252  0  0.966796  0
H  H24  1  0.20639357  0.97925589  0.60234249  1  0.121549  0  0.119119  0.144218  0  0.972686  0
H  H25  1  0.94755828  0.97004335  0.34439227  1  0.11362  0  0.119483  0.144743  0  0.971714  0
H  H26  1  0.55671539  0.04390186  0.15220921  1  0.137536  0  0.113851  0.120712  0  0.986163  0
H  H27  1  0.63907703  0.16579918  0.04903488  1  0.087309  0  0.113668  0.124648  0  0.989827  0
H  H28  1  0.60535896  0.09313953  0.20005104  1  0.116154  0  0.11443  0.120792  0  0.983827  0
H  H29  1  0.54840570  0.76919758  0.14789139  1  0.110827  0  0.119696  0.145149  0  0.971116  0
H  H30  1  0.16344922  0.14514965  0.04086034  1  0.096003  0  0.120137  0.145945  0  0.970048  0
H  H31  1  0.49759304  0.79348320  0.90189957  1  0.133954  0  0.113863  0.120065  0  0.985763  0
H  H32  1  0.30132651  0.00791299  0.89346892  1  0.115623  0  0.113413  0.123805  0  0.989146  0
H  H33  1  0.44837974  0.74634224  0.85330020  1  0.126881  0  0.113146  0.11932  0  0.986638  0
H  H34  1  0.30068332  0.28147119  0.90180286  1  0.12251  0  0.120997  0.146866  0  0.968628  0
H  H35  1  0.78559195  0.01122007  0.90651374  1  0.117781  0  0.120409  0.145963  0  0.970181  0
H  H36  1  0.78653529  0.57211947  0.35843062  1  0.619316  0  0.337659  0.368211  0  0.87573  0
H  H37  1  0.11191671  0.74411504  0.53270587  1  0.599651  0  0.340659  0.373216  0  0.868444  0
H  H38  1  0.78258483  0.15151413  0.07196654  1  0.619096  0  0.340273  0.372695  0  0.86963  0
H  H39  1  0.17748518  0.96605459  0.88976416  1  0.614396  0  0.338483  0.370313  0  0.873267  0
H  H40  1  0.23003271  0.57767910  0.40209995  1  0.052801  0  0.100712  0.146065  0  0.979395  0
H  H41  1  0.32947094  0.55386093  0.39887714  1  0.056954  0  0.090097  0.127835  0  0.998688  0
H  H42  1  0.27669771  0.53758207  0.44651339  1  0.107608  0  0.103576  0.162173  0  0.989779  0
H  H43  1  0.82489778  0.47795809  0.65328169  1  0.081531  0  0.100332  0.144059  0  0.983046  0
H  H44  1  0.75759709  0.53414890  0.69129087  1  0.024961  0  0.089907  0.126087  0  1.001352  0
H  H45  1  0.82161035  0.56720627  0.65752035  1  0.063301  0  0.100368  0.144197  0  0.980115  0
H  H46  1  0.06049689  0.32662348  0.65671829  1  0.067493  0  0.101545  0.146586  0  0.978504  0
H  H47  1  0.03900381  0.25709128  0.69269821  1  0.041981  0  0.091956  0.129187  0  0.997972  0
H  H48  1  0.97520390  0.31806312  0.65624276  1  0.040989  0  0.099464  0.141677  0  0.983872  0
H  H49  1  0.79192838  0.72221564  0.39380218  1  0.074184  0  0.099969  0.148016  0  0.987684  0
H  H50  1  0.72815841  0.82039210  0.38477339  1  0.02751  0  0.090711  0.127468  0  0.998859  0
H  H51  1  0.75051983  0.77625192  0.43534610  1  0.094179  0  0.104644  0.151184  0  0.970414  0
H  H52  1  0.77034549  0.42655754  0.09437028  1  0.101309  0  0.10103  0.146094  0  0.978541  0
H  H53  1  0.71078084  0.49115792  0.05697809  1  0.029192  0  0.089391  0.126179  0  0.999837  0
H  H54  1  0.68285789  0.42443875  0.09170512  1  0.099632  0  0.103299  0.161606  0  0.990147  0
H  H55  1  0.07525320  0.14330768  0.24220262  1  0.062074  0  0.101992  0.147218  0  0.977654  0
H  H56  1  0.16157243  0.06682178  0.22501875  1  0.01622  0  0.091136  0.127636  0  0.999734  0
H  H57  1  0.07415098  0.05613039  0.23760350  1  0.094179  0  0.102195  0.146717  0  0.975779  0
H  H58  1  0.49441540  0.48421767  0.81609797  1  0.082739  0  0.102985  0.148905  0  0.976202  0
H  H59  1  0.52227853  0.42818877  0.86388922  1  0.032088  0  0.091362  0.128415  0  0.999871  0
H  H60  1  0.45677128  0.52616756  0.86213326  1  0.052979  0  0.101395  0.145436  0  0.977983  0
H  H61  1  0.97448516  0.70778426  0.80753840  1  0.081274  0  0.101424  0.146321  0  0.978896  0
H  H62  1  0.91765715  0.69559004  0.85441229  1  0.023092  0  0.090759  0.127492  0  1.000678  0
H  H63  1  0.01677938  0.67107956  0.85350204  1  0.087478  0  0.102369  0.147665  0  0.975975  0
C  C64  1  0.06076441  0.31601089  0.56273271  1  1.538927  0  0.215148  0.613908  0  4.213834  0
C  C65  1  0.06959139  0.56931482  0.56879179  1  1.560019  0  0.229014  0.603308  0  4.172494  0
C  C66  1  0.18258941  0.44096718  0.43919887  1  1.553316  0  0.216811  0.616341  0  4.209271  0
C  C67  1  0.93473717  0.68693861  0.43807521  1  1.552327  0  0.214233  0.609844  0  4.220122  0
C  C68  1  0.93135264  0.43127978  0.43070966  1  1.575358  0  0.230073  0.604991  0  4.16764  0
C  C69  1  0.81716941  0.56035189  0.56166705  1  1.539828  0  0.216554  0.613916  0  4.214619  0
C  C70  1  0.56457460  0.31321880  0.31310197  1  1.572399  0  0.217295  0.610412  0  4.215226  0
C  C71  1  0.68010879  0.18208890  0.18084230  1  1.570491  0  0.230169  0.604557  0  4.170614  0
C  C72  1  0.68761638  0.43258123  0.18699983  1  1.522572  0  0.21652  0.613878  0  4.210976  0
C  C73  1  0.93684963  0.19016984  0.19029518  1  1.557998  0  0.214403  0.611351  0  4.216465  0
C  C74  1  0.81672570  0.32145265  0.32002544  1  1.567731  0  0.229043  0.603745  0  4.166442  0
C  C75  1  0.80929049  0.06633205  0.30948130  1  1.579087  0  0.216289  0.609973  0  4.218892  0
C  C76  1  0.43482900  0.68586657  0.68697750  1  1.522517  0  0.216042  0.60867  0  4.219006  0
C  C77  1  0.31909128  0.81906433  0.81875220  1  1.585368  0  0.229841  0.60516  0  4.167433  0
C  C78  1  0.19133074  0.93423339  0.68904753  1  1.547621  0  0.218662  0.611426  0  4.212722  0
C  C79  1  0.06411170  0.80843990  0.80996407  1  1.56577  0  0.215018  0.611235  0  4.218107  0
C  C80  1  0.18319017  0.67927729  0.67976386  1  1.556549  0  0.22893  0.602798  0  4.168303  0
C  C81  1  0.31449381  0.56684458  0.81209426  1  1.556891  0  0.214224  0.612367  0  4.215355  0
C  C82  1  0.43831773  0.18453694  0.93807033  1  1.548516  0  0.21755  0.610322  0  4.215453  0
C  C83  1  0.43019500  0.93164673  0.92981182  1  1.569229  0  0.230256  0.604118  0  4.165441  0
C  C84  1  0.68437210  0.93888361  0.93859575  1  1.552146  0  0.217016  0.611266  0  4.215625  0
C  C85  1  0.56203677  0.81469545  0.06100624  1  1.518964  0  0.215238  0.608142  0  4.217161  0
C  C86  1  0.56854336  0.07123838  0.06908469  1  1.569083  0  0.22905  0.602512  0  4.167249  0
C  C87  1  0.31647754  0.06049460  0.06133877  1  1.587493  0  0.216685  0.609897  0  4.217742  0
C  C88  1  0.89938156  0.40299054  0.40332463  1  0.030606  0  -0.005854  -0.044294  0  3.935229  0
C  C89  1  0.84532138  0.34964804  0.34924960  1  0.008683  0  -0.009332  -0.019423  0  3.966994  0
C  C90  1  0.82486529  0.44577468  0.39230553  1  -0.022927  0  -0.00691  -0.067969  0  3.975095  0
C  C91  1  0.91883410  0.30680869  0.36077607  1  -0.018888  0  -0.074673  -0.084371  0  3.960339  0
C  C92  1  0.79862550  0.41883034  0.36509815  1  -0.058101  0  -0.076108  -0.123814  0  3.939981  0
C  C93  1  0.94542601  0.33361721  0.38754881  1  -0.102022  0  -0.073883  -0.082017  0  3.962414  0
C  C94  1  0.10228480  0.59543697  0.59683656  1  0.026773  0  -0.004911  -0.043333  0  3.939618  0
C  C95  1  0.15545084  0.64942554  0.65095838  1  -0.031633  0  -0.009372  -0.017577  0  3.96461  0
C  C96  1  0.15108092  0.63206591  0.58120240  1  -0.082337  0  -0.007308  -0.06917  0  3.980689  0
C  C97  1  0.10826984  0.61157806  0.66643036  1  0.016848  0  -0.075082  -0.086374  0  3.96047  0
C  C98  1  0.17677513  0.65936793  0.60847746  1  0.023693  0  -0.075493  -0.122452  0  3.940979  0
C  C99  1  0.08185042  0.58513231  0.63939922  1  -0.052498  0  -0.074553  -0.081993  0  3.964923  0
C  C100  1  0.30281578  0.45782550  0.40313875  1  0.079696  0  0.000809  0.152362  0  3.959885  0
C  C101  1  0.44535013  0.29834888  0.35063822  1  0.055136  0  -0.089032  -0.132401  0  3.968801  0
C  C102  1  0.25768469  0.41717180  0.41493311  1  -0.13413  0  -0.027579  -0.193955  0  3.931773  0
C  C103  1  0.49018715  0.33851323  0.33833904  1  -0.227291  0  -0.02699  -0.123545  0  3.991597  0
C  C104  1  0.37701070  0.34118722  0.37413604  1  -0.158473  0  -0.023457  -0.003787  0  4.101058  0
C  C105  1  0.37091645  0.41329792  0.37962189  1  -0.172818  0  -0.021949  -0.078665  0  4.036367  0
C  C106  1  0.72808478  0.57353908  0.62965648  1  0.052731  0  -0.004352  0.141958  0  3.970656  0
C  C107  1  0.52509648  0.66910432  0.61987891  1  -0.027792  0  -0.085782  -0.129156  0  3.959372  0
C  C108  1  0.74296854  0.58319399  0.58680194  1  -0.155378  0  -0.02767  -0.196938  0  3.939721  0
C  C109  1  0.50977259  0.66000507  0.66236637  1  -0.109843  0  -0.026517  -0.119843  0  3.990576  0
C  C110  1  0.60439028  0.63736339  0.60755467  1  -0.117525  0  -0.022159  -0.006691  0  4.094246  0
C  C111  1  0.64822716  0.60483995  0.64098070  1  -0.177686  0  -0.0241  -0.080289  0  4.049863  0
C  C112  1  0.07565301  0.22736831  0.63105087  1  0.092017  0  -0.002299  0.146243  0  3.965985  0
C  C113  1  0.17680991  0.02439108  0.62214566  1  0.023956  0  -0.089407  -0.133915  0  3.970828  0
C  C114  1  0.08608730  0.24204579  0.58818757  1  -0.17607  0  -0.028865  -0.195035  0  3.936755  0
C  C115  1  0.16649278  0.00949985  0.66465129  1  -0.153573  0  -0.025104  -0.122344  0  3.988556  0
C  C116  1  0.14422263  0.10349511  0.60955489  1  -0.152504  0  -0.023676  -0.00409  0  4.099007  0
C  C117  1  0.10942560  0.14760415  0.64274649  1  -0.180005  0  -0.022762  -0.08376  0  4.04434  0
C  C118  1  0.83908026  0.80181951  0.39661087  1  0.086501  0  -0.002388  0.144407  0  3.967738  0
C  C119  1  0.90299047  0.94963326  0.34952191  1  -0.03996  0  -0.089051  -0.132586  0  3.969794  0
C  C120  1  0.90902074  0.76058533  0.41231033  1  -0.168717  0  -0.029319  -0.194964  0  3.938703  0
C  C121  1  0.83375550  0.99114644  0.33390629  1  -0.082685  0  -0.027529  -0.122877  0  3.993884  0
C  C122  1  0.90579693  0.88044408  0.37213842  1  -0.160873  0  -0.024603  -0.005875  0  4.100469  0
C  C123  1  0.83840363  0.87040320  0.37356522  1  -0.180479  0  -0.023142  -0.079329  0  4.040659  0
C  C124  1  0.64932771  0.15659118  0.15144430  1  0.012945  0  -0.005239  -0.043331  0  3.93517  0
C  C125  1  0.59610909  0.10134637  0.09788365  1  -0.017479  0  -0.008746  -0.017499  0  3.960783  0
C  C126  1  0.65883199  0.17811890  0.10867794  1  -0.020298  0  -0.007581  -0.070856  0  3.982524  0
C  C127  1  0.58554346  0.08123007  0.14044869  1  -0.033038  0  -0.073994  -0.085785  0  3.957308  0
C  C128  1  0.63253979  0.14979101  0.08220891  1  0.021988  0  -0.076549  -0.123534  0  3.942342  0
C  C129  1  0.61222684  0.10866755  0.16687633  1  -0.109077  0  -0.073364  -0.080429  0  3.959652  0
C  C130  1  0.67286882  0.52098509  0.11852485  1  0.110741  0  -0.000431  0.149073  0  3.960862  0
C  C131  1  0.57675860  0.72424865  0.12790494  1  0.037039  0  -0.089727  -0.133857  0  3.969402  0
C  C132  1  0.66298552  0.50639514  0.16140080  1  -0.152556  0  -0.027494  -0.192116  0  3.930511  0
C  C133  1  0.58659305  0.73948456  0.08541113  1  -0.158265  0  -0.027367  -0.123222  0  3.992655  0
C  C134  1  0.60784764  0.64503520  0.14031700  1  -0.191342  0  -0.024193  -0.005632  0  4.101801  0
C  C135  1  0.64092252  0.60093962  0.10704891  1  -0.14684  0  -0.021475  -0.076536  0  4.034102  0
C  C136  1  0.08365765  0.12325786  0.17964550  1  0.061824  0  -0.004076  0.142736  0  3.969577  0
C  C137  1  0.17091574  0.12706879  0.07328203  1  0.074989  0  -0.089075  -0.134296  0  3.966407  0
C  C138  1  0.01201112  0.16459872  0.16588454  1  -0.120527  0  -0.027958  -0.193347  0  3.933655  0
C  C139  1  0.24214239  0.08587711  0.08675333  1  -0.216196  0  -0.025684  -0.119332  0  3.987484  0
C  C140  1  0.11275659  0.14108781  0.10680338  1  -0.203296  0  -0.023597  -0.003892  0  4.096195  0
C  C141  1  0.14068144  0.11030823  0.14533937  1  -0.174894  0  -0.023423  -0.080946  0  4.045095  0
C  C142  1  0.34766815  0.85029495  0.84637380  1  0.006759  0  -0.005325  -0.043698  0  3.936096  0
C  C143  1  0.40166995  0.90312287  0.90073687  1  -0.005345  0  -0.009346  -0.017536  0  3.962166  0
C  C144  1  0.30552063  0.92482461  0.85733863  1  -0.016921  0  -0.007383  -0.06902  0  3.981747  0
C  C145  1  0.44393913  0.82948453  0.88932540  1  -0.068729  0  -0.073751  -0.084701  0  3.955824  0
C  C146  1  0.33276030  0.95038127  0.88471202  1  -0.044913  0  -0.076476  -0.122667  0  3.942574  0
C  C147  1  0.41677433  0.80356198  0.86238874  1  -0.043543  0  -0.074022  -0.081714  0  3.962825  0
C  C148  1  0.40962401  0.45037098  0.85318997  1  0.086498  0  -0.002495  0.145502  0  3.965285  0
C  C149  1  0.34537233  0.30159879  0.89737212  1  0.046498  0  -0.087631  -0.131951  0  3.963685  0
C  C150  1  0.34028060  0.49222354  0.83695929  1  -0.144561  0  -0.028554  -0.194058  0  3.933604  0
C  C151  1  0.41413228  0.25960106  0.91344060  1  -0.156696  0  -0.025784  -0.120059  0  3.986837  0
C  C152  1  0.34310385  0.37107674  0.87535224  1  -0.162219  0  -0.023128  -0.003751  0  4.095643  0
C  C153  1  0.41016744  0.38106226  0.87508443  1  -0.211469  0  -0.023211  -0.080627  0  4.043118  0
C  C154  1  0.94506649  0.79156984  0.84873258  1  0.122756  0  -0.003643  0.143209  0  3.970593  0
C  C155  1  0.80312373  0.95357252  0.89949770  1  0.040304  0  -0.088633  -0.132459  0  3.966496  0
C  C156  1  0.98943734  0.83257778  0.83484726  1  -0.145492  0  -0.028535  -0.194417  0  3.934854  0
C  C157  1  0.75880801  0.91320455  0.91334024  1  -0.13539  0  -0.026203  -0.121504  0  3.990536  0
C  C158  1  0.87104789  0.90994532  0.87590579  1  -0.176714  0  -0.023292  -0.006196  0  4.098103  0
C  C159  1  0.87740205  0.83687511  0.87220875  1  -0.244001  0  -0.023735  -0.079994  0  4.045652  0
C  C160  1  0.76913940  0.51748615  0.41070047  1  1.544841  0  0.229549  0.583913  0  4.130933  0
C  C161  1  0.18214257  0.63823270  0.53632283  1  1.562567  0  0.232685  0.585622  0  4.132179  0
C  C162  1  0.69087327  0.23568544  0.09001024  1  1.557606  0  0.232604  0.587374  0  4.133219  0
C  C163  1  0.23502006  0.98173216  0.83826126  1  1.553021  0  0.229528  0.583797  0  4.136632  0
C  C164  1  0.28407184  0.53574414  0.41312326  1  -0.06496  0  -0.233338  -0.402581  0  3.948408  0
C  C165  1  0.78585732  0.53626258  0.65967000  1  -0.042445  0  -0.232561  -0.393156  0  3.966911  0
C  C166  1  0.03556503  0.28513421  0.66091270  1  -0.019826  0  -0.231511  -0.393476  0  3.964157  0
C  C167  1  0.77396492  0.77918701  0.40274991  1  -0.055849  0  -0.231978  -0.395453  0  3.956384  0
C  C168  1  0.71100141  0.46300409  0.08872073  1  -0.079895  0  -0.233038  -0.400632  0  3.947962  0
C  C169  1  0.09985711  0.09584305  0.22338907  1  -0.032265  0  -0.23151  -0.393688  0  3.961166  0
C  C170  1  0.47439595  0.47313689  0.84865920  1  -0.04484  0  -0.231425  -0.395232  0  3.961522  0
C  C171  1  0.96420253  0.71232246  0.84070399  1  -0.075183  0  -0.231947  -0.395367  0  3.963312  0
S  S172  1  0.29775281  0.32730867  0.39795095  1  0.237238  0  0.067389  0.105013  0  2.760889  0
S  S173  1  0.44972424  0.42808299  0.35538363  1  0.251244  0  0.081876  0.123463  0  2.758182  0
S  S174  1  0.66173420  0.62856944  0.56126858  1  0.283228  0  0.09075  0.139891  0  2.751129  0
S  S175  1  0.59122409  0.61297208  0.68753370  1  0.241775  0  0.073168  0.110981  0  2.770769  0
S  S176  1  0.13602384  0.16048505  0.56312871  1  0.244711  0  0.072638  0.112576  0  2.756904  0
S  S177  1  0.11774179  0.09110051  0.68949823  1  0.269574  0  0.0924  0.14078  0  2.755408  0
S  S178  1  0.97182348  0.80436163  0.39910868  1  0.25409  0  0.073264  0.1139  0  2.762162  0
S  S179  1  0.77189894  0.94651435  0.34656884  1  0.25334  0  0.077337  0.117308  0  2.761961  0
S  S180  1  0.61580453  0.58793985  0.18668685  1  0.2533  0  0.069862  0.10853  0  2.763481  0
S  S181  1  0.63337142  0.65780851  0.06042720  1  0.24576  0  0.078264  0.118473  0  2.760085  0
S  S182  1  0.01475114  0.18687568  0.11252178  1  0.282727  0  0.073844  0.113907  0  2.758802  0
S  S183  1  0.23886688  0.06412597  0.13999627  1  0.295151  0  0.077862  0.118328  0  2.765701  0
S  S184  1  0.27802222  0.44774275  0.84815720  1  0.257837  0  0.072438  0.111893  0  2.76224  0
S  S185  1  0.47605101  0.30421078  0.90199915  1  0.259743  0  0.079474  0.120242  0  2.764199  0
S  S186  1  0.94920998  0.92384643  0.85009076  1  0.271838  0  0.076604  0.119036  0  2.757621  0
S  S187  1  0.79920092  0.82242648  0.89781238  1  0.265404  0  0.078185  0.118826  0  2.766706  0
O  O188  1  0.99978660  0.50047563  0.49950431  1  -1.23306  0  -0.571655  -1.028514  0  2.533365  0
O  O189  1  0.08013820  0.31539339  0.52377821  1  -1.157507  0  -0.322101  -0.55149  0  2.330391  0
O  O190  1  0.04037997  0.52269036  0.58519291  1  -1.159807  0  -0.310596  -0.536598  0  2.333944  0
O  O191  1  0.15470955  0.50623629  0.45219934  1  -1.168124  0  -0.307439  -0.527794  0  2.351035  0
O  O192  1  0.02127849  0.37513355  0.58147671  1  -1.169461  0  -0.31256  -0.535595  0  2.345961  0
O  O193  1  0.15121846  0.39404788  0.44522659  1  -1.176367  0  -0.325985  -0.557865  0  2.334301  0
O  O194  1  0.07248956  0.59716067  0.53106068  1  -1.16551  0  -0.303871  -0.539749  0  2.365635  0
O  O195  1  0.00336041  0.65864661  0.44708595  1  -1.169138  0  -0.322331  -0.54994  0  2.336362  0
O  O196  1  0.89534857  0.50162254  0.43589050  1  -1.168672  0  -0.30498  -0.541185  0  2.375262  0
O  O197  1  0.88685845  0.65724872  0.44950847  1  -1.165767  0  -0.309342  -0.531809  0  2.343276  0
O  O198  1  0.99203647  0.38346015  0.44584169  1  -1.167769  0  -0.308434  -0.535748  0  2.318952  0
O  O199  1  0.87635145  0.53164334  0.58079212  1  -1.164803  0  -0.314262  -0.53963  0  2.347973  0
O  O200  1  0.81624503  0.57156681  0.52255128  1  -1.162279  0  -0.31759  -0.541282  0  2.34308  0
O  O201  1  0.74856306  0.25164941  0.25007533  1  -1.234337  0  -0.57096  -1.029356  0  2.528699  0
O  O202  1  0.59542110  0.36052152  0.30414765  1  -1.162446  0  -0.32095  -0.549558  0  2.332883  0
O  O203  1  0.65396548  0.17586987  0.21866853  1  -1.167335  0  -0.308158  -0.534577  0  2.328024  0
O  O204  1  0.72200782  0.37290891  0.16839352  1  -1.168845  0  -0.306694  -0.526469  0  2.345743  0
O  O205  1  0.59206577  0.24622560  0.30220967  1  -1.168834  0  -0.319711  -0.541747  0  2.315746  0
O  O206  1  0.67257534  0.43451817  0.22610987  1  -1.145378  0  -0.32408  -0.554259  0  2.340934  0
O  O207  1  0.73092446  0.20654229  0.16544806  1  -1.16326  0  -0.305196  -0.541859  0  2.364658  0
O  O208  1  0.87912245  0.22714501  0.17009878  1  -1.178904  0  -0.322389  -0.550925  0  2.337721  0
O  O209  1  0.86048156  0.25550923  0.30920423  1  -1.170383  0  -0.31397  -0.546043  0  2.340335  0
O  O210  1  0.93488478  0.17354590  0.22941703  1  -1.182202  0  -0.311431  -0.535945  0  2.337073  0
O  O211  1  0.75162296  0.36554685  0.30838670  1  -1.175273  0  -0.309366  -0.537811  0  2.329157  0
O  O212  1  0.74355259  0.09345687  0.29687617  1  -1.173611  0  -0.322347  -0.550663  0  2.334274  0
O  O213  1  0.85568083  0.09793397  0.30310235  1  -1.179003  0  -0.319145  -0.542014  0  2.318962  0
O  O214  1  0.25031614  0.75023375  0.74939181  1  -1.227698  0  -0.571007  -1.029005  0  2.52879  0
O  O215  1  0.37645791  0.72304845  0.66753070  1  -1.166331  0  -0.316883  -0.538785  0  2.31317  0
O  O216  1  0.36741206  0.75905111  0.80314942  1  -1.168904  0  -0.310379  -0.536963  0  2.330072  0
O  O217  1  0.17624701  0.93348463  0.72819599  1  -1.137098  0  -0.315221  -0.540043  0  2.336454  0
O  O218  1  0.43487740  0.66873131  0.72607797  1  -1.1467  0  -0.322561  -0.550563  0  2.342706  0
O  O219  1  0.22542080  0.87634503  0.66896343  1  -1.170733  0  -0.320064  -0.54433  0  2.318504  0
O  O220  1  0.24861527  0.85441329  0.81381024  1  -1.167151  0  -0.303284  -0.539635  0  2.362706  0
O  O221  1  0.09281817  0.85752046  0.80093559  1  -1.179797  0  -0.320743  -0.548543  0  2.340717  0
O  O222  1  0.16683341  0.66278086  0.71817289  1  -1.155847  0  -0.311929  -0.543167  0  2.337535  0
O  O223  1  0.09437333  0.74089948  0.79949013  1  -1.16482  0  -0.311499  -0.535861  0  2.335125  0
O  O224  1  0.22042114  0.71877598  0.66339012  1  -1.172882  0  -0.31142  -0.54031  0  2.333787  0
O  O225  1  0.35894753  0.60079181  0.80525188  1  -1.164854  0  -0.311194  -0.535129  0  2.337885  0
O  O226  1  0.24901919  0.59181410  0.79934247  1  -1.174679  0  -0.323414  -0.552873  0  2.341043  0
O  O227  1  0.49997203  0.00023607  0.99981411  1  -1.230837  0  -0.570383  -1.028612  0  2.524995  0
O  O228  1  0.50526531  0.15638148  0.94927556  1  -1.174017  0  -0.321575  -0.550193  0  2.339734  0
O  O229  1  0.38659839  0.99747739  0.94078278  1  -1.169693  0  -0.313077  -0.54332  0  2.333621  0
O  O230  1  0.65277295  0.89225905  0.94649460  1  -1.177656  0  -0.321171  -0.5493  0  2.33964  0
O  O231  1  0.39083972  0.15410856  0.94612743  1  -1.153741  0  -0.317491  -0.540231  0  2.311432  0
O  O232  1  0.65792207  0.00499586  0.95042005  1  -1.168985  0  -0.318278  -0.541294  0  2.312187  0
O  O233  1  0.49560993  0.88761300  0.94112045  1  -1.175042  0  -0.310509  -0.540905  0  2.336239  0
O  O234  1  0.57598221  0.81523374  0.02179934  1  -1.139397  0  -0.321583  -0.549125  0  2.340259  0
O  O235  1  0.53194700  0.03109957  0.08546661  1  -1.157643  0  -0.310678  -0.542266  0  2.334387  0
O  O236  1  0.52899973  0.87292407  0.08084920  1  -1.170883  0  -0.319028  -0.542048  0  2.311576  0
O  O237  1  0.58429147  0.08816792  0.03065396  1  -1.170801  0  -0.312347  -0.541139  0  2.333028  0
O  O238  1  0.31580792  0.07688279  0.02236622  1  -1.174782  0  -0.318019  -0.540647  0  2.312662  0
O  O239  1  0.37525130  0.02411594  0.08071901  1  -1.181297  0  -0.321271  -0.550476  0  2.337655  0
O  O240  1  0.75344613  0.58358871  0.38436769  1  -1.108458  0  -0.340221  -0.478278  0  2.193241  0
O  O241  1  0.73504810  0.51810340  0.44501827  1  -1.101625  0  -0.277501  -0.437898  0  2.042214  0
O  O242  1  0.15407386  0.70970135  0.51533885  1  -1.09247  0  -0.338613  -0.475448  0  2.187212  0
O  O243  1  0.23315933  0.58550556  0.51994858  1  -1.108189  0  -0.272005  -0.439489  0  2.058187  0
O  O244  1  0.76151463  0.20715651  0.06815278  1  -1.109441  0  -0.339077  -0.475936  0  2.189446  0
O  O245  1  0.65526314  0.30389112  0.09097062  1  -1.112412  0  -0.273536  -0.442142  0  2.058225  0
O  O246  1  0.16813850  0.99987533  0.86392964  1  -1.103931  0  -0.341019  -0.476981  0  2.189995  0
O  O247  1  0.23649113  0.01482979  0.80376128  1  -1.106899  0  -0.279663  -0.440126  0  2.04071  0
