# generated using pymatgen
data_Zn2H10C3S2NO8
_symmetry_space_group_name_H-M   'P 1'
_cell_length_a   8.82140153
_cell_length_b   11.07689480
_cell_length_c   11.07688126
_cell_angle_alpha   89.99990507
_cell_angle_beta   89.99999812
_cell_angle_gamma   89.99993996
_symmetry_Int_Tables_number   1
_chemical_formula_structural   Zn2H10C3S2NO8
_chemical_formula_sum   'Zn8 H40 C12 S8 N4 O32'
_cell_volume   1082.36345952
_cell_formula_units_Z   4
loop_
 _symmetry_equiv_pos_site_id
 _symmetry_equiv_pos_as_xyz
  1  'x, y, z'
loop_
 _atom_site_type_symbol
 _atom_site_label
 _atom_site_symmetry_multiplicity
 _atom_site_fract_x
 _atom_site_fract_y
 _atom_site_fract_z
 _atom_site_occupancy
 _atom_site_hle17_bader_spin_density
 _atom_site_hle17_ddec_charge
 _atom_site_hle17_ddec_spin_density
 _atom_site_hle17_ddec_sum_bond_order
 _atom_site_hle17_magmom
 _atom_site_hse06_10hf_bader_spin_density
 _atom_site_hse06_10hf_ddec_charge
 _atom_site_hse06_10hf_ddec_spin_density
 _atom_site_hse06_10hf_ddec_sum_bond_order
 _atom_site_hse06_10hf_magmom
 _atom_site_hse06_bader_spin_density
 _atom_site_hse06_ddec_charge
 _atom_site_hse06_ddec_spin_density
 _atom_site_hse06_ddec_sum_bond_order
 _atom_site_hse06_magmom
 _atom_site_pbe_bader_spin_density
 _atom_site_pbe_cm5_charge
 _atom_site_pbe_ddec_charge
 _atom_site_pbe_ddec_spin_density
 _atom_site_pbe_ddec_sum_bond_order
 _atom_site_pbe_magmom
Zn  Zn0  1  0.74706444  0.78418498  0.21581460  1  0  1.11771  0  1.738236  0  0  0.954633  0  2.183438  0  0  0.997586  0  2.128703  0  0  0.688772  0.924102  0  2.221857  0
Zn  Zn1  1  0.74706480  0.21581403  0.78418715  1  0  1.11772  0  1.738234  0  0  0.954611  0  2.183433  0  0  0.997567  0  2.128707  0  0  0.68876  0.924075  0  2.221849  0
Zn  Zn2  1  0.24706372  0.28418671  0.28418535  1  0  1.117731  0  1.738211  0  0  0.954616  0  2.183406  0  0  0.997568  0  2.128677  0  0  0.688761  0.924085  0  2.221828  0
Zn  Zn3  1  0.24706456  0.71581544  0.71581370  1  0  1.117775  0  1.738132  0  0  0.954682  0  2.18332  0  0  0.997629  0  2.128585  0  0  0.68877  0.924149  0  2.221738  0
Zn  Zn4  1  0.49082188  0.50000010  0.99999856  1  0  1.214229  0  1.668491  0  0  1.033998  0  2.138062  0  0  1.082279  0  2.075096  0  0  0.683315  1.001903  0  2.179758  0
Zn  Zn5  1  0.99082066  0.49999899  0.99999675  1  0  1.214154  0  1.668547  0  0  1.033935  0  2.138128  0  0  1.082212  0  2.075162  0  0  0.683258  1.001839  0  2.179824  0
Zn  Zn6  1  0.99082100  0.00000188  0.49999903  1  0  1.214214  0  1.668503  0  0  1.03404  0  2.138092  0  0  1.082322  0  2.075117  0  0  0.683303  1.001941  0  2.179783  0
Zn  Zn7  1  0.49081996  0.00000209  0.49999994  1  0  1.214196  0  1.668465  0  0  1.034015  0  2.138051  0  0  1.082286  0  2.075074  0  0  0.683277  1.001922  0  2.179747  0
H  H8  1  0.97286978  0.86841985  0.01792941  1  0  0.07713  0  0.943126  0  0  0.089004  0  1.011106  0  0  0.089911  0  1.010874  0  0  0.104425  0.088263  0  1.011387  0
H  H9  1  0.97286798  0.13157898  0.98207324  1  0  0.077191  0  0.943107  0  0  0.089049  0  1.011108  0  0  0.089964  0  1.010859  0  0  0.104444  0.088297  0  1.011395  0
H  H10  1  0.47286785  0.48207052  0.36842189  1  0  0.077176  0  0.943153  0  0  0.089042  0  1.011139  0  0  0.089949  0  1.010908  0  0  0.104436  0.088301  0  1.011417  0
H  H11  1  0.47286782  0.51792782  0.63157987  1  0  0.077157  0  0.94313  0  0  0.089051  0  1.011109  0  0  0.089959  0  1.010871  0  0  0.104442  0.088298  0  1.011398  0
H  H12  1  0.47286888  0.63157890  0.51792955  1  0  0.077178  0  0.943069  0  0  0.089051  0  1.011074  0  0  0.089961  0  1.010839  0  0  0.104432  0.088316  0  1.011345  0
H  H13  1  0.47286792  0.36841944  0.48207220  1  0  0.077164  0  0.943114  0  0  0.089038  0  1.011097  0  0  0.089948  0  1.010858  0  0  0.10444  0.088283  0  1.011389  0
H  H14  1  0.97286919  0.01792809  0.86842221  1  0  0.077188  0  0.943139  0  0  0.089071  0  1.011107  0  0  0.089976  0  1.01087  0  0  0.104449  0.088317  0  1.011397  0
H  H15  1  0.97286970  0.98207074  0.13158043  1  0  0.077138  0  0.943133  0  0  0.089015  0  1.011106  0  0  0.089922  0  1.010874  0  0  0.104432  0.088273  0  1.011387  0
H  H16  1  0.56280341  0.84751624  0.99710396  1  0  0.078116  0  0.933576  0  0  0.090867  0  0.998545  0  0  0.091774  0  0.998162  0  0  0.105726  0.090098  0  0.999042  0
H  H17  1  0.56280049  0.15248112  0.00289960  1  0  0.078117  0  0.933587  0  0  0.090857  0  0.998558  0  0  0.091764  0  0.998173  0  0  0.105706  0.090088  0  0.999053  0
H  H18  1  0.06280034  0.50289604  0.34751978  1  0  0.078097  0  0.933562  0  0  0.090847  0  0.998532  0  0  0.091755  0  0.998147  0  0  0.105713  0.090077  0  0.999029  0
H  H19  1  0.06280147  0.49710084  0.65248379  1  0  0.078099  0  0.933614  0  0  0.090839  0  0.998585  0  0  0.091747  0  0.998204  0  0  0.105719  0.090071  0  0.999079  0
H  H20  1  0.06280024  0.65247935  0.49710509  1  0  0.078106  0  0.933602  0  0  0.090852  0  0.998575  0  0  0.09176  0  0.998189  0  0  0.105721  0.090081  0  0.999071  0
H  H21  1  0.06280157  0.34751753  0.50289939  1  0  0.078104  0  0.933586  0  0  0.090848  0  0.998555  0  0  0.091755  0  0.998173  0  0  0.10572  0.090079  0  0.99905  0
H  H22  1  0.56280105  0.99710161  0.84752112  1  0  0.078127  0  0.93355  0  0  0.090855  0  0.998534  0  0  0.091763  0  0.998148  0  0  0.10572  0.090085  0  0.99903  0
H  H23  1  0.56280285  0.00289666  0.15248425  1  0  0.078106  0  0.933574  0  0  0.09085  0  0.998548  0  0  0.091756  0  0.998167  0  0  0.105732  0.09008  0  0.999044  0
H  H24  1  0.73693565  0.79074940  0.94199102  1  0  0.096086  0  0.916418  0  0  0.110353  0  0.97443  0  0  0.11167  0  0.974221  0  0  0.110802  0.109388  0  0.974493  0
H  H25  1  0.73693378  0.20925053  0.05801163  1  0  0.096099  0  0.916407  0  0  0.110361  0  0.974423  0  0  0.111678  0  0.974209  0  0  0.110798  0.109395  0  0.974485  0
H  H26  1  0.23693363  0.55800893  0.29075105  1  0  0.096064  0  0.916396  0  0  0.110342  0  0.974409  0  0  0.111659  0  0.974197  0  0  0.110785  0.109377  0  0.974471  0
H  H27  1  0.23693370  0.44198871  0.70925252  1  0  0.096179  0  0.916487  0  0  0.110426  0  0.974507  0  0  0.111743  0  0.974296  0  0  0.110864  0.109461  0  0.974568  0
H  H28  1  0.23693353  0.70924885  0.44199115  1  0  0.096087  0  0.916391  0  0  0.110373  0  0.974391  0  0  0.11169  0  0.974178  0  0  0.110787  0.109406  0  0.974453  0
H  H29  1  0.23693380  0.29074969  0.55801152  1  0  0.096141  0  0.916468  0  0  0.110411  0  0.974469  0  0  0.11173  0  0.974255  0  0  0.110828  0.109445  0  0.974531  0
H  H30  1  0.73693442  0.94198957  0.79075067  1  0  0.096081  0  0.916416  0  0  0.110365  0  0.974406  0  0  0.111686  0  0.974188  0  0  0.110805  0.1094  0  0.974467  0
H  H31  1  0.73693614  0.05800856  0.20925108  1  0  0.096095  0  0.916389  0  0  0.110368  0  0.974394  0  0  0.111685  0  0.974183  0  0  0.110817  0.109401  0  0.974455  0
H  H32  1  0.45957956  0.71700295  0.17846931  1  0  0.427838  0  0.878023  0  0  0.39532  0  0.94374  0  0  0.406116  0  0.928047  0  0  0.284712  0.387557  0  0.954981  0
H  H33  1  0.45958210  0.28299631  0.82153515  1  0  0.427816  0  0.878055  0  0  0.395315  0  0.943745  0  0  0.406107  0  0.928057  0  0  0.284742  0.387557  0  0.954978  0
H  H34  1  0.95958200  0.32153267  0.21700123  1  0  0.427785  0  0.878108  0  0  0.395269  0  0.94382  0  0  0.406065  0  0.928127  0  0  0.284697  0.387508  0  0.955059  0
H  H35  1  0.95957381  0.67847610  0.78299328  1  0  0.427787  0  0.87807  0  0  0.395287  0  0.943763  0  0  0.406074  0  0.928083  0  0  0.284692  0.387526  0  0.955003  0
H  H36  1  0.95958622  0.78300277  0.67846558  1  0  0.42789  0  0.877998  0  0  0.395416  0  0.943634  0  0  0.40621  0  0.927943  0  0  0.284783  0.38766  0  0.954864  0
H  H37  1  0.95957640  0.21700510  0.32152894  1  0  0.427829  0  0.878041  0  0  0.395319  0  0.94375  0  0  0.40611  0  0.928065  0  0  0.284703  0.387557  0  0.95499  0
H  H38  1  0.45957877  0.17847161  0.71700672  1  0  0.427809  0  0.878069  0  0  0.395302  0  0.94377  0  0  0.406094  0  0.928082  0  0  0.284718  0.387543  0  0.955006  0
H  H39  1  0.45958062  0.82152945  0.28299684  1  0  0.427774  0  0.87813  0  0  0.395276  0  0.943814  0  0  0.406062  0  0.928136  0  0  0.284702  0.387516  0  0.955051  0
H  H40  1  0.02753484  0.71020880  0.18588025  1  0  0.426314  0  0.878865  0  0  0.394447  0  0.943481  0  0  0.404985  0  0.928304  0  0  0.287879  0.386921  0  0.954254  0
H  H41  1  0.02753737  0.28978450  0.81411881  1  0  0.426257  0  0.878939  0  0  0.394424  0  0.943487  0  0  0.404963  0  0.928309  0  0  0.287886  0.386897  0  0.954263  0
H  H42  1  0.52752934  0.31412464  0.21020872  1  0  0.42638  0  0.878815  0  0  0.394512  0  0.943427  0  0  0.405049  0  0.928251  0  0  0.287919  0.386987  0  0.954198  0
H  H43  1  0.52753702  0.68588088  0.78978491  1  0  0.426205  0  0.879011  0  0  0.394355  0  0.943593  0  0  0.404894  0  0.928416  0  0  0.287836  0.386827  0  0.954369  0
H  H44  1  0.52752335  0.78979546  0.68586839  1  0  0.426583  0  0.878546  0  0  0.394659  0  0.943268  0  0  0.4052  0  0.928084  0  0  0.288003  0.387136  0  0.954038  0
H  H45  1  0.52752827  0.21020825  0.31412434  1  0  0.426547  0  0.878608  0  0  0.39463  0  0.943313  0  0  0.405167  0  0.928137  0  0  0.287992  0.387106  0  0.954082  0
H  H46  1  0.02752383  0.18586647  0.71020607  1  0  0.4266  0  0.878512  0  0  0.394683  0  0.943219  0  0  0.405223  0  0.928038  0  0  0.288035  0.38716  0  0.953988  0
H  H47  1  0.02752683  0.81412683  0.28979479  1  0  0.426474  0  0.878695  0  0  0.394589  0  0.943343  0  0  0.405125  0  0.928168  0  0  0.287997  0.387063  0  0.954116  0
C  C48  1  0.91581303  0.95055659  0.04944362  1  0  -0.032453  0  3.572476  0  0  -0.084714  0  3.820484  0  0  -0.081951  0  3.832956  0  0  -0.07232  -0.086391  0  3.811922  0
C  C49  1  0.91581361  0.04944048  0.95055812  1  0  -0.032682  0  3.572621  0  0  -0.084992  0  3.820684  0  0  -0.082213  0  3.833115  0  0  -0.07237  -0.086654  0  3.812139  0
C  C50  1  0.41581230  0.45055713  0.45055695  1  0  -0.032578  0  3.572486  0  0  -0.084852  0  3.820505  0  0  -0.082089  0  3.832973  0  0  -0.072357  -0.08652  0  3.811953  0
C  C51  1  0.41581110  0.54944036  0.54944481  1  0  -0.032623  0  3.572483  0  0  -0.084998  0  3.820612  0  0  -0.082236  0  3.833084  0  0  -0.072405  -0.086668  0  3.812054  0
C  C52  1  0.67856391  0.87298454  0.97168974  1  0  -0.032706  0  3.563942  0  0  -0.084591  0  3.813404  0  0  -0.081736  0  3.825049  0  0  -0.073753  -0.086352  0  3.805272  0
C  C53  1  0.67856329  0.12701543  0.02830930  1  0  -0.032711  0  3.563962  0  0  -0.084598  0  3.813398  0  0  -0.081738  0  3.825039  0  0  -0.073742  -0.086359  0  3.805263  0
C  C54  1  0.17856311  0.52830833  0.37298541  1  0  -0.032597  0  3.563916  0  0  -0.084508  0  3.813362  0  0  -0.081648  0  3.825003  0  0  -0.073718  -0.086267  0  3.805229  0
C  C55  1  0.17856314  0.47168936  0.62701815  1  0  -0.032748  0  3.564033  0  0  -0.084631  0  3.813465  0  0  -0.081774  0  3.825104  0  0  -0.073787  -0.086389  0  3.805331  0
C  C56  1  0.17856191  0.62701280  0.47169181  1  0  -0.032647  0  3.563971  0  0  -0.084573  0  3.813419  0  0  -0.081713  0  3.825054  0  0  -0.073718  -0.086332  0  3.805283  0
C  C57  1  0.17856321  0.37298308  0.52831085  1  0  -0.032656  0  3.563981  0  0  -0.084554  0  3.813419  0  0  -0.0817  0  3.825061  0  0  -0.073754  -0.086315  0  3.805285  0
C  C58  1  0.67856385  0.97169189  0.87298498  1  0  -0.032629  0  3.563895  0  0  -0.084527  0  3.813355  0  0  -0.081664  0  3.824989  0  0  -0.073746  -0.086288  0  3.80522  0
C  C59  1  0.67856449  0.02830899  0.12701586  1  0  -0.032648  0  3.563879  0  0  -0.084537  0  3.813339  0  0  -0.081679  0  3.824979  0  0  -0.073772  -0.086298  0  3.805204  0
S  S60  1  0.74134558  0.50503457  0.19660816  1  0  0.929623  0  4.365134  0  0  0.824213  0  4.852539  0  0  0.862627  0  4.833839  0  0  0.381846  0.797288  0  4.865065  0
S  S61  1  0.74134444  0.49496626  0.80339178  1  0  0.929742  0  4.36508  0  0  0.824363  0  4.852465  0  0  0.862757  0  4.833765  0  0  0.381942  0.797438  0  4.864991  0
S  S62  1  0.24134354  0.30339268  0.00503636  1  0  0.929737  0  4.365066  0  0  0.824311  0  4.852463  0  0  0.862726  0  4.833762  0  0  0.381935  0.79739  0  4.864991  0
S  S63  1  0.24134326  0.69660676  0.99496811  1  0  0.929642  0  4.3652  0  0  0.824228  0  4.852595  0  0  0.862641  0  4.833894  0  0  0.381909  0.797293  0  4.865121  0
S  S64  1  0.24134533  0.99496318  0.69660771  1  0  0.929759  0  4.365083  0  0  0.824355  0  4.85248  0  0  0.862766  0  4.83378  0  0  0.38194  0.79743  0  4.865015  0
S  S65  1  0.24134486  0.00503536  0.30339225  1  0  0.929649  0  4.365049  0  0  0.824292  0  4.852455  0  0  0.86268  0  4.833743  0  0  0.38187  0.79736  0  4.864988  0
S  S66  1  0.74134351  0.19660672  0.50503548  1  0  0.929718  0  4.365234  0  0  0.824328  0  4.852613  0  0  0.862726  0  4.833908  0  0  0.381903  0.797395  0  4.865148  0
S  S67  1  0.74134311  0.80339230  0.49496355  1  0  0.929737  0  4.365145  0  0  0.824341  0  4.852553  0  0  0.862771  0  4.833846  0  0  0.381895  0.797413  0  4.865085  0
N  N68  1  0.75723054  0.91769092  0.08231030  1  0  -0.243237  0  3.240141  0  0  -0.144471  0  3.492434  0  0  -0.162695  0  3.510053  0  0  -0.34059  -0.131971  0  3.480145  0
N  N69  1  0.75723107  0.08230900  0.91769144  1  0  -0.243245  0  3.240234  0  0  -0.144411  0  3.492435  0  0  -0.162636  0  3.510055  0  0  -0.340586  -0.131908  0  3.480131  0
N  N70  1  0.25722868  0.41768971  0.41769303  1  0  -0.243288  0  3.240109  0  0  -0.144452  0  3.492345  0  0  -0.162673  0  3.509964  0  0  -0.340589  -0.131957  0  3.480064  0
N  N71  1  0.25722971  0.58230791  0.58231053  1  0  -0.243259  0  3.240081  0  0  -0.144379  0  3.492298  0  0  -0.162596  0  3.509911  0  0  -0.340582  -0.131885  0  3.480015  0
O  O72  1  0.59963118  0.43789943  0.14575455  1  0  -0.737886  0  2.120152  0  0  -0.645723  0  2.419506  0  0  -0.672668  0  2.399123  0  0  -0.366589  -0.627104  0  2.432493  0
O  O73  1  0.59963109  0.56210152  0.85424539  1  0  -0.737874  0  2.120175  0  0  -0.645701  0  2.419497  0  0  -0.672665  0  2.399137  0  0  -0.366574  -0.627075  0  2.432478  0
O  O74  1  0.09963017  0.35424377  0.93789818  1  0  -0.73785  0  2.120152  0  0  -0.645698  0  2.4195  0  0  -0.672671  0  2.399141  0  0  -0.36657  -0.627072  0  2.432478  0
O  O75  1  0.09963113  0.64574857  0.06210359  1  0  -0.737903  0  2.120193  0  0  -0.645731  0  2.419546  0  0  -0.67269  0  2.399171  0  0  -0.366579  -0.627103  0  2.432527  0
O  O76  1  0.09962811  0.06209805  0.64575391  1  0  -0.737949  0  2.120098  0  0  -0.645808  0  2.419493  0  0  -0.672774  0  2.399129  0  0  -0.366613  -0.62718  0  2.432469  0
O  O77  1  0.09962867  0.93790060  0.35424785  1  0  -0.737918  0  2.120127  0  0  -0.645797  0  2.419529  0  0  -0.672742  0  2.39915  0  0  -0.366598  -0.62717  0  2.432507  0
O  O78  1  0.59963024  0.14575233  0.43789840  1  0  -0.737972  0  2.12018  0  0  -0.645796  0  2.419538  0  0  -0.672736  0  2.399156  0  0  -0.366581  -0.627168  0  2.432517  0
O  O79  1  0.59962977  0.85424952  0.56209974  1  0  -0.737956  0  2.120142  0  0  -0.645817  0  2.419559  0  0  -0.672797  0  2.399201  0  0  -0.366576  -0.627198  0  2.432544  0
O  O80  1  0.88040516  0.43577236  0.14414399  1  0  -0.736813  0  2.122217  0  0  -0.645185  0  2.421417  0  0  -0.672315  0  2.400906  0  0  -0.366694  -0.626326  0  2.434307  0
O  O81  1  0.88040393  0.56423196  0.85585234  1  0  -0.736748  0  2.122138  0  0  -0.645219  0  2.421426  0  0  -0.672298  0  2.400905  0  0  -0.366684  -0.626371  0  2.434328  0
O  O82  1  0.38040415  0.35585511  0.93577122  1  0  -0.736801  0  2.122175  0  0  -0.645202  0  2.421385  0  0  -0.672313  0  2.400869  0  0  -0.366699  -0.626364  0  2.434294  0
O  O83  1  0.38040511  0.64414421  0.06422783  1  0  -0.736819  0  2.122237  0  0  -0.645207  0  2.421476  0  0  -0.672331  0  2.400956  0  0  -0.366712  -0.626338  0  2.434361  0
O  O84  1  0.38040208  0.06423031  0.64414605  1  0  -0.73679  0  2.122206  0  0  -0.645226  0  2.421459  0  0  -0.672337  0  2.400962  0  0  -0.366712  -0.62639  0  2.434373  0
O  O85  1  0.38040265  0.93577082  0.35585570  1  0  -0.7367  0  2.122053  0  0  -0.645198  0  2.421369  0  0  -0.672253  0  2.400799  0  0  -0.366688  -0.626345  0  2.434264  0
O  O86  1  0.88040308  0.14414707  0.43577235  1  0  -0.736704  0  2.122183  0  0  -0.645169  0  2.421474  0  0  -0.672257  0  2.400951  0  0  -0.366679  -0.62632  0  2.434376  0
O  O87  1  0.88040488  0.85585545  0.56422488  1  0  -0.736835  0  2.122241  0  0  -0.645259  0  2.421471  0  0  -0.672402  0  2.401003  0  0  -0.366727  -0.626414  0  2.434374  0
O  O88  1  0.74251312  0.62350375  0.12535425  1  0  -0.701329  0  2.083852  0  0  -0.621558  0  2.387201  0  0  -0.648267  0  2.37058  0  0  -0.3613  -0.60296  0  2.398779  0
O  O89  1  0.74251553  0.37649798  0.87465020  1  0  -0.701439  0  2.08387  0  0  -0.621607  0  2.387113  0  0  -0.648343  0  2.370562  0  0  -0.361339  -0.603006  0  2.398685  0
O  O90  1  0.24251110  0.37465173  0.12350376  1  0  -0.701459  0  2.083875  0  0  -0.621609  0  2.387146  0  0  -0.648329  0  2.370552  0  0  -0.361351  -0.603009  0  2.398719  0
O  O91  1  0.24251092  0.62535674  0.87649709  1  0  -0.701353  0  2.083852  0  0  -0.621549  0  2.387164  0  0  -0.648265  0  2.37056  0  0  -0.361334  -0.602951  0  2.398742  0
O  O92  1  0.24251416  0.87649953  0.62534406  1  0  -0.701504  0  2.083925  0  0  -0.621607  0  2.387086  0  0  -0.64836  0  2.370575  0  0  -0.36133  -0.603008  0  2.398658  0
O  O93  1  0.24251126  0.12350081  0.37465138  1  0  -0.701426  0  2.08387  0  0  -0.621595  0  2.387119  0  0  -0.64832  0  2.370534  0  0  -0.361312  -0.602996  0  2.398693  0
O  O94  1  0.74250777  0.12534567  0.62350030  1  0  -0.701479  0  2.083952  0  0  -0.621587  0  2.387083  0  0  -0.648344  0  2.370588  0  0  -0.361315  -0.602986  0  2.398658  0
O  O95  1  0.74250955  0.87465154  0.37649874  1  0  -0.701439  0  2.083891  0  0  -0.621598  0  2.38712  0  0  -0.648335  0  2.370567  0  0  -0.361324  -0.602997  0  2.398691  0
O  O96  1  0.51813825  0.75348602  0.24651822  1  0  -0.86197  0  1.911257  0  0  -0.795028  0  2.124245  0  0  -0.817429  0  2.089014  0  0  -0.591236  -0.779042  0  2.14914  0
O  O97  1  0.51813971  0.24651500  0.75348895  1  0  -0.86198  0  1.91126  0  0  -0.795054  0  2.124245  0  0  -0.817449  0  2.089017  0  0  -0.591281  -0.779067  0  2.14913  0
O  O98  1  0.01813867  0.25348689  0.25348089  1  0  -0.861975  0  1.911209  0  0  -0.795034  0  2.124203  0  0  -0.817435  0  2.088971  0  0  -0.591234  -0.779047  0  2.149097  0
O  O99  1  0.01813947  0.74652628  0.74650734  1  0  -0.862066  0  1.911179  0  0  -0.795164  0  2.124155  0  0  -0.817554  0  2.088925  0  0  -0.591319  -0.779177  0  2.149044  0
O  O100  1  0.97146418  0.74289169  0.25712048  1  0  -0.847115  0  1.923154  0  0  -0.77881  0  2.13799  0  0  -0.802058  0  2.104691  0  0  -0.58219  -0.762239  0  2.161298  0
O  O101  1  0.97146336  0.25709901  0.74287765  1  0  -0.847148  0  1.92308  0  0  -0.778866  0  2.137955  0  0  -0.80211  0  2.104657  0  0  -0.582218  -0.762292  0  2.161262  0
O  O102  1  0.47146233  0.24288446  0.24288856  1  0  -0.847249  0  1.923082  0  0  -0.778916  0  2.137924  0  0  -0.802173  0  2.104629  0  0  -0.582218  -0.762344  0  2.161235  0
O  O103  1  0.47146198  0.75712472  0.75709875  1  0  -0.847094  0  1.92317  0  0  -0.778789  0  2.138018  0  0  -0.802034  0  2.104717  0  0  -0.582132  -0.762215  0  2.161322  0
