# generated using pymatgen
data_ZnH22C26N3O4
_symmetry_space_group_name_H-M   'P 1'
_cell_length_a   16.25613232
_cell_length_b   17.39096847
_cell_length_c   19.40334452
_cell_angle_alpha   85.87947419
_cell_angle_beta   85.38781062
_cell_angle_gamma   86.21420831
_symmetry_Int_Tables_number   1
_chemical_formula_structural   ZnH22C26N3O4
_chemical_formula_sum   'Zn2 H44 C52 N6 O8'
_cell_volume   5443.59714328
_cell_formula_units_Z   2
loop_
 _symmetry_equiv_pos_site_id
 _symmetry_equiv_pos_as_xyz
  1  'x, y, z'
loop_
 _atom_site_type_symbol
 _atom_site_label
 _atom_site_symmetry_multiplicity
 _atom_site_fract_x
 _atom_site_fract_y
 _atom_site_fract_z
 _atom_site_occupancy
 _atom_site_pbe_bader_charge
 _atom_site_pbe_bader_spin_density
 _atom_site_pbe_cm5_charge
 _atom_site_pbe_ddec_charge
 _atom_site_pbe_ddec_spin_density
 _atom_site_pbe_ddec_sum_bond_order
 _atom_site_pbe_magmom
Zn  Zn0  1  0.58582107  0.50029401  0.49448859  1  1.281369  0  0.662642  0.812462  0  2.440578  0
Zn  Zn1  1  0.41418044  0.49969252  0.50550876  1  1.279404  0  0.662615  0.812495  0  2.440827  0
H  H2  1  0.62774744  0.51567786  0.71415576  1  0.105478  0  0.103026  0.108805  0  1.000093  0
H  H3  1  0.37226018  0.48430893  0.28584740  1  0.105547  0  0.102981  0.108825  0  0.999897  0
H  H4  1  0.27815701  0.58029417  0.43282626  1  0.119204  0  0.131689  0.107589  0  0.967785  0
H  H5  1  0.72184114  0.41969751  0.56717371  1  0.119077  0  0.131671  0.107578  0  0.967642  0
H  H6  1  0.71084781  0.59303347  0.41046471  1  0.126752  0  0.130967  0.108876  0  0.963054  0
H  H7  1  0.28915272  0.40695988  0.58953557  1  0.126883  0  0.130959  0.108884  0  0.963145  0
H  H8  1  0.13508092  0.39752433  0.59828753  1  0.082787  0  0.113153  0.118097  0  0.987603  0
H  H9  1  0.86491761  0.60248244  0.40172429  1  0.083202  0  0.113205  0.11819  0  0.987626  0
H  H10  1  0.62138903  0.51593747  0.84372060  1  0.092708  0  0.10177  0.099371  0  1.016693  0
H  H11  1  0.37860493  0.48407614  0.15627992  1  0.092937  0  0.101754  0.099293  0  1.016687  0
H  H12  1  0.39525251  0.25784092  0.56951263  1  0.077473  0  0.098882  0.099579  0  1.010924  0
H  H13  1  0.60475437  0.74213468  0.43049714  1  0.07704  0  0.098836  0.099418  0  1.01111  0
H  H14  1  0.64534600  0.10513821  0.48020224  1  0.046565  0  0.098881  0.098322  0  0.997518  0
H  H15  1  0.35466030  0.89485110  0.51979576  1  0.046897  0  0.098859  0.098332  0  0.997534  0
H  H16  1  0.60272882  0.88645784  0.42400024  1  0.03553  0  0.098196  0.095994  0  1.000469  0
H  H17  1  0.39728670  0.11351756  0.57601107  1  0.034929  0  0.098056  0.095814  0  1.000306  0
H  H18  1  0.99705841  0.55819897  0.43642068  1  0.067593  0  0.107497  0.103009  0  0.998042  0
H  H19  1  0.00293721  0.44181569  0.56359672  1  0.067597  0  0.107438  0.103063  0  0.997919  0
H  H20  1  0.87509677  0.42111985  0.56640152  1  0.071894  0  0.112374  0.116843  0  0.994545  0
H  H21  1  0.12489915  0.57888985  0.43360984  1  0.072063  0  0.112424  0.116904  0  0.994572  0
H  H22  1  0.25759670  0.55894810  0.79307200  1  0.022743  0  0.086222  0.113134  0  1.000675  0
H  H23  1  0.25529123  0.45793327  0.78556802  1  0.029724  0  0.083817  0.106791  0  1.010774  0
H  H24  1  0.20074282  0.50120050  0.85692016  1  0.033983  0  0.086584  0.112566  0  1.001313  0
H  H25  1  0.33134851  0.43172623  0.89380144  1  0.070444  0  0.096394  0.094035  0  0.985299  0
H  H26  1  0.32785686  0.52966522  0.90659501  1  0.050922  0  0.093464  0.090278  0  0.976116  0
H  H27  1  0.74468645  0.54214971  0.21441778  1  0.028317  0  0.08377  0.106839  0  1.010508  0
H  H28  1  0.74242184  0.44113043  0.20692281  1  0.023629  0  0.086173  0.113244  0  1.000484  0
H  H29  1  0.79925091  0.49889420  0.14306892  1  0.033465  0  0.086816  0.1129  0  1.00129  0
H  H30  1  0.67215160  0.47038147  0.09339322  1  0.052108  0  0.09346  0.090268  0  0.975735  0
H  H31  1  0.66861710  0.56832557  0.10619129  1  0.069767  0  0.096226  0.093911  0  0.985102  0
H  H32  1  0.36696396  0.49318098  0.72530593  1  0.095568  0  0.100951  0.109184  0  1.036937  0
H  H33  1  0.63303768  0.50682882  0.27468549  1  0.09604  0  0.100923  0.109201  0  1.036874  0
H  H34  1  0.35604505  0.75062335  0.52284753  1  0.091047  0  0.101852  0.105117  0  1.001061  0
H  H35  1  0.64395628  0.24936730  0.47714764  1  0.090995  0  0.101881  0.105131  0  1.001139  0
H  H36  1  0.46456159  0.95988950  0.33203381  1  0.012832  0  0.083267  0.111121  0  1.008702  0
H  H37  1  0.36466782  0.95738323  0.37517169  1  0.046123  0  0.080946  0.106962  0  1.016376  0
H  H38  1  0.39033200  0.03784460  0.31764555  1  0.027682  0  0.084641  0.111329  0  1.003381  0
H  H39  1  0.39158218  0.07347724  0.43945916  1  0.025833  0  0.08913  0.08249  0  0.983841  0
H  H40  1  0.48933929  0.07882281  0.39578654  1  0.016932  0  0.092204  0.088158  0  0.978489  0
H  H41  1  0.63533004  0.04260140  0.62483162  1  0.046104  0  0.080984  0.107017  0  1.016388  0
H  H42  1  0.53543404  0.04009137  0.66796358  1  0.012688  0  0.083315  0.111209  0  1.008644  0
H  H43  1  0.60966400  0.96214005  0.68235839  1  0.027363  0  0.084662  0.111423  0  1.003258  0
H  H44  1  0.51066623  0.92115799  0.60420870  1  0.01672  0  0.092196  0.088221  0  0.978704  0
H  H45  1  0.60842803  0.92650726  0.56054237  1  0.025539  0  0.089235  0.082657  0  0.983738  0
C  C46  1  0.51551036  0.34860461  0.51560541  1  1.574088  0  0.214284  0.594928  0  4.171433  0
C  C47  1  0.48449367  0.65138072  0.48439235  1  1.573194  0  0.214423  0.59523  0  4.17087  0
C  C48  1  0.51923207  0.26216463  0.52257008  1  0.003807  0  -0.022248  -0.036605  0  3.979743  0
C  C49  1  0.48076627  0.73782368  0.47742741  1  0.004999  0  -0.022171  -0.036515  0  3.979936  0
C  C50  1  0.45005380  0.22363846  0.55087133  1  -0.05175  0  -0.088474  -0.090659  0  4.005588  0
C  C51  1  0.54995249  0.77633801  0.44913123  1  -0.052657  0  -0.088609  -0.090547  0  4.005445  0
C  C52  1  0.45133016  0.14339206  0.55402464  1  -0.095625  0  -0.09274  -0.144365  0  4.002214  0
C  C53  1  0.54868572  0.85659000  0.44597818  1  -0.09573  0  -0.092949  -0.144845  0  4.00206  0
C  C54  1  0.52095354  0.09966560  0.52757734  1  0.011404  0  0.000454  0.100128  0  3.995105  0
C  C55  1  0.47905613  0.90031786  0.47242169  1  0.010953  0  0.000583  0.100354  0  3.995156  0
C  C56  1  0.59079457  0.13854803  0.50081537  1  -0.08286  0  -0.093687  -0.14626  0  3.998597  0
C  C57  1  0.40920923  0.86144188  0.49918328  1  -0.083053  0  -0.093742  -0.146335  0  3.99805  0
C  C58  1  0.59027062  0.21888834  0.49876780  1  -0.024341  0  -0.087288  -0.0924  0  3.998019  0
C  C59  1  0.40973526  0.78109761  0.50122827  1  -0.024471  0  -0.087183  -0.092339  0  3.997759  0
C  C60  1  0.51848508  0.01439845  0.52588073  1  0.033403  0  -0.019978  -0.021525  0  3.913702  0
C  C61  1  0.48152600  0.98558227  0.47411417  1  -0.062973  0  -0.019958  -0.021551  0  3.913938  0
C  C62  1  0.24321176  0.54071840  0.46824408  1  0.518899  0  0.062882  0.106494  0  3.92104  0
C  C63  1  0.75678669  0.45927958  0.53175669  1  0.519545  0  0.062973  0.106605  0  3.920969  0
C  C64  1  0.15799548  0.53917860  0.46919958  1  -0.036221  0  -0.07731  -0.174472  0  3.929018  0
C  C65  1  0.84200129  0.46082652  0.53081085  1  -0.036001  0  -0.077317  -0.174507  0  3.928965  0
C  C66  1  0.11597008  0.48716538  0.51631699  1  -0.036366  0  0.00955  0.147012  0  4.035869  0
C  C67  1  0.88402596  0.51284205  0.48369341  1  -0.036637  0  0.009598  0.147162  0  4.035787  0
C  C68  1  0.49806219  0.50393105  0.63537644  1  1.551336  0  0.213767  0.590268  0  4.166895  0
C  C69  1  0.50195562  0.49606272  0.36462071  1  1.551429  0  0.213946  0.590715  0  4.166714  0
C  C70  1  0.16426006  0.43889961  0.56068949  1  0.016839  0  -0.077681  -0.181207  0  3.941098  0
C  C71  1  0.83573849  0.56110728  0.43931923  1  0.015946  0  -0.077725  -0.181365  0  3.941349  0
C  C72  1  0.24950519  0.44366557  0.55639880  1  0.46563  0  0.063721  0.105538  0  3.927915  0
C  C73  1  0.75049338  0.55632940  0.44360516  1  0.466577  0  0.06375  0.105643  0  3.927832  0
C  C74  1  0.02668338  0.48112320  0.52122861  1  0.032025  0  -0.075563  -0.113981  0  3.959299  0
C  C75  1  0.97331310  0.51888695  0.47878580  1  -0.072906  0  -0.075828  -0.11423  0  3.959521  0
C  C76  1  0.56956679  0.50999160  0.74553357  1  0.069039  0  -0.089497  -0.101079  0  4.000825  0
C  C77  1  0.43044017  0.49000924  0.25446400  1  0.069309  0  -0.089463  -0.101251  0  4.001065  0
C  C78  1  0.56577718  0.50979728  0.81727140  1  -0.069365  0  -0.087297  -0.109463  0  4.006274  0
C  C79  1  0.43421797  0.49021752  0.18272746  1  -0.069618  0  -0.087224  -0.109138  0  4.006443  0
C  C80  1  0.49064073  0.50150409  0.85783915  1  -0.031171  0  -0.007494  -0.042602  0  3.953446  0
C  C81  1  0.50934790  0.49853119  0.14215427  1  -0.031372  0  -0.00767  -0.042846  0  3.95412  0
C  C82  1  0.41633919  0.49486477  0.82532749  1  0.037822  0  0.002973  0.099933  0  3.88816  0
C  C83  1  0.58365866  0.50515961  0.17466109  1  0.037729  0  0.003101  0.100126  0  3.888038  0
C  C84  1  0.42205262  0.49659089  0.75299883  1  -0.073716  0  -0.088888  -0.157801  0  3.939848  0
C  C85  1  0.57794841  0.50341823  0.24699574  1  -0.074082  0  -0.088956  -0.157945  0  3.939934  0
C  C86  1  0.49698431  0.50334071  0.71289399  1  -0.093923  0  -0.012565  -0.008878  0  3.971293  0
C  C87  1  0.50302020  0.49666029  0.28710064  1  -0.0942  0  -0.012495  -0.008811  0  3.971629  0
C  C88  1  0.50570854  0.49913430  0.06654155  1  0.963347  0  0.241154  0.256464  0  3.976549  0
C  C89  1  0.49426840  0.50092539  0.93345125  1  0.961668  0  0.241367  0.25706  0  3.97585  0
C  C90  1  0.33288747  0.48877531  0.86545998  1  -0.035289  0  -0.161176  -0.147546  0  3.993966  0
C  C91  1  0.25781521  0.50256025  0.82258256  1  -0.08539  0  -0.244608  -0.34784  0  3.992358  0
C  C92  1  0.66710373  0.51127101  0.13452983  1  -0.036209  0  -0.161078  -0.147352  0  3.993307  0
C  C93  1  0.74218118  0.49751830  0.17740586  1  -0.083758  0  -0.244666  -0.348378  0  3.992009  0
C  C94  1  0.44364055  0.03739513  0.41661223  1  0.01147  0  -0.160139  -0.126702  0  3.984  0
C  C95  1  0.41424580  0.99568807  0.35720740  1  -0.083333  0  -0.248158  -0.352998  0  3.991418  0
C  C96  1  0.55636431  0.96258613  0.58338613  1  0.011943  0  -0.160301  -0.127027  0  3.984378  0
C  C97  1  0.58575218  0.00429437  0.64279288  1  -0.0828  0  -0.248218  -0.353202  0  3.991254  0
N  N98  1  0.44120397  0.45864541  0.97571802  1  -0.549838  0  -0.153192  -0.147052  0  3.234905  0
N  N99  1  0.55876449  0.54142298  0.02427656  1  -0.5496  0  -0.153042  -0.146599  0  3.234672  0
N  N100  1  0.44700141  0.45778062  0.04309621  1  -0.575269  0  -0.160738  -0.160287  0  3.218372  0
N  N101  1  0.55296378  0.54229193  0.95689637  1  -0.57324  0  -0.161027  -0.160607  0  3.218207  0
N  N102  1  0.28826244  0.49376000  0.51103747  1  -1.240764  0  -0.316311  -0.18896  0  3.509185  0
N  N103  1  0.71173763  0.50623057  0.48896036  1  -1.241607  0  -0.316366  -0.189083  0  3.509261  0
O  O104  1  0.58368603  0.38149541  0.50615004  1  -1.161696  0  -0.322161  -0.552087  0  2.312451  0
O  O105  1  0.41630299  0.61849273  0.49385576  1  -1.161949  0  -0.322283  -0.552467  0  2.31205  0
O  O106  1  0.44357703  0.38281875  0.51885855  1  -1.16895  0  -0.321921  -0.558074  0  2.335495  0
O  O107  1  0.55641160  0.61716697  0.48113549  1  -1.168194  0  -0.321969  -0.55804  0  2.335662  0
O  O108  1  0.56839640  0.50380009  0.60123558  1  -1.160178  0  -0.319368  -0.551921  0  2.314488  0
O  O109  1  0.43161132  0.49619783  0.39876257  1  -1.159895  0  -0.319544  -0.552221  0  2.314086  0
O  O110  1  0.42827060  0.50443815  0.60982736  1  -1.162362  0  -0.318633  -0.546257  0  2.326145  0
O  O111  1  0.57174048  0.49554259  0.39016703  1  -1.162539  0  -0.31861  -0.546362  0  2.32652  0
