# generated using pymatgen
data_ZnH20C22(NO2)2
_symmetry_space_group_name_H-M   'P 1'
_cell_length_a   8.97671933
_cell_length_b   9.89452656
_cell_length_c   12.24547122
_cell_angle_alpha   83.08720032
_cell_angle_beta   71.67640217
_cell_angle_gamma   76.80026608
_symmetry_Int_Tables_number   1
_chemical_formula_structural   ZnH20C22(NO2)2
_chemical_formula_sum   'Zn2 H40 C44 N4 O8'
_cell_volume   1003.83175431
_cell_formula_units_Z   2
loop_
 _symmetry_equiv_pos_site_id
 _symmetry_equiv_pos_as_xyz
  1  'x, y, z'
loop_
 _atom_site_type_symbol
 _atom_site_label
 _atom_site_symmetry_multiplicity
 _atom_site_fract_x
 _atom_site_fract_y
 _atom_site_fract_z
 _atom_site_occupancy
 _atom_site_hle17_bader_spin_density
 _atom_site_hle17_ddec_charge
 _atom_site_hle17_ddec_spin_density
 _atom_site_hle17_ddec_sum_bond_order
 _atom_site_hle17_magmom
 _atom_site_hse06_10hf_bader_spin_density
 _atom_site_hse06_10hf_ddec_charge
 _atom_site_hse06_10hf_ddec_spin_density
 _atom_site_hse06_10hf_ddec_sum_bond_order
 _atom_site_hse06_10hf_magmom
 _atom_site_hse06_bader_spin_density
 _atom_site_hse06_ddec_charge
 _atom_site_hse06_ddec_spin_density
 _atom_site_hse06_ddec_sum_bond_order
 _atom_site_hse06_magmom
 _atom_site_pbe_bader_spin_density
 _atom_site_pbe_cm5_charge
 _atom_site_pbe_ddec_charge
 _atom_site_pbe_ddec_spin_density
 _atom_site_pbe_ddec_sum_bond_order
 _atom_site_pbe_magmom
Zn  Zn0  1  0.32865734  0.10902618  0.69503265  1  0  0.972528  0  1.894052  0  0  0.77581  0  2.376687  0  0  0.823258  0  2.322382  0  0  0.689055  0.743306  0  2.413002  0
Zn  Zn1  1  0.67134454  0.89097345  0.30496617  1  0  0.972539  0  1.894036  0  0  0.775807  0  2.376663  0  0  0.823277  0  2.322365  0  0  0.689054  0.743308  0  2.412986  0
H  H2  1  0.57384618  0.71549622  0.94050271  1  0  0.098268  0  0.953335  0  0  0.108739  0  1.014487  0  0  0.112355  0  1.011927  0  0  0.101575  0.105862  0  1.016988  0
H  H3  1  0.42615478  0.28450237  0.05949888  1  0  0.098294  0  0.953331  0  0  0.108765  0  1.014485  0  0  0.112381  0  1.011925  0  0  0.101574  0.10589  0  1.016984  0
H  H4  1  0.69272016  0.45905967  0.95215162  1  0  0.079433  0  0.971061  0  0  0.091129  0  1.032698  0  0  0.093255  0  1.033065  0  0  0.093709  0.089699  0  1.032395  0
H  H5  1  0.30727962  0.54093892  0.04784779  1  0  0.079407  0  0.97105  0  0  0.0911  0  1.032692  0  0  0.093225  0  1.033059  0  0  0.093694  0.08967  0  1.03239  0
H  H6  1  0.72545420  0.31333582  0.79182360  1  0  0.088822  0  0.949609  0  0  0.100998  0  1.009116  0  0  0.104101  0  1.007641  0  0  0.097141  0.098698  0  1.010541  0
H  H7  1  0.27454510  0.68666485  0.20817572  1  0  0.088804  0  0.949595  0  0  0.100977  0  1.00911  0  0  0.104076  0  1.007638  0  0  0.097147  0.098677  0  1.010535  0
H  H8  1  0.52636969  0.67338999  0.60953300  1  0  0.11028  0  0.941777  0  0  0.121625  0  1.001428  0  0  0.124925  0  0.999534  0  0  0.105049  0.119109  0  1.002809  0
H  H9  1  0.47362819  0.32661171  0.39046818  1  0  0.110309  0  0.941754  0  0  0.121659  0  1.001395  0  0  0.12496  0  0.9995  0  0  0.105059  0.119144  0  1.002775  0
H  H10  1  0.74454058  0.30847337  0.58278333  1  0  0.096306  0  0.956227  0  0  0.109611  0  1.020074  0  0  0.111665  0  1.019665  0  0  0.091953  0.107918  0  1.02084  0
H  H11  1  0.25545939  0.69152938  0.41721482  1  0  0.096296  0  0.956202  0  0  0.109599  0  1.020059  0  0  0.111653  0  1.01965  0  0  0.091946  0.107906  0  1.020823  0
H  H12  1  0.64079117  0.45403417  0.51500433  1  0  0.124467  0  0.961494  0  0  0.135657  0  1.02594  0  0  0.138903  0  1.023873  0  0  0.101033  0.133156  0  1.027905  0
H  H13  1  0.35920621  0.54596960  0.48499595  1  0  0.124458  0  0.961489  0  0  0.135656  0  1.025933  0  0  0.138903  0  1.023864  0  0  0.101044  0.133156  0  1.027895  0
H  H14  1  0.32717811  0.94533725  0.51275313  1  0  0.094279  0  0.948456  0  0  0.101386  0  1.012641  0  0  0.104497  0  1.009305  0  0  0.119388  0.098998  0  1.01513  0
H  H15  1  0.67282377  0.05466238  0.48724569  1  0  0.094259  0  0.948491  0  0  0.101373  0  1.012669  0  0  0.104483  0  1.009338  0  0  0.119386  0.098986  0  1.015158  0
H  H16  1  0.21371419  0.97007719  0.35046766  1  0  0.119237  0  0.937141  0  0  0.129931  0  0.994238  0  0  0.133742  0  0.992704  0  0  0.111128  0.127128  0  0.995601  0
H  H17  1  0.78628559  0.02992140  0.64953256  1  0  0.119229  0  0.937138  0  0  0.129928  0  0.994238  0  0  0.133752  0  0.992687  0  0  0.11113  0.127125  0  0.995601  0
H  H18  1  0.97820654  0.38870212  0.45004939  1  0  0.108517  0  0.954227  0  0  0.122771  0  1.009201  0  0  0.125105  0  1.009721  0  0  0.110856  0.12083  0  1.009774  0
H  H19  1  0.02179115  0.61129542  0.54995060  1  0  0.108511  0  0.954249  0  0  0.122776  0  1.009207  0  0  0.125111  0  1.009726  0  0  0.110858  0.120818  0  1.009798  0
H  H20  1  0.10687049  0.34718297  0.60799737  1  0  0.084365  0  0.940174  0  0  0.092591  0  1.005071  0  0  0.09552  0  1.002322  0  0  0.117851  0.090365  0  1.007318  0
H  H21  1  0.89312695  0.65281560  0.39200177  1  0  0.084364  0  0.940172  0  0  0.092588  0  1.005073  0  0  0.095518  0  1.002322  0  0  0.117851  0.090362  0  1.00732  0
H  H22  1  0.09673489  0.14514237  0.21681440  1  0  0.082488  0  0.926071  0  0  0.102965  0  0.980953  0  0  0.10385  0  0.981336  0  0  0.098086  0.102373  0  0.980537  0
H  H23  1  0.90326347  0.85485725  0.78318442  1  0  0.082448  0  0.926093  0  0  0.102941  0  0.980955  0  0  0.103823  0  0.981343  0  0  0.098073  0.102348  0  0.980543  0
H  H24  1  0.91259946  0.12871305  0.31872597  1  0  0.084748  0  0.932021  0  0  0.103717  0  0.993831  0  0  0.104187  0  0.994475  0  0  0.09851  0.103675  0  0.992772  0
H  H25  1  0.08739773  0.87128657  0.68127312  1  0  0.084758  0  0.932069  0  0  0.103729  0  0.993869  0  0  0.1042  0  0.994514  0  0  0.098516  0.103687  0  0.992811  0
H  H26  1  0.01607797  0.40701333  0.23182044  1  0  0.060569  0  0.942965  0  0  0.079852  0  1.004163  0  0  0.080346  0  1.005202  0  0  0.086635  0.079394  0  1.003278  0
H  H27  1  0.98392299  0.59298525  0.76818032  1  0  0.060548  0  0.94304  0  0  0.079862  0  1.004201  0  0  0.080356  0  1.005242  0  0  0.086633  0.079404  0  1.003314  0
H  H28  1  0.83268188  0.38839262  0.33353398  1  0  0.087165  0  0.951045  0  0  0.1056  0  1.010552  0  0  0.107017  0  1.010012  0  0  0.096226  0.104245  0  1.011232  0
H  H29  1  0.16731624  0.61160804  0.66646724  1  0  0.087177  0  0.951012  0  0  0.10561  0  1.010532  0  0  0.107029  0  1.009985  0  0  0.096232  0.104253  0  1.01121  0
H  H30  1  0.75227441  0.27855336  0.19920201  1  0  0.084392  0  0.975549  0  0  0.099901  0  1.038855  0  0  0.100475  0  1.040057  0  0  0.094912  0.099236  0  1.03788  0
H  H31  1  0.24772439  0.72144938  0.80079722  1  0  0.084413  0  0.975537  0  0  0.099905  0  1.038854  0  0  0.100478  0  1.040057  0  0  0.094909  0.09924  0  1.03788  0
H  H32  1  0.78273032  0.44714785  0.15195344  1  0  0.090662  0  0.930307  0  0  0.108392  0  0.992177  0  0  0.108727  0  0.993398  0  0  0.099416  0.107976  0  0.991493  0
H  H33  1  0.21727224  0.55285386  0.84804583  1  0  0.090664  0  0.93033  0  0  0.108389  0  0.992195  0  0  0.108725  0  0.993418  0  0  0.099415  0.107972  0  0.991514  0
H  H34  1  0.79217857  0.17557823  0.01916794  1  0  0.124396  0  0.941496  0  0  0.134852  0  0.997712  0  0  0.137873  0  0.99768  0  0  0.112786  0.132719  0  0.997832  0
H  H35  1  0.20782307  0.82442243  0.98083084  1  0  0.124415  0  0.941432  0  0  0.134863  0  0.997651  0  0  0.137885  0  0.997617  0  0  0.112799  0.13273  0  0.997771  0
H  H36  1  0.98294509  0.09375590  0.83144077  1  0  0.074152  0  0.931094  0  0  0.085365  0  0.991536  0  0  0.087846  0  0.989494  0  0  0.118698  0.083638  0  0.992832  0
H  H37  1  0.01705537  0.90624476  0.16855828  1  0  0.074155  0  0.931113  0  0  0.085368  0  0.991555  0  0  0.08785  0  0.989514  0  0  0.118702  0.083641  0  0.99285  0
H  H38  1  0.33128457  0.28163213  0.86757206  1  0  0.086831  0  0.92823  0  0  0.096752  0  0.987802  0  0  0.098979  0  0.985886  0  0  0.124684  0.095109  0  0.98921  0
H  H39  1  0.66871706  0.71836854  0.13242672  1  0  0.086759  0  0.928275  0  0  0.096685  0  0.987857  0  0  0.098912  0  0.985942  0  0  0.12463  0.095042  0  0.989267  0
H  H40  1  0.15231592  0.37805610  0.05369653  1  0  0.103372  0  0.984286  0  0  0.112942  0  1.048665  0  0  0.115345  0  1.04938  0  0  0.10601  0.11128  0  1.048035  0
H  H41  1  0.84768454  0.62194457  0.94630333  1  0  0.103386  0  0.984263  0  0  0.112952  0  1.048645  0  0  0.115356  0  1.049358  0  0  0.106016  0.111277  0  1.048029  0
C  C42  1  0.46698322  0.86031688  0.77250536  1  0  0.616599  0  3.950687  0  0  0.569579  0  4.244406  0  0  0.602381  0  4.238649  0  0  0.189389  0.54747  0  4.247444  0
C  C43  1  0.53301633  0.13968273  0.22749726  1  0  0.616625  0  3.950678  0  0  0.569596  0  4.244417  0  0  0.602399  0  4.238658  0  0  0.18939  0.547486  0  4.247453  0
C  C44  1  0.54517729  0.70881133  0.77418693  1  0  -0.06595  0  3.784675  0  0  -0.039902  0  4.01707  0  0  -0.04736  0  4.040787  0  0  -0.023057  -0.03464  0  4.000093  0
C  C45  1  0.45482157  0.29118620  0.22581606  1  0  -0.065895  0  3.784638  0  0  -0.039832  0  4.017004  0  0  -0.04729  0  4.040719  0  0  -0.023038  -0.034569  0  4.000025  0
C  C46  1  0.59219744  0.64878792  0.87079461  1  0  -0.090057  0  3.75817  0  0  -0.115904  0  4.007299  0  0  -0.116122  0  4.027305  0  0  -0.093333  -0.117156  0  3.994291  0
C  C47  1  0.40780352  0.35121066  0.12920779  1  0  -0.090151  0  3.758114  0  0  -0.116005  0  4.007243  0  0  -0.116222  0  4.027248  0  0  -0.093367  -0.11726  0  3.994237  0
C  C48  1  0.65832251  0.50702090  0.87635371  1  0  -0.087549  0  3.832874  0  0  -0.098585  0  4.087735  0  0  -0.101151  0  4.109948  0  0  -0.102323  -0.096476  0  4.073119  0
C  C49  1  0.34167752  0.49297664  0.12364737  1  0  -0.087527  0  3.832818  0  0  -0.098555  0  4.087676  0  0  -0.10112  0  4.109887  0  0  -0.102284  -0.096447  0  4.073063  0
C  C50  1  0.67666161  0.42481341  0.78622763  1  0  -0.127243  0  3.744611  0  0  -0.148869  0  3.990337  0  0  -0.150937  0  4.011501  0  0  -0.096771  -0.148165  0  3.976849  0
C  C51  1  0.32333935  0.57518518  0.21377314  1  0  -0.127168  0  3.744523  0  0  -0.148793  0  3.99026  0  0  -0.150857  0  4.011423  0  0  -0.096765  -0.148089  0  3.976772  0
C  C52  1  0.62924923  0.48327883  0.68910228  1  0  0.11601  0  3.755638  0  0  0.140143  0  3.991184  0  0  0.139486  0  4.016462  0  0  -0.010829  0.140574  0  3.9736  0
C  C53  1  0.37075105  0.51671767  0.31089966  1  0  0.116063  0  3.755608  0  0  0.140202  0  3.991148  0  0  0.139546  0  4.016426  0  0  -0.010775  0.140633  0  3.973565  0
C  C54  1  0.56447475  0.62572642  0.68388875  1  0  -0.11289  0  3.682142  0  0  -0.147425  0  3.930537  0  0  -0.147416  0  3.950241  0  0  -0.084341  -0.145563  0  3.915475  0
C  C55  1  0.43552645  0.37427112  0.31611206  1  0  -0.113011  0  3.682247  0  0  -0.147553  0  3.930638  0  0  -0.147545  0  3.950342  0  0  -0.084401  -0.14569  0  3.915574  0
C  C56  1  0.63787841  0.39220111  0.59633712  1  0  -0.318423  0  3.698047  0  0  -0.36104  0  3.935391  0  0  -0.366959  0  3.942285  0  0  -0.170034  -0.35704  0  3.931283  0
C  C57  1  0.36212205  0.60779956  0.40366193  1  0  -0.318394  0  3.698019  0  0  -0.361033  0  3.935377  0  0  -0.366952  0  3.942273  0  0  -0.170035  -0.357033  0  3.931267  0
C  C58  1  0.49005873  0.32629496  0.63177389  1  0  0.685398  0  3.868873  0  0  0.642685  0  4.166274  0  0  0.675078  0  4.160058  0  0  0.201591  0.620791  0  4.1694  0
C  C59  1  0.50994032  0.67370674  0.36822784  1  0  0.685342  0  3.868872  0  0  0.64262  0  4.166286  0  0  0.675013  0  4.160069  0  0  0.201545  0.620726  0  4.169412  0
C  C60  1  0.24691865  0.04110906  0.49708033  1  0  0.142745  0  3.688326  0  0  0.108403  0  3.944192  0  0  0.116955  0  3.961123  0  0  0.048199  0.102812  0  3.932753  0
C  C61  1  0.75307971  0.95889056  0.50291848  1  0  0.142788  0  3.688281  0  0  0.108434  0  3.944164  0  0  0.116986  0  3.9611  0  0  0.048216  0.102843  0  3.932726  0
C  C62  1  0.18107709  0.05599361  0.40697675  1  0  -0.162786  0  3.691556  0  0  -0.18316  0  3.944141  0  0  -0.192377  0  3.966207  0  0  -0.081755  -0.177411  0  3.929549  0
C  C63  1  0.81892152  0.94400497  0.59302375  1  0  -0.162749  0  3.691425  0  0  -0.183127  0  3.944019  0  0  -0.192357  0  3.966084  0  0  -0.081742  -0.177378  0  3.929428  0
C  C64  1  0.07952197  0.18086349  0.38784985  1  0  0.167396  0  3.697842  0  0  0.181805  0  3.93732  0  0  0.1876  0  3.960226  0  0  0.020698  0.178279  0  3.921348  0
C  C65  1  0.92047898  0.81913509  0.61214928  1  0  0.167455  0  3.69772  0  0  0.181859  0  3.937209  0  0  0.187654  0  3.960117  0  0  0.020702  0.178335  0  3.921233  0
C  C66  1  0.05263963  0.28772364  0.46154954  1  0  -0.179032  0  3.714206  0  0  -0.196166  0  3.959611  0  0  -0.205469  0  3.983078  0  0  -0.085497  -0.189769  0  3.943993  0
C  C67  1  0.94736133  0.71227495  0.53844959  1  0  -0.179035  0  3.714108  0  0  -0.19617  0  3.959511  0  0  -0.205472  0  3.982976  0  0  -0.085485  -0.18976  0  3.943899  0
C  C68  1  0.12264305  0.26582333  0.55028626  1  0  0.129598  0  3.720608  0  0  0.095993  0  3.975625  0  0  0.103556  0  3.994129  0  0  0.046003  0.091028  0  3.963469  0
C  C69  1  0.87735532  0.73417628  0.44971337  1  0  0.129571  0  3.720559  0  0  0.095961  0  3.975585  0  0  0.103527  0  3.994091  0  0  0.045978  0.090997  0  3.963426  0
C  C70  1  0.00436956  0.19380960  0.29227527  1  0  -0.164185  0  3.707586  0  0  -0.206962  0  3.957811  0  0  -0.20874  0  3.970661  0  0  -0.157657  -0.205461  0  3.947916  0
C  C71  1  0.99562998  0.80619002  0.70772409  1  0  -0.164175  0  3.707642  0  0  -0.206968  0  3.95789  0  0  -0.208747  0  3.970746  0  0  -0.157645  -0.205466  0  3.947994  0
C  C72  1  0.92662150  0.34022522  0.25926471  1  0  -0.096194  0  3.675103  0  0  -0.137557  0  3.933234  0  0  -0.137732  0  3.945179  0  0  -0.166063  -0.137318  0  3.9248  0
C  C73  1  0.07337780  0.65977544  0.74073542  1  0  -0.096181  0  3.675143  0  0  -0.137573  0  3.933291  0  0  -0.137746  0  3.945232  0  0  -0.16606  -0.13733  0  3.924855  0
C  C74  1  0.84577935  0.34015030  0.16623085  1  0  -0.167198  0  3.691578  0  0  -0.208982  0  3.939794  0  0  -0.210692  0  3.95216  0  0  -0.1595  -0.207384  0  3.931158  0
C  C75  1  0.15422111  0.65985036  0.83376819  1  0  -0.167227  0  3.691559  0  0  -0.208981  0  3.939744  0  0  -0.210693  0  3.952114  0  0  -0.159507  -0.207385  0  3.931112  0
C  C76  1  0.95534498  0.28667927  0.05275576  1  0  0.164735  0  3.703946  0  0  0.178085  0  3.944263  0  0  0.184311  0  3.965621  0  0  0.018624  0.173719  0  3.929381  0
C  C77  1  0.04465548  0.71332140  0.94724411  1  0  0.164796  0  3.703943  0  0  0.178141  0  3.94424  0  0  0.184366  0  3.965598  0  0  0.018652  0.173776  0  3.929357  0
C  C78  1  0.90928440  0.20469997  0.98802572  1  0  -0.178393  0  3.694142  0  0  -0.194005  0  3.939741  0  0  -0.203178  0  3.962132  0  0  -0.081828  -0.187881  0  3.924725  0
C  C79  1  0.09071606  0.79530070  0.01197333  1  0  -0.178454  0  3.694075  0  0  -0.194044  0  3.939666  0  0  -0.203216  0  3.962055  0  0  -0.081844  -0.18792  0  3.924652  0
C  C80  1  0.01547866  0.15758810  0.88363009  1  0  0.12929  0  3.729303  0  0  0.096719  0  3.982032  0  0  0.104189  0  4.000921  0  0  0.048593  0.092073  0  3.969366  0
C  C81  1  0.98452205  0.84241152  0.11636900  1  0  0.129276  0  3.729279  0  0  0.096693  0  3.982  0  0  0.104163  0  4.000889  0  0  0.048539  0.092049  0  3.969334  0
C  C82  1  0.20952674  0.26348179  0.90336410  1  0  0.153304  0  3.68809  0  0  0.121231  0  3.936267  0  0  0.129831  0  3.952519  0  0  0.058251  0.115418  0  3.925926  0
C  C83  1  0.79047373  0.73651887  0.09663495  1  0  0.153447  0  3.688038  0  0  0.121346  0  3.936238  0  0  0.129948  0  3.952489  0  0  0.058345  0.115534  0  3.925897  0
C  C84  1  0.10910565  0.31628543  0.00696354  1  0  -0.173303  0  3.700882  0  0  -0.189087  0  3.944165  0  0  -0.198059  0  3.96647  0  0  -0.083076  -0.183392  0  3.929468  0
C  C85  1  0.89089481  0.68371523  0.99303633  1  0  -0.17336  0  3.700868  0  0  -0.189141  0  3.944166  0  0  -0.198114  0  3.966472  0  0  -0.083089  -0.183435  0  3.929476  0
N  N86  1  0.21716577  0.14388366  0.56892010  1  0  -0.346776  0  3.322041  0  0  -0.262728  0  3.605882  0  0  -0.282928  0  3.620237  0  0  -0.337991  -0.249145  0  3.596407  0
N  N87  1  0.78283260  0.85611596  0.43107953  1  0  -0.346827  0  3.322075  0  0  -0.262768  0  3.605916  0  0  -0.282982  0  3.620288  0  0  -0.338018  -0.249186  0  3.596443  0
N  N88  1  0.16366793  0.18547339  0.84175622  1  0  -0.33291  0  3.340028  0  0  -0.249535  0  3.62226  0  0  -0.268653  0  3.635063  0  0  -0.333656  -0.237148  0  3.613677  0
N  N89  1  0.83633136  0.81452727  0.15824392  1  0  -0.332943  0  3.339998  0  0  -0.249542  0  3.622227  0  0  -0.268666  0  3.635038  0  0  -0.333653  -0.237157  0  3.613649  0
O  O90  1  0.45787634  0.93445378  0.85089407  1  0  -0.604122  0  1.870221  0  0  -0.561147  0  2.076156  0  0  -0.581928  0  2.067277  0  0  -0.334946  -0.546778  0  2.081424  0
O  O91  1  0.54212530  0.06554689  0.14910716  1  0  -0.604153  0  1.870168  0  0  -0.561176  0  2.076117  0  0  -0.581958  0  2.067236  0  0  -0.334972  -0.546806  0  2.081385  0
O  O92  1  0.40716382  0.90518778  0.68707506  1  0  -0.665185  0  2.02663  0  0  -0.591409  0  2.299541  0  0  -0.620419  0  2.285663  0  0  -0.346668  -0.571347  0  2.30782  0
O  O93  1  0.59283406  0.09481392  0.31292857  1  0  -0.66519  0  2.026592  0  0  -0.591422  0  2.299514  0  0  -0.620435  0  2.285638  0  0  -0.346665  -0.571369  0  2.307812  0
O  O94  1  0.35409594  0.39877830  0.63834242  1  0  -0.632001  0  1.929362  0  0  -0.585273  0  2.159103  0  0  -0.608893  0  2.152187  0  0  -0.322238  -0.56822  0  2.163501  0
O  O95  1  0.64590478  0.60122132  0.36165912  1  0  -0.632012  0  1.929428  0  0  -0.585261  0  2.159125  0  0  -0.608884  0  2.152214  0  0  -0.322225  -0.568206  0  2.163524  0
O  O96  1  0.51863132  0.19315658  0.65569772  1  0  -0.656154  0  2.047875  0  0  -0.5775  0  2.319135  0  0  -0.606352  0  2.304363  0  0  -0.334492  -0.556588  0  2.327507  0
O  O97  1  0.48137149  0.80684409  0.34430242  1  0  -0.656109  0  2.047896  0  0  -0.577436  0  2.319128  0  0  -0.606294  0  2.304358  0  0  -0.334459  -0.556526  0  2.327501  0
