# generated using pymatgen
data_VCuP2H24C25N3O8
_symmetry_space_group_name_H-M   'P 1'
_cell_length_a   8.97712035
_cell_length_b   11.02754739
_cell_length_c   13.61207020
_cell_angle_alpha   74.90100101
_cell_angle_beta   82.00679558
_cell_angle_gamma   81.34517608
_symmetry_Int_Tables_number   1
_chemical_formula_structural   VCuP2H24C25N3O8
_chemical_formula_sum   'V2 Cu2 P4 H48 C50 N6 O16'
_cell_volume   1279.14157078
_cell_formula_units_Z   2
loop_
 _symmetry_equiv_pos_site_id
 _symmetry_equiv_pos_as_xyz
  1  'x, y, z'
loop_
 _atom_site_type_symbol
 _atom_site_label
 _atom_site_symmetry_multiplicity
 _atom_site_fract_x
 _atom_site_fract_y
 _atom_site_fract_z
 _atom_site_occupancy
 _atom_site_hle17_ddec_charge
 _atom_site_hle17_ddec_spin_density
 _atom_site_hle17_ddec_sum_bond_order
 _atom_site_hle17_magmom
 _atom_site_hse06_10hf_ddec_charge
 _atom_site_hse06_10hf_ddec_spin_density
 _atom_site_hse06_10hf_ddec_sum_bond_order
 _atom_site_hse06_10hf_magmom
 _atom_site_hse06_ddec_charge
 _atom_site_hse06_ddec_spin_density
 _atom_site_hse06_ddec_sum_bond_order
 _atom_site_hse06_magmom
 _atom_site_pbe_cm5_charge
 _atom_site_pbe_ddec_charge
 _atom_site_pbe_ddec_spin_density
 _atom_site_pbe_ddec_sum_bond_order
 _atom_site_pbe_magmom
V  V0  1  0.98933611  0.95708353  0.78594334  1  1.913022  -0.003323  3.002715  -0.003  1.952026  -0.001936  3.419161  -0.002  2.040082  -0.001763  3.396429  -0.002  1.464752  1.878602  -0.002027  3.461171  -0.002
V  V1  1  0.01065184  0.04292003  0.21405971  1  1.913056  -0.003309  3.002975  -0.003  1.952126  -0.001944  3.419356  -0.002  2.040169  -0.001746  3.396632  -0.002  1.464743  1.878747  -0.002018  3.461325  -0.002
Cu  Cu2  1  0.63113893  0.78478613  0.83608809  1  0.885375  0.715478  1.870877  0.534  0.849001  0.785162  2.2659  0.634  0.926467  0.845383  2.204292  0.711  0.795874  0.803093  0.74263  2.307727  0.582
Cu  Cu3  1  0.36884970  0.21520617  0.16392544  1  0.885532  0.715498  1.870545  0.534  0.848964  0.785208  2.265875  0.634  0.926634  0.845432  2.204133  0.711  0.795898  0.803052  0.74257  2.307684  0.582
P  P4  1  0.29535256  0.79517368  0.72035707  1  1.512958  -0.000193  4.734124  0.0  1.373858  -0.000148  5.231311  0.0  1.426167  -0.000162  5.188681  0.0  0.357318  1.337628  -0.000128  5.259047  0.0
P  P5  1  0.70464157  0.20482608  0.27963962  1  1.513213  -0.000198  4.734107  0.0  1.374114  -0.000161  5.231271  0.0  1.42643  -0.000166  5.188641  0.0  0.357385  1.337892  -0.000124  5.259005  0.0
P  P6  1  0.16205864  0.11899690  0.37514203  1  1.480415  0.002916  4.820229  0.001  1.337845  0.003917  5.329068  0.003  1.391062  0.00282  5.289653  0.003  0.341652  1.301463  0.004925  5.353279  0.003
P  P7  1  0.83796041  0.88100869  0.62484369  1  1.480565  0.002916  4.81999  0.001  1.337978  0.003924  5.328858  0.003  1.391196  0.002825  5.289423  0.003  0.341717  1.301579  0.004935  5.353074  0.003
H  H8  1  0.55594665  0.06392245  0.71358529  1  0.078922  0.001348  0.95679  0.002  0.085428  0.0011  1.023382  0.002  0.087071  0.000728  1.021293  0.001  0.118911  0.084014  0.001407  1.025043  0.002
H  H9  1  0.44405118  0.93607554  0.28641952  1  0.078896  0.001349  0.956683  0.002  0.085417  0.001101  1.023297  0.002  0.087057  0.000728  1.021214  0.001  0.118937  0.084007  0.001408  1.024957  0.002
H  H10  1  0.34381286  0.23637005  0.73210330  1  0.102008  0.000522  0.948432  0.001  0.11388  0.0005  1.004948  0.0  0.116291  0.000352  1.005381  0.0  0.11034  0.11192  0.000577  1.005073  0.001
H  H11  1  0.65618578  0.76362981  0.26789809  1  0.101977  0.000523  0.948422  0.001  0.113871  0.0005  1.004926  0.0  0.116282  0.000352  1.005361  0.0  0.110328  0.111913  0.000577  1.005047  0.001
H  H12  1  0.16260574  0.20175402  0.89339678  1  0.098957  0.000165  0.937802  0.0  0.113931  -1.3e-05  0.990895  0.0  0.116116  -3.7e-05  0.988924  0.0  0.113465  0.112292  3.2e-05  0.992381  0.0
H  H13  1  0.83739500  0.79824680  0.10660347  1  0.098953  0.000165  0.937757  0.0  0.113934  -1.2e-05  0.990854  0.0  0.11612  -3.6e-05  0.988881  0.0  0.113477  0.112299  3e-05  0.992335  0.0
H  H14  1  0.20153671  0.00257541  0.02804611  1  0.123198  0.000814  0.979348  0.001  0.130526  0.000628  1.044719  0.001  0.133808  0.000429  1.043248  0.001  0.112579  0.12841  0.000791  1.045471  0.001
H  H15  1  0.79846739  0.99742542  0.97195234  1  0.12324  0.000817  0.97927  0.001  0.130494  0.000628  1.044712  0.001  0.133773  0.000429  1.043246  0.001  0.112567  0.128385  0.000789  1.045464  0.001
H  H16  1  0.26615141  0.82272927  0.13955487  1  0.129615  0.000873  0.985361  0.001  0.139698  0.000669  1.045908  0.001  0.143405  0.000468  1.043617  0.001  0.110424  0.137157  0.000833  1.047283  0.001
H  H17  1  0.73385314  0.17726872  0.86044490  1  0.12968  0.000872  0.985321  0.001  0.139798  0.000669  1.045826  0.001  0.143481  0.000468  1.043564  0.001  0.110459  0.137254  0.000833  1.047207  0.001
H  H18  1  0.58383400  0.47922298  0.17503906  1  0.136073  0.000913  0.981283  0.001  0.144024  0.000678  1.041283  0.001  0.147601  0.000481  1.039284  0.001  0.113984  0.141217  0.000843  1.043098  0.001
H  H19  1  0.41616488  0.52078258  0.82496253  1  0.136136  0.000914  0.981237  0.001  0.144088  0.000678  1.041228  0.001  0.147666  0.000481  1.039229  0.001  0.113977  0.141282  0.000842  1.04304  0.001
H  H20  1  0.77655275  0.38648628  0.09689437  1  0.127892  0.000877  0.974123  0.001  0.135332  0.000668  1.035073  0.001  0.138685  0.000467  1.033186  0.001  0.114544  0.132888  0.000853  1.03652  0.001
H  H21  1  0.22345121  0.61351550  0.90310389  1  0.127971  0.000878  0.974222  0.001  0.135426  0.000668  1.035136  0.001  0.138778  0.000468  1.033254  0.001  0.1146  0.132988  0.000852  1.036577  0.001
H  H22  1  0.97803024  0.28801725  0.98795995  1  0.112471  0.000207  0.949895  0.0  0.127297  -1.5e-05  1.00301  0.0  0.130142  -2.8e-05  1.000385  0.0  0.110024  0.125253  2.1e-05  1.004892  0.0
H  H23  1  0.02197370  0.71198448  0.01203465  1  0.112495  0.000209  0.949873  0.0  0.127275  -1.4e-05  1.003043  0.0  0.130119  -2.7e-05  1.000419  0.0  0.110023  0.125233  2.1e-05  1.004921  0.0
H  H24  1  0.02947026  0.40233469  0.80062403  1  0.105348  0.000598  0.949527  0.001  0.118794  0.000534  1.004395  0.001  0.120887  0.000379  1.004999  0.0  0.112018  0.117295  0.000631  1.004198  0.001
H  H25  1  0.97053423  0.59767090  0.19937482  1  0.10536  0.000597  0.949598  0.001  0.118808  0.000533  1.004461  0.001  0.120895  0.000379  1.005066  0.0  0.112006  0.11731  0.000632  1.00426  0.001
H  H26  1  0.88070037  0.61318381  0.73630176  1  0.096319  0.001647  0.963621  0.003  0.10093  0.001279  1.02904  0.002  0.102769  0.000865  1.027263  0.001  0.123808  0.099284  0.00163  1.030754  0.002
H  H27  1  0.11929156  0.38681606  0.26370687  1  0.096173  0.00165  0.963472  0.003  0.100758  0.001281  1.028951  0.002  0.102598  0.000866  1.027174  0.001  0.123756  0.099113  0.001631  1.030669  0.002
H  H28  1  0.20588813  0.77729759  0.28892840  1  0.09478  9.7e-05  0.991995  0.0  0.10322  6.1e-05  1.059618  0.0  0.106363  4.3e-05  1.057202  0.0  0.099188  0.10107  7.5e-05  1.061157  0.0
H  H29  1  0.79411110  0.22269845  0.71107082  1  0.094742  9.6e-05  0.991983  0.0  0.103208  6.1e-05  1.059577  0.0  0.106357  4.3e-05  1.057149  0.0  0.09921  0.101054  7.3e-05  1.061129  0.0
H  H30  1  0.09922110  0.70117843  0.46643136  1  0.111787  -4.2e-05  0.955692  0.0  0.122209  -6e-06  1.013533  0.0  0.125499  -5e-06  1.011969  0.0  0.103288  0.119871  -7e-06  1.014578  0.0
H  H31  1  0.90077657  0.29882046  0.53356959  1  0.111814  -3.9e-05  0.955675  0.0  0.122234  -6e-06  1.013517  0.0  0.125525  -5e-06  1.011951  0.0  0.103286  0.119894  -9e-06  1.014567  0.0
H  H32  1  0.37251196  0.34285828  0.48436096  1  0.083939  -3.4e-05  0.959433  0.0  0.098373  6e-06  1.015001  0.0  0.100931  6e-06  1.014263  0.0  0.096368  0.096412  7e-06  1.015792  0.0
H  H33  1  0.62748571  0.65714061  0.51563999  1  0.083962  -3.2e-05  0.959459  0.0  0.098406  7e-06  1.015013  0.0  0.100965  6e-06  1.014274  0.0  0.096373  0.096446  5e-06  1.015807  0.0
H  H34  1  0.47694860  0.41441508  0.30543449  1  0.093868  7.1e-05  0.996471  0.0  0.103718  2e-05  1.061281  0.0  0.106429  6e-06  1.059642  0.0  0.101671  0.101724  3.4e-05  1.062412  0.0
H  H35  1  0.52304975  0.58558667  0.69456650  1  0.093856  6.9e-05  0.996455  0.0  0.103707  2e-05  1.061278  0.0  0.106415  6e-06  1.059638  0.0  0.101667  0.101713  3.2e-05  1.062411  0.0
H  H36  1  0.14634840  0.37139199  0.61511804  1  0.101557  -3.9e-05  0.948691  0.0  0.121962  7e-06  1.012598  0.0  0.123115  -4e-06  1.012323  0.0  0.089575  0.121407  -1e-06  1.012237  0.0
H  H37  1  0.85364786  0.62860880  0.38488410  1  0.101523  -3.8e-05  0.94867  0.0  0.121938  8e-06  1.012572  0.0  0.123092  -5e-06  1.012295  0.0  0.08956  0.121383  -0.0  1.012211  0.0
H  H38  1  0.05873742  0.52768978  0.61489649  1  0.120583  1e-06  0.951628  0.0  0.143233  2.3e-05  1.009614  0.0  0.144391  1.4e-05  1.010261  0.0  0.095936  0.142423  2.8e-05  1.009109  0.0
H  H39  1  0.94126078  0.47231291  0.38510432  1  0.120581  -0.0  0.95165  0.0  0.143246  2.3e-05  1.009619  0.0  0.144403  1.4e-05  1.010264  0.0  0.095947  0.142435  2.9e-05  1.009111  0.0
H  H40  1  0.24506833  0.48025836  0.65011171  1  0.113176  -0.00016  0.944908  0.0  0.133914  -5.7e-05  1.00911  0.0  0.134921  -6.7e-05  1.009189  0.0  0.091037  0.133799  -6.4e-05  1.008057  0.0
H  H41  1  0.75493002  0.51974338  0.34988855  1  0.113165  -0.000161  0.944957  0.0  0.1339  -5.7e-05  1.009167  0.0  0.134907  -6.8e-05  1.009248  0.0  0.091044  0.133787  -6.7e-05  1.008114  0.0
H  H42  1  0.39274681  0.91515002  0.43644944  1  0.047038  0.000112  0.954625  0.0  0.068146  6.8e-05  1.015596  0.0  0.06857  3.5e-05  1.015429  0.0  0.08807  0.067865  0.000109  1.015842  0.0
H  H43  1  0.60725616  0.08485079  0.56354839  1  0.047042  0.000112  0.954564  0.0  0.068183  6.8e-05  1.015508  0.0  0.068606  3.5e-05  1.015335  0.0  0.088069  0.067901  0.000109  1.015756  0.0
H  H44  1  0.23510641  0.83989792  0.49974573  1  0.071921  1e-05  0.948359  0.0  0.089412  -6e-06  1.010549  0.0  0.090198  -5e-06  1.011329  0.0  0.09596  0.088978  -3e-06  1.009901  0.0
H  H45  1  0.76489432  0.16010287  0.50025231  1  0.071962  1.1e-05  0.948373  0.0  0.089405  -6e-06  1.010612  0.0  0.090187  -5e-06  1.011395  0.0  0.095953  0.088969  -3e-06  1.009967  0.0
H  H46  1  0.28061416  0.10140977  0.52282764  1  0.12235  -0.000353  0.925573  0.0  0.141802  -6.3e-05  0.974496  0.0  0.14369  -5.1e-05  0.974827  0.0  0.106618  0.140411  -7.2e-05  0.974404  0.0
H  H47  1  0.71939093  0.89859204  0.47717272  1  0.122376  -0.000351  0.925599  0.0  0.141814  -6.3e-05  0.974537  0.0  0.143704  -5.1e-05  0.974866  0.0  0.106623  0.140425  -7.1e-05  0.974439  0.0
H  H48  1  0.11210413  0.02900993  0.55317363  1  0.134685  0.000963  0.967809  0.001  0.144473  0.00072  1.029938  0.001  0.147012  0.000479  1.029368  0.001  0.10633  0.142695  0.000956  1.030166  0.001
H  H49  1  0.88789870  0.97099183  0.44682401  1  0.134671  0.000966  0.967784  0.001  0.144459  0.000721  1.029921  0.001  0.146998  0.000479  1.029351  0.001  0.106327  0.142685  0.000954  1.030151  0.001
H  H50  1  0.46259224  0.92840193  0.60938910  1  0.131241  -3.8e-05  0.958458  0.0  0.144747  -3.4e-05  1.017426  0.0  0.146883  -3.7e-05  1.017915  0.0  0.104109  0.143249  -2.8e-05  1.017009  0.0
H  H51  1  0.53741329  0.07159703  0.39061037  1  0.131269  -3.8e-05  0.958489  0.0  0.144771  -3.4e-05  1.01744  0.0  0.146907  -3.6e-05  1.017932  0.0  0.104124  0.143275  -2.7e-05  1.017018  0.0
H  H52  1  0.48272321  0.77813298  0.58637292  1  0.125456  2.1e-05  0.964292  0.0  0.140815  7e-06  1.020825  0.0  0.142842  6e-06  1.021016  0.0  0.106791  0.139313  2e-05  1.020818  0.0
H  H53  1  0.51727879  0.22186688  0.41362521  1  0.125408  2e-05  0.964231  0.0  0.140757  7e-06  1.020785  0.0  0.142787  6e-06  1.020975  0.0  0.106772  0.139254  1.5e-05  1.020786  0.0
H  H54  1  0.09391929  0.73558348  0.66695902  1  0.442845  -3.2e-05  0.870124  0.0  0.404428  -1.2e-05  0.946023  0.0  0.416316  -1.4e-05  0.929327  0.0  0.301364  0.396044  -3e-06  0.957724  0.0
H  H55  1  0.90607822  0.26441634  0.33304028  1  0.44279  -3.2e-05  0.870182  0.0  0.404354  -1.2e-05  0.946111  0.0  0.41624  -1.5e-05  0.929417  0.0  0.301365  0.395971  -7e-06  0.95781  0.0
C  C56  1  0.47394110  0.05474073  0.78133763  1  0.145597  -0.009859  3.692363  -0.007  0.115975  -0.00233  3.955889  -0.002  0.125303  -0.003714  3.974205  -0.003  0.057032  0.10981  -0.001224  3.943816  -0.001
C  C57  1  0.52606256  0.94526294  0.21866025  1  0.145658  -0.009851  3.69244  -0.007  0.115999  -0.002341  3.956053  -0.002  0.12533  -0.003713  3.97439  -0.003  0.057076  0.109847  -0.001269  3.943977  -0.001
C  C58  1  0.35601949  0.14965515  0.79249745  1  -0.113909  0.007705  3.715657  0.009  -0.128926  0.003416  3.969373  0.004  -0.136141  0.00283  3.989734  0.004  -0.077416  -0.124197  0.003951  3.955953  0.005
C  C59  1  0.64397787  0.85034563  0.20750239  1  -0.113958  0.007696  3.71573  0.009  -0.128994  0.003422  3.969514  0.004  -0.136211  0.002826  3.989874  0.004  -0.077451  -0.124259  0.003948  3.956086  0.005
C  C60  1  0.25691156  0.13077224  0.88188201  1  0.033185  -0.008886  3.679978  -0.006  0.010938  -0.002911  3.93336  -0.002  0.016975  -0.003333  3.948564  -0.002  -0.054303  0.00716  -0.00263  3.922773  -0.001
C  C61  1  0.74308919  0.86922859  0.11811970  1  0.033188  -0.008874  3.679941  -0.006  0.01092  -0.002917  3.933359  -0.002  0.016957  -0.00333  3.948561  -0.002  -0.054318  0.007142  -0.002621  3.922762  -0.001
C  C62  1  0.27832166  0.01876873  0.95770535  1  -0.118963  0.003914  3.638159  0.004  -0.138365  0.001592  3.882888  0.002  -0.145334  0.001399  3.901893  0.001  -0.065946  -0.134172  0.001822  3.870162  0.002
C  C63  1  0.72168386  0.98123019  0.04229118  1  -0.118945  0.003905  3.638163  0.004  -0.138251  0.00159  3.882835  0.002  -0.145219  0.001397  3.901835  0.001  -0.065866  -0.134052  0.001805  3.870102  0.002
C  C64  1  0.39834988  0.92791485  0.94110689  1  0.178021  -0.002222  3.729098  0.0  0.176254  0.001108  3.971714  0.002  0.183838  -0.000211  3.991962  0.001  0.123102  0.171517  0.002063  3.958261  0.003
C  C65  1  0.60165429  0.07207842  0.05889541  1  0.178037  -0.002217  3.729141  0.0  0.176293  0.001116  3.971661  0.002  0.183888  -0.00021  3.991913  0.001  0.123088  0.171558  0.00207  3.958199  0.003
C  C66  1  0.43531426  0.80580540  0.01433967  1  0.200725  -0.007267  3.760424  -0.005  0.195738  -0.001345  4.008099  -0.001  0.205714  -0.002864  4.02745  -0.002  0.124899  0.188795  -0.000278  3.99591  0.0
C  C67  1  0.56468304  0.19420292  0.98565558  1  0.200608  -0.00724  3.76045  -0.005  0.195699  -0.001332  4.008032  -0.001  0.205678  -0.002868  4.027387  -0.002  0.124884  0.188758  -0.000284  3.995833  0.0
C  C68  1  0.36438831  0.76430297  0.11272549  1  -0.178499  0.007233  3.6227  0.008  -0.202175  0.003313  3.863566  0.004  -0.210488  0.00293  3.883012  0.003  -0.073249  -0.197116  0.003641  3.851386  0.004
C  C69  1  0.63561638  0.23569406  0.88727227  1  -0.178458  0.00721  3.622712  0.008  -0.202256  0.003302  3.863588  0.004  -0.210551  0.002934  3.883053  0.003  -0.073225  -0.197192  0.003649  3.851392  0.004
C  C70  1  0.41930061  0.64699772  0.17552564  1  0.120701  -0.010983  3.733787  -0.007  0.130412  -0.004465  3.970985  -0.003  0.137856  -0.004893  3.991605  -0.003  0.017088  0.124912  -0.004202  3.957621  -0.002
C  C71  1  0.58069915  0.35300215  0.82447563  1  0.120661  -0.010944  3.733811  -0.007  0.130455  -0.004455  3.970954  -0.003  0.137901  -0.004894  3.991564  -0.003  0.017079  0.12496  -0.0042  3.957572  -0.002
C  C72  1  0.54065518  0.57317568  0.13275104  1  -0.172277  0.00738  3.600822  0.008  -0.199714  0.003342  3.848033  0.004  -0.207297  0.002949  3.86598  0.003  -0.072614  -0.194337  0.003697  3.835912  0.004
C  C73  1  0.45934526  0.42682702  0.86724809  1  -0.172331  0.007355  3.600957  0.008  -0.199818  0.003343  3.848159  0.004  -0.207404  0.002951  3.866106  0.003  -0.07259  -0.194433  0.0037  3.836025  0.004
C  C74  1  0.60323715  0.61823341  0.03259647  1  0.198661  -0.007613  3.773027  -0.005  0.193684  -0.001798  4.023332  -0.001  0.204193  -0.003328  4.041775  -0.003  0.124181  0.186517  -0.000631  4.010563  0.0
C  C75  1  0.39677082  0.38175703  0.96740315  1  0.198751  -0.007587  3.772761  -0.005  0.193824  -0.001799  4.023022  -0.001  0.204333  -0.003329  4.041481  -0.003  0.124225  0.18666  -0.000635  4.010246  0.0
C  C76  1  0.72442381  0.55075604  0.97526990  1  0.168023  -0.003747  3.744486  -0.001  0.168217  0.000506  3.985536  0.002  0.174861  -0.00088  4.006934  0.0  0.119041  0.164005  0.001531  3.970639  0.003
C  C77  1  0.27557006  0.44924571  0.02473593  1  0.167692  -0.003764  3.74447  -0.001  0.167882  0.000508  3.98558  0.002  0.174529  -0.000879  4.006992  0.0  0.118962  0.163671  0.001532  3.970677  0.003
C  C78  1  0.80358134  0.43416561  0.01711134  1  -0.120457  0.005046  3.660992  0.005  -0.140217  0.001997  3.905459  0.002  -0.146887  0.00183  3.926409  0.002  -0.073833  -0.135813  0.002267  3.891467  0.002
C  C79  1  0.19642426  0.56583995  0.98288447  1  -0.120335  0.005063  3.660952  0.005  -0.140106  0.001999  3.905402  0.002  -0.146777  0.001831  3.926347  0.002  -0.073754  -0.135689  0.002244  3.891399  0.002
C  C80  1  0.91515231  0.37889914  0.95472316  1  0.00372  -0.011327  3.68523  -0.007  -0.015256  -0.00415  3.93254  -0.002  -0.01127  -0.004538  3.950334  -0.002  -0.059618  -0.017687  -0.003976  3.920889  -0.002
C  C81  1  0.08485263  0.62110361  0.04527626  1  0.003745  -0.011357  3.685098  -0.007  -0.015191  -0.004147  3.932414  -0.002  -0.011203  -0.004542  3.950202  -0.002  -0.059667  -0.017621  -0.003956  3.920752  -0.002
C  C82  1  0.94428749  0.44204915  0.85246499  1  -0.105758  0.008742  3.699477  0.01  -0.12102  0.003682  3.952325  0.005  -0.12841  0.003179  3.973974  0.004  -0.074053  -0.11647  0.004248  3.938369  0.005
C  C83  1  0.05571588  0.55795644  0.14753543  1  -0.10589  0.008761  3.69954  0.01  -0.121166  0.003679  3.952366  0.005  -0.128552  0.00318  3.974007  0.004  -0.074043  -0.116612  0.004249  3.938402  0.005
C  C84  1  0.86151876  0.55913380  0.81534847  1  0.150088  -0.012128  3.656869  -0.009  0.120826  -0.003392  3.914969  -0.003  0.130296  -0.004868  3.933388  -0.004  0.061249  0.114627  -0.002322  3.903389  -0.002
C  C85  1  0.13848505  0.44086892  0.18464960  1  0.150314  -0.01215  3.656723  -0.009  0.121127  -0.003388  3.914758  -0.003  0.130597  -0.00487  3.933193  -0.004  0.061359  0.114936  -0.002365  3.903182  -0.002
C  C86  1  0.35378289  0.60319349  0.28250654  1  0.004348  0.001378  3.797721  0.002  0.020127  0.000164  4.031621  0.0  0.015867  0.000306  4.057579  0.001  -0.02218  0.023106  6.8e-05  4.013982  0.0
C  C87  1  0.64621702  0.39680541  0.71749273  1  0.004315  0.001363  3.797661  0.002  0.020082  0.000167  4.031545  0.0  0.01582  0.000305  4.057505  0.001  -0.0222  0.023062  7.5e-05  4.013894  0.0
C  C88  1  0.24559306  0.68186294  0.33038064  1  -0.093027  -0.003324  3.730944  -0.002  -0.113385  -0.001093  3.977492  -0.001  -0.114351  -0.001301  3.999396  -0.001  -0.086504  -0.112833  -0.000955  3.963069  -0.001
C  C89  1  0.75440475  0.31813501  0.66962050  1  -0.092953  -0.003301  3.730945  -0.002  -0.113333  -0.001098  3.977505  -0.001  -0.114296  -0.001302  3.999408  -0.001  -0.086505  -0.11278  -0.00095  3.963073  -0.001
C  C90  1  0.18427007  0.63913848  0.43123051  1  -0.128786  0.001279  3.715284  0.001  -0.14453  0.00022  3.955906  0.0  -0.149747  0.000319  3.978701  0.0  -0.090131  -0.141352  0.000142  3.940299  0.0
C  C91  1  0.81572632  0.36086134  0.56876963  1  -0.128801  0.001262  3.715316  0.001  -0.144549  0.000218  3.955921  0.0  -0.149765  0.000319  3.978715  0.0  -0.090102  -0.141368  0.000144  3.940309  0.0
C  C92  1  0.22933973  0.51694307  0.48886661  1  0.163227  -0.003785  3.739921  -0.002  0.190352  -0.001402  3.970655  -0.001  0.19202  -0.001539  3.996249  -0.001  0.000324  0.189477  -0.001302  3.952733  -0.001
C  C93  1  0.77065457  0.48305580  0.51113540  1  0.163195  -0.003757  3.740021  -0.002  0.190349  -0.001394  3.970724  -0.001  0.192015  -0.001542  3.99632  -0.001  0.000308  0.189477  -0.001303  3.952797  -0.001
C  C94  1  0.33707674  0.43881336  0.44117737  1  -0.128184  0.001347  3.747222  0.001  -0.146097  0.000243  3.990386  0.0  -0.151148  0.000337  4.013745  0.0  -0.091213  -0.14249  0.00018  3.974366  0.0
C  C95  1  0.66291770  0.56118455  0.55882410  1  -0.128256  0.001331  3.747379  0.001  -0.14619  0.000239  3.990529  0.0  -0.151241  0.000338  4.013888  0.0  -0.09123  -0.142582  0.00018  3.974507  0.0
C  C96  1  0.39785568  0.48008824  0.34036235  1  -0.091247  -0.003445  3.739227  -0.002  -0.115068  -0.001113  3.991463  -0.001  -0.115906  -0.001321  4.013577  -0.001  -0.088759  -0.114218  -0.000975  3.975606  -0.001
C  C97  1  0.60213989  0.51990970  0.65963974  1  -0.091222  -0.003413  3.739265  -0.002  -0.115047  -0.001113  3.991498  -0.001  -0.115878  -0.001322  4.013609  -0.001  -0.088764  -0.114193  -0.000973  3.975634  -0.001
C  C98  1  0.16597099  0.47111368  0.59810844  1  -0.341151  8.3e-05  3.727294  0.0  -0.424421  2.7e-05  3.964292  0.0  -0.426528  9e-06  3.973867  0.0  -0.24064  -0.42274  3.9e-05  3.956344  0.0
C  C99  1  0.83402652  0.52888615  0.40189158  1  -0.341087  8.5e-05  3.727316  0.0  -0.424386  2.7e-05  3.964312  0.0  -0.42649  1e-05  3.973884  0.0  -0.240644  -0.422704  3.6e-05  3.956365  0.0
C  C100  1  0.30941847  0.90812030  0.50455957  1  0.00599  -0.000364  3.698453  0.0  -0.038585  -8.8e-05  3.953239  0.0  -0.036365  -0.00011  3.967507  0.0  -0.158223  -0.040236  -4.6e-05  3.94362  0.0
C  C101  1  0.69058704  0.09187863  0.49543770  1  0.005931  -0.000366  3.69857  0.0  -0.038635  -8.6e-05  3.953339  0.0  -0.036414  -0.000111  3.967617  0.0  -0.158217  -0.040293  -4.4e-05  3.943722  0.0
C  C102  1  0.21638458  0.03701447  0.50043753  1  -0.430773  0.006008  3.647768  0.006  -0.443319  0.003418  3.886757  0.004  -0.453908  0.002372  3.895639  0.003  -0.167675  -0.436055  0.004499  3.88063  0.005
C  C103  1  0.78361871  0.96298449  0.49956434  1  -0.430695  0.005997  3.647869  0.006  -0.443246  0.003416  3.886882  0.004  -0.453838  0.002372  3.895759  0.003  -0.16759  -0.435978  0.004495  3.880756  0.005
C  C104  1  0.39777407  0.85722810  0.59794979  1  -0.448906  0.000406  3.665232  0.0  -0.463541  0.000141  3.907209  0.0  -0.473834  6.5e-05  3.916064  0.0  -0.169341  -0.456615  0.000249  3.901423  0.0
C  C105  1  0.60222823  0.14276988  0.40205019  1  -0.44896  0.000407  3.665293  0.0  -0.463545  0.000141  3.907202  0.0  -0.473851  6.5e-05  3.916064  0.0  -0.169342  -0.456618  0.000247  3.901423  0.0
N  N106  1  0.49407817  0.94680525  0.85315107  1  -0.323088  0.07705  3.281454  0.1  -0.285314  0.053557  3.574994  0.074  -0.314129  0.042249  3.596646  0.063  -0.331224  -0.267547  0.061376  3.561241  0.081
N  N107  1  0.50593463  0.05319758  0.14684906  1  -0.323071  0.07706  3.281659  0.1  -0.285278  0.053558  3.575227  0.074  -0.314159  0.042248  3.596939  0.063  -0.331215  -0.2675  0.06138  3.561463  0.081
N  N108  1  0.55207433  0.73295972  0.97749679  1  -0.350961  0.104362  3.383933  0.135  -0.317418  0.069771  3.681802  0.096  -0.349388  0.056277  3.702327  0.082  -0.358228  -0.298467  0.078002  3.670062  0.102
N  N109  1  0.44792798  0.26703829  0.02250539  1  -0.351003  0.104353  3.383967  0.135  -0.31745  0.069764  3.681788  0.096  -0.34947  0.056274  3.702364  0.082  -0.358234  -0.298491  0.078009  3.670034  0.102
N  N110  1  0.75453485  0.61204401  0.87530486  1  -0.31219  0.084086  3.264537  0.11  -0.270284  0.056493  3.551875  0.078  -0.299557  0.044885  3.572601  0.067  -0.329798  -0.252156  0.064454  3.539058  0.085
N  N111  1  0.24546124  0.38795769  0.12469416  1  -0.312178  0.0841  3.26474  0.11  -0.270297  0.056485  3.552145  0.078  -0.299624  0.04488  3.572918  0.067  -0.329837  -0.25216  0.064449  3.53932  0.085
O  O112  1  0.40264235  0.72716847  0.79777870  1  -0.834842  -0.000956  1.938342  0.0  -0.775578  -0.000832  2.203403  0.0  -0.801975  -0.00111  2.182624  0.0  -0.37242  -0.757026  -0.000568  2.217982  0.0
O  O113  1  0.59735089  0.27282283  0.20222653  1  -0.835036  -0.000957  1.938484  0.0  -0.77571  -0.000832  2.203501  0.0  -0.802134  -0.001111  2.182729  0.0  -0.372455  -0.757158  -0.00058  2.218075  0.0
O  O114  1  0.19010001  0.69985187  0.70760364  1  -0.779768  2.1e-05  2.005885  0.0  -0.707832  2.5e-05  2.240352  0.0  -0.729741  6e-06  2.21593  0.0  -0.385009  -0.692175  4.4e-05  2.256676  0.0
O  O115  1  0.80990339  0.30014605  0.29239037  1  -0.779729  2.1e-05  2.005797  0.0  -0.707796  2.9e-05  2.240288  0.0  -0.729705  8e-06  2.215865  0.0  -0.38499  -0.692117  1.7e-05  2.256577  0.0
O  O116  1  0.19419843  0.91350999  0.74971725  1  -0.87413  4.9e-05  1.990851  0.0  -0.829706  2.7e-05  2.282125  0.0  -0.86338  1.7e-05  2.270061  0.0  -0.444594  -0.802557  7.8e-05  2.290471  0.0
O  O117  1  0.80579428  0.08649165  0.25027916  1  -0.874211  5.1e-05  1.990969  0.0  -0.829805  3e-05  2.282265  0.0  -0.863468  1.8e-05  2.270178  0.0  -0.444656  -0.802703  0.00013  2.290634  0.0
O  O118  1  0.95949672  0.08643262  0.82710695  1  -0.787588  0.000365  1.291081  0.0  -0.795497  0.000121  1.541926  0.0  -0.824411  0.000101  1.534721  0.0  -0.610936  -0.772685  0.000137  1.549932  0.0
O  O119  1  0.04050025  0.91356339  0.17289176  1  -0.787661  0.000361  1.290915  0.0  -0.7956  0.000121  1.541747  0.0  -0.824521  9.8e-05  1.534549  0.0  -0.610924  -0.772802  0.000116  1.549759  0.0
O  O120  1  0.30576674  0.16006363  0.30781516  1  -0.830104  0.047449  2.099618  0.065  -0.777046  0.0298  2.420237  0.043  -0.813173  0.023115  2.398733  0.035  -0.391826  -0.752027  0.034606  2.433343  0.047
O  O121  1  0.69421197  0.83993412  0.69218636  1  -0.830279  0.047499  2.09878  0.065  -0.777265  0.029816  2.419339  0.043  -0.813362  0.023126  2.397841  0.035  -0.39195  -0.75224  0.034636  2.432444  0.047
O  O122  1  0.91320499  0.84355582  0.87203046  1  -0.809843  -0.000574  1.31852  0.001  -0.837519  -0.001262  1.598315  0.0  -0.867523  -0.001315  1.588372  0.0  -0.609199  -0.81447  -0.001021  1.608724  0.001
O  O123  1  0.08680138  0.15643096  0.12798261  1  -0.809841  -0.000577  1.318773  0.001  -0.837545  -0.001261  1.598611  0.0  -0.867562  -0.001321  1.588667  0.0  -0.609272  -0.814522  -0.001004  1.609022  0.001
O  O124  1  0.10215026  0.01416459  0.33345717  1  -0.857968  -0.000419  1.965094  0.0  -0.812055  -0.000321  2.251834  0.0  -0.846081  -0.000402  2.239565  0.0  -0.443625  -0.785247  -0.00016  2.260145  0.0
O  O125  1  0.89785077  0.98583430  0.66654053  1  -0.857977  -0.00042  1.965265  0.0  -0.81204  -0.000321  2.252  0.0  -0.846095  -0.000402  2.239792  0.0  -0.443571  -0.785188  -0.000209  2.260288  0.0
O  O126  1  0.03582150  0.22441642  0.38734122  1  -0.837635  -0.000497  1.956895  0.0  -0.762608  -0.000246  2.200885  0.0  -0.787593  -0.00026  2.180372  0.0  -0.370489  -0.745022  -0.000292  2.214032  0.0
O  O127  1  0.96418216  0.77558725  0.61265665  1  -0.837657  -0.000498  1.957212  0.0  -0.762638  -0.000247  2.20118  0.0  -0.787622  -0.000263  2.180668  0.0  -0.370427  -0.745054  -0.000276  2.214334  0.0
