# generated using pymatgen
data_MnH60C66(N4O)2
_symmetry_space_group_name_H-M   'P 1'
_cell_length_a   11.57068500
_cell_length_b   12.44289416
_cell_length_c   14.02365728
_cell_angle_alpha   112.37849245
_cell_angle_beta   105.74306882
_cell_angle_gamma   91.96605872
_symmetry_Int_Tables_number   1
_chemical_formula_structural   MnH60C66(N4O)2
_chemical_formula_sum   'Mn1 H60 C66 N8 O2'
_cell_volume   1775.32860185
_cell_formula_units_Z   1
loop_
 _symmetry_equiv_pos_site_id
 _symmetry_equiv_pos_as_xyz
  1  'x, y, z'
loop_
 _atom_site_type_symbol
 _atom_site_label
 _atom_site_symmetry_multiplicity
 _atom_site_fract_x
 _atom_site_fract_y
 _atom_site_fract_z
 _atom_site_occupancy
 _atom_site_pbe_bader_charge
 _atom_site_pbe_bader_spin_density
 _atom_site_pbe_cm5_charge
 _atom_site_pbe_ddec_charge
 _atom_site_pbe_ddec_spin_density
 _atom_site_pbe_ddec_sum_bond_order
 _atom_site_pbe_magmom
Mn  Mn0  1  0.99720198  0.00364068  0.99910545  1  1.658361  -3.239458  0.865788  0.941133  -3.347912  3.101185  -3.221
H  H1  1  0.33869472  0.13170736  0.86402379  1  0.125557  5e-05  0.114311  0.132104  0.000111  0.998277  0.0
H  H2  1  0.66159783  0.86737845  0.13580638  1  0.10127  1.5e-05  0.114825  0.132515  9e-05  0.998416  0.0
H  H3  1  0.17315708  0.96968804  0.68243992  1  0.099501  7e-06  0.111065  0.126226  8.3e-05  1.012563  0.0
H  H4  1  0.82696033  0.02973211  0.31741174  1  0.099479  7e-06  0.110544  0.12567  8.2e-05  1.014113  0.0
H  H5  1  0.75308260  0.72109637  0.59752394  1  0.098846  -0.000101  0.111877  0.130849  2.3e-05  0.998515  0.0
H  H6  1  0.24696960  0.27786288  0.40220589  1  0.052705  -0.000102  0.11186  0.130481  4.4e-05  0.998467  0.0
H  H7  1  0.61783569  0.69100081  0.71944998  1  0.084484  -4.5e-05  0.112082  0.128414  7.3e-05  0.998494  0.0
H  H8  1  0.38267521  0.30763651  0.28053607  1  0.109459  -3.1e-05  0.111898  0.127761  7.2e-05  0.999446  0.0
H  H9  1  0.01756633  0.61268366  0.40550721  1  0.051092  3.1e-05  0.091394  0.095379  3.1e-05  1.040455  0.0
H  H10  1  0.98215971  0.38749044  0.59460164  1  0.05416  1.9e-05  0.091228  0.095076  2.3e-05  1.040801  0.0
H  H11  1  0.83048580  0.89990814  0.38881421  1  0.043146  -4.5e-05  0.093861  0.100389  -4.2e-05  1.030767  0.0
H  H12  1  0.16876199  0.09965571  0.61019717  1  0.048805  -5e-05  0.093888  0.100233  -4.2e-05  1.030783  0.0
H  H13  1  0.05510975  0.69554629  0.69928532  1  0.020289  1.2e-05  0.087579  0.119501  4.5e-05  1.042208  0.0
H  H14  1  0.94530585  0.30630368  0.30136962  1  0.024769  -9e-06  0.086828  0.117319  2.7e-05  1.04343  0.0
H  H15  1  0.04522791  0.57513235  0.57580580  1  0.058417  5e-06  0.086172  0.118477  -0.0  1.034142  0.0
H  H16  1  0.95376435  0.42569271  0.42507877  1  0.042357  2e-06  0.085908  0.117878  0.0  1.033723  0.0
H  H17  1  0.16915310  0.69097006  0.63652913  1  0.072413  -1.2e-05  0.093214  0.133175  -1.2e-05  0.989459  0.0
H  H18  1  0.83038223  0.30912652  0.36287190  1  0.064435  -9e-06  0.092808  0.132418  -7e-06  0.990103  0.0
H  H19  1  0.90132508  0.61163022  0.22640896  1  0.010955  0.000118  0.085237  0.117678  0.000142  1.038786  0.0
H  H20  1  0.09817860  0.38778254  0.77331865  1  0.012953  7.8e-05  0.085476  0.118356  0.000103  1.039414  0.0
H  H21  1  0.82259084  0.73082546  0.22147907  1  0.041438  -9.3e-05  0.085321  0.120843  -0.000106  1.025996  0.0
H  H22  1  0.17714551  0.26862884  0.77790022  1  0.043202  -9.4e-05  0.085575  0.120942  -0.000104  1.025878  0.0
H  H23  1  0.98213115  0.74666103  0.24925461  1  0.062093  0.000156  0.092985  0.136504  0.000338  1.01878  0.0
H  H24  1  0.01762589  0.25257828  0.75029268  1  0.055472  0.000104  0.092402  0.135837  0.000242  1.018923  0.0
H  H25  1  0.84701319  0.06831796  0.55803332  1  0.049908  7e-06  0.091375  0.130849  -3e-06  1.00027  0.0
H  H26  1  0.15193862  0.93154888  0.44055841  1  0.055927  9e-06  0.091236  0.130684  -2e-06  0.999184  0.0
H  H27  1  0.74803651  0.98768297  0.59273582  1  0.053746  -1.7e-05  0.092265  0.130649  -1.9e-05  0.986297  0.0
H  H28  1  0.25136701  0.01274885  0.40670286  1  0.022845  -1.7e-05  0.092367  0.130949  -1.9e-05  0.98586  0.0
H  H29  1  0.89299534  0.05750221  0.68512525  1  0.045544  0.000171  0.089365  0.127262  0.00025  1.031475  0.0
H  H30  1  0.10668615  0.94308494  0.31376839  1  0.054684  0.000173  0.089334  0.128067  0.000262  1.030875  0.0
H  H31  1  0.55902932  0.45797112  0.07162655  1  0.040897  7e-06  0.094316  0.102185  -7e-06  1.024359  0.0
H  H32  1  0.44181007  0.54123935  0.92814263  1  0.035049  4e-06  0.094271  0.102257  -1.1e-05  1.024612  0.0
H  H33  1  0.68882388  0.17615660  0.15541763  1  0.031073  -5.6e-05  0.095437  0.105902  -2.5e-05  1.020657  0.0
H  H34  1  0.31023286  0.82230883  0.84405944  1  0.048084  -5.2e-05  0.09629  0.10725  -1.8e-05  1.019132  0.0
H  H35  1  0.23049205  0.35234445  0.01775241  1  0.037264  -8e-06  0.082981  0.117433  2.7e-05  1.052594  0.0
H  H36  1  0.77002165  0.64863422  0.98255794  1  0.041958  1.7e-05  0.083572  0.118595  5.5e-05  1.051271  0.0
H  H37  1  0.31652831  0.39213834  0.94632744  1  0.031911  -1e-05  0.089173  0.123182  -1.1e-05  1.016202  0.0
H  H38  1  0.68420013  0.60780735  0.05356479  1  0.034122  -9e-06  0.089465  0.12438  -9e-06  1.016047  0.0
H  H39  1  0.33356670  0.48642084  0.08215746  1  0.058827  0.000101  0.093668  0.137245  0.000102  0.983086  0.0
H  H40  1  0.66758976  0.51408990  0.91767663  1  0.041804  8e-05  0.093573  0.136564  7.9e-05  0.984317  0.0
H  H41  1  0.77165920  0.42113308  0.08535276  1  0.034341  9e-05  0.08838  0.126476  0.000142  1.014835  0.0
H  H42  1  0.22877805  0.57583708  0.91307689  1  0.039108  9.1e-05  0.089359  0.127103  0.000128  1.015862  0.0
H  H43  1  0.82444796  0.30524226  0.12162173  1  0.049739  -0.000211  0.088474  0.127844  -7.2e-05  1.028912  0.0
H  H44  1  0.17546912  0.69238734  0.87831547  1  0.071926  -3.7e-05  0.088511  0.128866  0.000112  1.03077  0.0
H  H45  1  0.80752096  0.43816689  0.22198294  1  0.028346  -3e-06  0.088873  0.125955  -1.2e-05  1.006104  0.0
H  H46  1  0.19257307  0.56035421  0.77685087  1  0.026193  8e-06  0.088886  0.125977  -8e-06  1.005959  0.0
H  H47  1  0.46303995  0.08337421  0.21172383  1  0.042942  -6.7e-05  0.088342  0.125816  -5.1e-05  0.996086  0.0
H  H48  1  0.53672563  0.91613226  0.78825402  1  0.042683  -5.9e-05  0.088093  0.125613  -4.2e-05  0.99668  0.0
H  H49  1  0.55033586  0.01419991  0.12574028  1  0.054852  -8.8e-05  0.085863  0.12144  -8.8e-05  1.042876  0.0
H  H50  1  0.44748473  0.98425686  0.87273365  1  0.042463  -0.000103  0.085634  0.120835  -0.000102  1.044195  0.0
H  H51  1  0.39034279  0.00370238  0.07175033  1  0.084196  -2.2e-05  0.091422  0.135198  8.3e-05  1.011333  0.0
H  H52  1  0.60736279  0.99649636  0.92853487  1  0.036447  -9.8e-05  0.090779  0.133273  -8e-06  1.012203  0.0
H  H53  1  0.23538317  0.56878033  0.35033214  1  0.077711  -7.1e-05  0.110771  0.119117  -7.5e-05  0.965476  0.0
H  H54  1  0.76560071  0.43174623  0.65173378  1  0.081334  -7.3e-05  0.11088  0.119125  -6.7e-05  0.965802  0.0
H  H55  1  0.09085187  0.47655589  0.27383939  1  0.025825  0.000966  0.096898  0.094031  0.000669  1.008863  0.001
H  H56  1  0.91041937  0.52358017  0.72785488  1  0.054033  0.000859  0.097075  0.095164  0.000599  1.008364  0.001
H  H57  1  0.22056919  0.44160177  0.22817623  1  0.07662  0.000851  0.095331  0.096546  0.000575  1.033249  0.001
H  H58  1  0.78090200  0.55937519  0.77363145  1  0.062451  0.000785  0.095252  0.096597  0.000529  1.034413  0.001
H  H59  1  0.03529446  0.36557350  0.09536594  1  0.080533  -0.000548  0.108675  0.127345  -0.000733  1.029604  0.0
H  H60  1  0.96641423  0.63543074  0.90668658  1  0.103891  -0.000434  0.108608  0.128048  -0.000629  1.030215  0.0
C  C61  1  0.20826671  0.09959140  0.94625840  1  0.394192  -0.008786  0.105858  0.18794  -0.006873  4.01248  -0.007
C  C62  1  0.79097753  0.90122340  0.05339760  1  0.403101  -0.00829  0.104846  0.18801  -0.006484  4.015213  -0.006
C  C63  1  0.25347118  0.08520247  0.85657424  1  -0.113697  -0.007532  -0.090937  -0.168714  -0.005567  3.96059  -0.003
C  C64  1  0.74632881  0.91466376  0.14320968  1  -0.023654  -0.007353  -0.090926  -0.169115  -0.005516  3.962518  -0.003
C  C65  1  0.17005493  0.00424714  0.76518375  1  -0.04075  -0.007754  -0.090614  -0.165381  -0.005795  3.954579  -0.004
C  C66  1  0.82964751  0.99575308  0.23455951  1  -0.096268  -0.007199  -0.090534  -0.165089  -0.005261  3.95634  -0.003
C  C67  1  0.07285170  0.96829966  0.79774151  1  0.385992  -0.008707  0.102755  0.184195  -0.006807  4.02875  -0.007
C  C68  1  0.92615952  0.03267349  0.20177900  1  0.426318  -0.008506  0.103372  0.184815  -0.006714  4.029453  -0.007
C  C69  1  0.97123264  0.88428828  0.72635475  1  0.041298  0.005079  0.011134  -0.044208  0.005325  3.962591  0.004
C  C70  1  0.02778604  0.11667071  0.27317906  1  0.034595  0.003076  0.011157  -0.042925  0.003291  3.960815  0.002
C  C71  1  0.88105291  0.84282934  0.75871964  1  0.391294  -0.00931  0.100109  0.183082  -0.007271  4.028597  -0.007
C  C72  1  0.11790301  0.15817059  0.24079991  1  0.401364  -0.009153  0.100605  0.183219  -0.007163  4.025955  -0.007
C  C73  1  0.77337875  0.76057105  0.68500786  1  -0.088159  -0.009834  -0.092454  -0.166227  -0.007462  3.954385  -0.005
C  C74  1  0.22628220  0.23923419  0.31467977  1  -0.049552  -0.009814  -0.092809  -0.166057  -0.007439  3.953129  -0.005
C  C75  1  0.70540282  0.74539777  0.74627218  1  -0.008959  -0.008623  -0.092704  -0.173441  -0.006504  3.985616  -0.004
C  C76  1  0.29449404  0.25422679  0.25351771  1  -0.029051  -0.00904  -0.092349  -0.172526  -0.006854  3.984555  -0.004
C  C77  1  0.77090788  0.81771928  0.85805012  1  0.380216  -0.009136  0.10022  0.180494  -0.007242  4.032917  -0.007
C  C78  1  0.22832971  0.18300236  0.14161254  1  0.369797  -0.009412  0.100018  0.180203  -0.007456  4.03335  -0.007
C  C79  1  0.27158250  0.17143539  0.05464308  1  0.087591  0.0051  0.01094  -0.044143  0.005352  3.956373  0.004
C  C80  1  0.72774476  0.82911887  0.94504595  1  0.064367  0.003584  0.011469  -0.044781  0.003816  3.957916  0.003
C  C81  1  0.95607267  0.83843459  0.60781303  1  -0.046166  -0.000477  -0.019895  -0.072521  -0.000261  3.968072  -0.001
C  C82  1  0.04323090  0.16205853  0.39175200  1  -0.030613  -0.000487  -0.01971  -0.073827  -0.000287  3.968284  0.0
C  C83  1  0.00122569  0.73500879  0.55682988  1  -0.039267  0.000172  -0.014526  0.126414  0.000209  3.998359  0.0
C  C84  1  0.99828011  0.26548042  0.44306172  1  -0.048332  0.000105  -0.015255  0.125412  0.000137  3.998341  0.0
C  C85  1  0.98293585  0.69301732  0.44507139  1  -0.035749  -1.8e-05  -0.109408  -0.235988  -3.3e-05  3.971994  0.0
C  C86  1  0.01662928  0.30711636  0.55479707  1  -0.042213  -3.5e-05  -0.108836  -0.235363  -4.2e-05  3.971614  0.0
C  C87  1  0.92181134  0.75106739  0.38308660  1  -0.044554  4.4e-05  -0.013876  0.183482  1.1e-05  4.031528  0.0
C  C88  1  0.07763439  0.24870909  0.61646394  1  -0.04417  4.5e-05  -0.014132  0.18404  1.6e-05  4.029835  0.0
C  C89  1  0.87848369  0.85363723  0.43598500  1  -0.054879  -1.9e-05  -0.102751  -0.223143  -3.4e-05  3.959732  0.0
C  C90  1  0.12079675  0.14613360  0.56325025  1  -0.051872  -2.6e-05  -0.102965  -0.22324  -3.8e-05  3.960085  0.0
C  C91  1  0.89454082  0.89903920  0.54730890  1  0.022875  0.000172  -0.009874  0.13311  0.000205  3.989672  0.0
C  C92  1  0.10469444  0.10109648  0.45194284  1  0.018647  0.00012  -0.009413  0.133773  0.000152  3.988983  0.0
C  C93  1  0.07054742  0.67092151  0.62045543  1  -0.109546  3.5e-05  -0.244148  -0.415587  6.4e-05  3.983022  0.0
C  C94  1  0.92907915  0.32991546  0.37979188  1  -0.08844  1.9e-05  -0.243105  -0.412482  4.3e-05  3.982296  0.0
C  C95  1  0.90560432  0.70735673  0.26391386  1  -0.048867  0.000114  -0.244079  -0.414788  0.000257  3.945469  0.0
C  C96  1  0.09401511  0.29209093  0.73564311  1  -0.042922  1e-05  -0.244069  -0.415577  0.000159  3.946775  0.0
C  C97  1  0.84366461  0.00892277  0.59876774  1  -0.088273  0.000188  -0.241231  -0.412323  0.000206  3.970149  0.0
C  C98  1  0.15561420  0.99132987  0.40023305  1  -0.073601  0.000211  -0.240484  -0.411908  0.000229  3.967116  0.0
C  C99  1  0.39800831  0.22871673  0.07915442  1  -0.019444  -0.000474  -0.020367  -0.074361  -0.000261  3.965054  -0.001
C  C100  1  0.60162843  0.77121244  0.92066560  1  -0.049868  -0.000447  -0.020952  -0.075018  -0.000253  3.965366  0.0
C  C101  1  0.42086691  0.33206411  0.06404956  1  -0.070026  0.000179  -0.014944  0.124927  0.0002  4.009295  0.0
C  C102  1  0.57935850  0.66786538  0.93593589  1  -0.053572  0.000129  -0.01561  0.125083  0.000153  4.008733  0.0
C  C103  1  0.54137913  0.37808959  0.08389369  1  -0.051821  -2.2e-05  -0.109529  -0.233048  -3.6e-05  3.966332  0.0
C  C104  1  0.45899315  0.62121512  0.91588793  1  -0.039707  1e-06  -0.10897  -0.233227  -1.8e-05  3.965374  0.0
C  C105  1  0.63896012  0.32392621  0.11712162  1  0.035961  5.8e-05  -0.01309  0.185257  7.6e-05  4.025039  0.0
C  C106  1  0.36095184  0.67469325  0.88231867  1  0.011782  5.5e-05  -0.013237  0.186009  7.4e-05  4.023999  0.0
C  C107  1  0.61403634  0.22126981  0.13162162  1  -0.080629  -9e-06  -0.10277  -0.225168  1e-06  3.951624  0.0
C  C108  1  0.38532575  0.77752535  0.86787809  1  -0.032994  1.1e-05  -0.102536  -0.224734  2.8e-05  3.94908  0.0
C  C109  1  0.49532204  0.17289996  0.11391393  1  0.018946  0.000204  -0.010966  0.131853  0.000242  3.984297  0.0
C  C110  1  0.50386670  0.82646392  0.88574942  1  -0.021371  0.00016  -0.010597  0.132595  0.000194  3.984528  0.0
C  C111  1  0.31985693  0.39345759  0.02594729  1  -0.079991  -1.3e-05  -0.242701  -0.414179  0.000118  3.977153  0.0
C  C112  1  0.68081023  0.60693178  0.97409407  1  -0.066619  -3e-05  -0.24386  -0.416633  8.7e-05  3.978489  0.0
C  C113  1  0.76738140  0.37462945  0.13723364  1  -0.066431  -0.000154  -0.242228  -0.415157  -0.000181  3.955669  0.0
C  C114  1  0.23270689  0.62325610  0.86186224  1  -0.084344  5.9e-05  -0.243862  -0.417713  5.2e-05  3.957755  0.0
C  C115  1  0.47336887  0.06256364  0.13107210  1  -0.120862  -0.000194  -0.243059  -0.410492  -0.000122  3.959069  0.0
C  C116  1  0.52521173  0.93681762  0.86849881  1  -0.06554  -0.000269  -0.242871  -0.409663  -0.000207  3.962571  0.0
C  C117  1  0.11246117  0.80470160  0.06457960  1  1.480486  -0.024621  0.296196  0.429363  -0.01699  4.267551  -0.023
C  C118  1  0.89126863  0.19506252  0.93643423  1  1.544412  -0.031319  0.307994  0.442266  -0.024408  4.248915  -0.029
C  C119  1  0.05779669  0.61985910  0.05493500  1  0.550638  0.043857  0.104885  0.173638  0.044825  4.100494  0.023
C  C120  1  0.94388432  0.38134047  0.94724734  1  0.520367  0.05374  0.10322  0.168434  0.054691  4.099718  0.03
C  C121  1  0.07705986  0.54227683  0.10958820  1  0.453443  0.042591  0.086162  0.178625  0.043776  4.057047  0.025
C  C122  1  0.92428589  0.45871174  0.89257755  1  0.531287  0.035143  0.085097  0.179289  0.036476  4.063302  0.02
C  C123  1  0.02080459  0.42629383  0.05571134  1  -0.016616  -0.005599  -0.118831  -0.319582  -0.002782  4.024105  -0.006
C  C124  1  0.98082915  0.57470687  0.94634934  1  -0.079079  0.001589  -0.117266  -0.319693  0.003084  4.018265  -0.001
C  C125  1  0.17551499  0.51404111  0.26865127  1  0.386256  -0.000307  -0.1366  -0.176335  4.9e-05  3.918051  -0.001
C  C126  1  0.82565854  0.48662565  0.73329742  1  0.35925  -0.000265  -0.135838  -0.176515  2.9e-05  3.917077  -0.001
N  N127  1  0.09751596  0.02816157  0.90827439  1  -1.177866  0.017231  -0.351384  -0.337028  0.027953  3.419492  0.037
N  N128  1  0.90121376  0.97336348  0.09118662  1  -1.220989  0.01505  -0.352107  -0.340479  0.025536  3.417108  0.034
N  N129  1  0.87859919  0.87502748  0.86381105  1  -1.193547  0.012696  -0.352217  -0.339179  0.023936  3.410774  0.034
N  N130  1  0.12011398  0.12657919  0.13568218  1  -1.202214  0.01302  -0.351129  -0.338539  0.024413  3.409243  0.034
N  N131  1  0.12128225  0.87472173  0.02650973  1  -1.223917  0.027642  -0.368608  -0.54161  0.030171  2.971848  0.03
N  N132  1  0.88545716  0.12327868  0.97354293  1  -1.24666  -0.003302  -0.393377  -0.546171  0.00467  3.083416  0.014
N  N133  1  0.11473418  0.73342217  0.11020008  1  -1.243201  0.075419  -0.310124  -0.347251  0.073982  3.423912  0.056
N  N134  1  0.88722120  0.26734341  0.89248608  1  -1.264551  0.050189  -0.304938  -0.341  0.049075  3.438523  0.037
O  O135  1  0.15268583  0.59026187  0.21328906  1  -1.071757  0.019534  -0.179049  -0.14013  0.018191  2.592487  0.016
O  O136  1  0.84827647  0.41069494  0.78901787  1  -1.066239  0.017108  -0.180256  -0.142248  0.015904  2.590613  0.014
