# generated using pymatgen
data_ZnPH5C5NO3
_symmetry_space_group_name_H-M   'P 1'
_cell_length_a   5.23473987
_cell_length_b   11.22170737
_cell_length_c   13.76553513
_cell_angle_alpha   98.37941103
_cell_angle_beta   89.99987270
_cell_angle_gamma   89.99993251
_symmetry_Int_Tables_number   1
_chemical_formula_structural   ZnPH5C5NO3
_chemical_formula_sum   'Zn4 P4 H20 C20 N4 O12'
_cell_volume   799.99269900
_cell_formula_units_Z   4
loop_
 _symmetry_equiv_pos_site_id
 _symmetry_equiv_pos_as_xyz
  1  'x, y, z'
loop_
 _atom_site_type_symbol
 _atom_site_label
 _atom_site_symmetry_multiplicity
 _atom_site_fract_x
 _atom_site_fract_y
 _atom_site_fract_z
 _atom_site_occupancy
 _atom_site_hle17_bader_spin_density
 _atom_site_hle17_ddec_charge
 _atom_site_hle17_ddec_spin_density
 _atom_site_hle17_ddec_sum_bond_order
 _atom_site_hle17_magmom
 _atom_site_hse06_10hf_bader_spin_density
 _atom_site_hse06_10hf_ddec_charge
 _atom_site_hse06_10hf_ddec_spin_density
 _atom_site_hse06_10hf_ddec_sum_bond_order
 _atom_site_hse06_10hf_magmom
 _atom_site_hse06_bader_spin_density
 _atom_site_hse06_ddec_charge
 _atom_site_hse06_ddec_spin_density
 _atom_site_hse06_ddec_sum_bond_order
 _atom_site_hse06_magmom
 _atom_site_pbe_bader_spin_density
 _atom_site_pbe_cm5_charge
 _atom_site_pbe_ddec_charge
 _atom_site_pbe_ddec_spin_density
 _atom_site_pbe_ddec_sum_bond_order
 _atom_site_pbe_magmom
Zn  Zn0  1  0.27762517  0.43481557  0.10357255  1  0  1.141302  0  1.856905  0  0  0.966638  0  2.341672  0  0  1.00924  0  2.28185  0  0  0.710329  0.936739  0  2.382884  0
Zn  Zn1  1  0.77762288  0.06518442  0.39642767  1  0  1.141296  0  1.856908  0  0  0.966661  0  2.341666  0  0  1.009257  0  2.281847  0  0  0.710328  0.936754  0  2.382874  0
Zn  Zn2  1  0.72237640  0.56518392  0.89642757  1  0  1.141322  0  1.856909  0  0  0.966666  0  2.341691  0  0  1.009264  0  2.281868  0  0  0.710305  0.936761  0  2.382903  0
Zn  Zn3  1  0.22237487  0.93481599  0.60357111  1  0  1.141333  0  1.856891  0  0  0.966656  0  2.341709  0  0  1.009257  0  2.281887  0  0  0.710324  0.936756  0  2.382922  0
P  P4  1  0.21023782  0.66962688  0.99841059  1  0  1.43609  0  4.990262  0  0  1.255798  0  5.492649  0  0  1.307396  0  5.453813  0  0  0.27078  1.219776  0  5.518781  0
P  P5  1  0.71023908  0.83037213  0.50158799  1  0  1.436045  0  4.990234  0  0  1.255765  0  5.492606  0  0  1.307359  0  5.453774  0  0  0.270775  1.219741  0  5.518735  0
P  P6  1  0.78976184  0.33037080  0.00159003  1  0  1.436086  0  4.990193  0  0  1.255795  0  5.492575  0  0  1.307391  0  5.453739  0  0  0.270763  1.219777  0  5.518709  0
P  P7  1  0.28975485  0.16962919  0.49840945  1  0  1.436177  0  4.990092  0  0  1.255919  0  5.492447  0  0  1.307517  0  5.45361  0  0  0.270872  1.219902  0  5.518575  0
H  H8  1  0.30726728  0.78511280  0.03362030  1  0  -0.163761  0  0.912206  0  0  -0.128678  0  0.994394  0  0  -0.134243  0  0.992465  0  0  0.077806  -0.124968  0  0.995947  0
H  H9  1  0.80726803  0.71488747  0.46637862  1  0  -0.163772  0  0.91221  0  0  -0.128685  0  0.99439  0  0  -0.134258  0  0.992476  0  0  0.077806  -0.12497  0  0.995939  0
H  H10  1  0.69273238  0.21488759  0.96637993  1  0  -0.163778  0  0.912248  0  0  -0.128686  0  0.994423  0  0  -0.134255  0  0.992501  0  0  0.0778  -0.124979  0  0.99598  0
H  H11  1  0.19272972  0.28511566  0.53361759  1  0  -0.163815  0  0.912196  0  0  -0.128737  0  0.994391  0  0  -0.134309  0  0.992476  0  0  0.077781  -0.125033  0  0.995953  0
H  H12  1  0.46536253  0.58011456  0.28578586  1  0  0.093739  0  0.906638  0  0  0.107076  0  0.956943  0  0  0.109469  0  0.955387  0  0  0.129531  0.105194  0  0.958275  0
H  H13  1  0.96535468  0.91988468  0.21421497  1  0  0.093718  0  0.90672  0  0  0.107063  0  0.957015  0  0  0.109456  0  0.955463  0  0  0.129548  0.105183  0  0.958344  0
H  H14  1  0.53464286  0.41988674  0.71421448  1  0  0.093663  0  0.906804  0  0  0.107016  0  0.957097  0  0  0.109408  0  0.955546  0  0  0.129527  0.105156  0  0.958404  0
H  H15  1  0.03464307  0.08011482  0.78578442  1  0  0.09372  0  0.906756  0  0  0.107068  0  0.957051  0  0  0.109461  0  0.955496  0  0  0.129547  0.105181  0  0.95839  0
H  H16  1  0.34092407  0.62503954  0.46035873  1  0  0.121676  0  0.991682  0  0  0.128753  0  1.054907  0  0  0.132274  0  1.053727  0  0  0.109346  0.126214  0  1.055902  0
H  H17  1  0.84091927  0.87495619  0.03964177  1  0  0.121731  0  0.991571  0  0  0.128783  0  1.054822  0  0  0.132305  0  1.053641  0  0  0.109343  0.126244  0  1.055817  0
H  H18  1  0.65908132  0.37495544  0.53964300  1  0  0.12164  0  0.991715  0  0  0.12873  0  1.05492  0  0  0.132257  0  1.053724  0  0  0.109345  0.126193  0  1.055913  0
H  H19  1  0.15907848  0.12504422  0.96035701  1  0  0.121673  0  0.99163  0  0  0.128749  0  1.05486  0  0  0.132269  0  1.053685  0  0  0.109333  0.12621  0  1.055856  0
H  H20  1  0.76579385  0.34481420  0.40124619  1  0  0.121211  0  0.977348  0  0  0.129421  0  1.038842  0  0  0.132989  0  1.037492  0  0  0.10989  0.12682  0  1.040001  0
H  H21  1  0.26579114  0.15518490  0.09875466  1  0  0.121235  0  0.977303  0  0  0.129452  0  1.038798  0  0  0.133022  0  1.037445  0  0  0.10989  0.12685  0  1.03996  0
H  H22  1  0.23420581  0.65518439  0.59875382  1  0  0.12124  0  0.977305  0  0  0.129454  0  1.038797  0  0  0.133025  0  1.03744  0  0  0.109891  0.126852  0  1.039959  0
H  H23  1  0.73420470  0.84481820  0.90124591  1  0  0.121236  0  0.977346  0  0  0.129431  0  1.038858  0  0  0.132999  0  1.037506  0  0  0.109882  0.126828  0  1.040019  0
H  H24  1  0.90717104  0.31774878  0.22757613  1  0  0.089233  0  0.944673  0  0  0.09584  0  1.008724  0  0  0.098436  0  1.006967  0  0  0.11957  0.093936  0  1.010012  0
H  H25  1  0.40716725  0.18225022  0.27242386  1  0  0.089216  0  0.944675  0  0  0.09582  0  1.008724  0  0  0.098415  0  1.00697  0  0  0.119574  0.093916  0  1.010011  0
H  H26  1  0.09283053  0.68224981  0.77242315  1  0  0.089256  0  0.944664  0  0  0.095864  0  1.008708  0  0  0.098459  0  1.006953  0  0  0.119586  0.093959  0  1.009995  0
H  H27  1  0.59283241  0.81775017  0.72757710  1  0  0.089237  0  0.944649  0  0  0.095845  0  1.008693  0  0  0.098439  0  1.006938  0  0  0.119588  0.093941  0  1.009981  0
C  C28  1  0.31209606  0.52973840  0.31492598  1  0  0.141363  0  3.687202  0  0  0.11174  0  3.934446  0  0  0.118449  0  3.952839  0  0  0.057737  0.107448  0  3.921844  0
C  C29  1  0.81208825  0.97025824  0.18507466  1  0  0.141388  0  3.68732  0  0  0.111749  0  3.934581  0  0  0.118456  0  3.952977  0  0  0.057705  0.107456  0  3.921979  0
C  C30  1  0.68790360  0.47025748  0.68507442  1  0  0.141532  0  3.687289  0  0  0.111888  0  3.934567  0  0  0.118596  0  3.95296  0  0  0.057767  0.107578  0  3.92197  0
C  C31  1  0.18790759  0.02974396  0.81492507  1  0  0.141398  0  3.687166  0  0  0.111743  0  3.934439  0  0  0.118452  0  3.95283  0  0  0.057719  0.107455  0  3.921841  0
C  C32  1  0.24240173  0.55319685  0.41312374  1  0  -0.149132  0  3.674377  0  0  -0.168143  0  3.921524  0  0  -0.176044  0  3.943035  0  0  -0.076426  -0.163  0  3.907084  0
C  C33  1  0.74239265  0.94679896  0.08687613  1  0  -0.149079  0  3.674379  0  0  -0.168084  0  3.921481  0  0  -0.175986  0  3.942993  0  0  -0.076364  -0.162942  0  3.907045  0
C  C34  1  0.75760175  0.44679904  0.58687666  1  0  -0.149029  0  3.674574  0  0  -0.168102  0  3.921665  0  0  -0.176004  0  3.943184  0  0  -0.076419  -0.162959  0  3.907227  0
C  C35  1  0.25760701  0.05319963  0.91312460  1  0  -0.149058  0  3.674213  0  0  -0.168069  0  3.921327  0  0  -0.175972  0  3.942838  0  0  -0.076393  -0.162927  0  3.906889  0
C  C36  1  0.04108703  0.48814291  0.44796369  1  0  0.092336  0  3.741034  0  0  0.101658  0  3.978603  0  0  0.105458  0  4.000014  0  0  0.014469  0.09923  0  3.964108  0
C  C37  1  0.54108307  0.01185633  0.05203954  1  0  0.092127  0  3.741378  0  0  0.101589  0  3.978822  0  0  0.105387  0  4.000234  0  0  0.014419  0.099161  0  3.964329  0
C  C38  1  0.95891836  0.51185474  0.55204128  1  0  0.092006  0  3.741362  0  0  0.101592  0  3.978701  0  0  0.105392  0  4.000113  0  0  0.01445  0.099166  0  3.964206  0
C  C39  1  0.45892232  0.98814315  0.94796203  1  0  0.092096  0  3.74131  0  0  0.101532  0  3.978785  0  0  0.105331  0  4.000198  0  0  0.014412  0.099105  0  3.964292  0
C  C40  1  0.92077193  0.40036863  0.37988351  1  0  -0.153928  0  3.684332  0  0  -0.173955  0  3.934652  0  0  -0.181918  0  3.956335  0  0  -0.076059  -0.168762  0  3.920125  0
C  C41  1  0.42076924  0.09962945  0.12011780  1  0  -0.153984  0  3.684554  0  0  -0.174077  0  3.934868  0  0  -0.182037  0  3.956549  0  0  -0.076101  -0.168887  0  3.920347  0
C  C42  1  0.07922964  0.59963265  0.62011900  1  0  -0.153885  0  3.684564  0  0  -0.173993  0  3.934833  0  0  -0.181954  0  3.956513  0  0  -0.076048  -0.168802  0  3.920311  0
C  C43  1  0.57922660  0.90037094  0.87988243  1  0  -0.153959  0  3.684665  0  0  -0.174029  0  3.934996  0  0  -0.18199  0  3.956677  0  0  -0.076082  -0.168837  0  3.920473  0
C  C44  1  0.00107038  0.38263024  0.28271370  1  0  0.141149  0  3.685683  0  0  0.112504  0  3.934904  0  0  0.119122  0  3.952941  0  0  0.053436  0.108213  0  3.922647  0
C  C45  1  0.50106710  0.11736815  0.21728655  1  0  0.141275  0  3.685688  0  0  0.112661  0  3.934893  0  0  0.119275  0  3.952935  0  0  0.053495  0.108374  0  3.922632  0
C  C46  1  0.99893310  0.61736655  0.71728608  1  0  0.141182  0  3.685826  0  0  0.112557  0  3.935043  0  0  0.119173  0  3.953082  0  0  0.053431  0.108269  0  3.922784  0
C  C47  1  0.49893448  0.88263405  0.78271318  1  0  0.141283  0  3.685722  0  0  0.112661  0  3.934932  0  0  0.119279  0  3.952968  0  0  0.053484  0.10837  0  3.922675  0
N  N48  1  0.19332254  0.44614226  0.25019302  1  0  -0.330999  0  3.281684  0  0  -0.251603  0  3.560496  0  0  -0.269518  0  3.573931  0  0  -0.325414  -0.239454  0  3.551231  0
N  N49  1  0.69331923  0.05385510  0.24980622  1  0  -0.331037  0  3.281749  0  0  -0.251659  0  3.56059  0  0  -0.269573  0  3.574025  0  0  -0.325417  -0.239509  0  3.551321  0
N  N50  1  0.80667712  0.55385724  0.74980638  1  0  -0.331109  0  3.281672  0  0  -0.251734  0  3.560519  0  0  -0.269648  0  3.573949  0  0  -0.325439  -0.239587  0  3.551262  0
N  N51  1  0.30668234  0.94614440  0.75019317  1  0  -0.331058  0  3.281732  0  0  -0.25166  0  3.560559  0  0  -0.269575  0  3.573991  0  0  -0.325407  -0.239511  0  3.551293  0
O  O52  1  0.22442466  0.60104267  0.08645996  1  0  -0.858466  0  2.055143  0  0  -0.760389  0  2.35199  0  0  -0.787853  0  2.323262  0  0  -0.394974  -0.740821  0  2.371065  0
O  O53  1  0.72442525  0.89895586  0.41353881  1  0  -0.858485  0  2.055104  0  0  -0.76041  0  2.351944  0  0  -0.787871  0  2.323216  0  0  -0.395  -0.740839  0  2.371016  0
O  O54  1  0.77558073  0.39895684  0.91353871  1  0  -0.858518  0  2.055037  0  0  -0.760451  0  2.351891  0  0  -0.787912  0  2.32316  0  0  -0.395021  -0.74088  0  2.370964  0
O  O55  1  0.27555722  0.10104544  0.58646080  1  0  -0.858585  0  2.055032  0  0  -0.760518  0  2.351878  0  0  -0.787979  0  2.323147  0  0  -0.395066  -0.740946  0  2.37095  0
O  O56  1  0.93449355  0.69363658  0.96602119  1  0  -0.854181  0  2.049268  0  0  -0.754074  0  2.344729  0  0  -0.781904  0  2.317887  0  0  -0.386257  -0.734287  0  2.362559  0
O  O57  1  0.43449275  0.80636408  0.53397595  1  0  -0.854101  0  2.049236  0  0  -0.754022  0  2.34472  0  0  -0.781851  0  2.317879  0  0  -0.386242  -0.734239  0  2.362562  0
O  O58  1  0.06550611  0.30636291  0.03397892  1  0  -0.854129  0  2.049241  0  0  -0.75403  0  2.344712  0  0  -0.781858  0  2.317867  0  0  -0.386234  -0.73424  0  2.362537  0
O  O59  1  0.56550309  0.19363542  0.46602345  1  0  -0.85408  0  2.049161  0  0  -0.754023  0  2.344658  0  0  -0.781853  0  2.317813  0  0  -0.386252  -0.734251  0  2.362525  0
O  O60  1  0.36802632  0.61529680  0.90868908  1  0  -0.86758  0  2.06413  0  0  -0.772592  0  2.373598  0  0  -0.801354  0  2.347481  0  0  -0.39375  -0.752281  0  2.390981  0
O  O61  1  0.86802501  0.88470299  0.59131019  1  0  -0.867573  0  2.064152  0  0  -0.772574  0  2.373599  0  0  -0.801338  0  2.347492  0  0  -0.393742  -0.752263  0  2.390983  0
O  O62  1  0.63197525  0.38470360  0.09130970  1  0  -0.867566  0  2.064172  0  0  -0.772574  0  2.373635  0  0  -0.801338  0  2.347523  0  0  -0.393722  -0.752264  0  2.391017  0
O  O63  1  0.13197274  0.11530013  0.40868820  1  0  -0.867562  0  2.064165  0  0  -0.772585  0  2.373633  0  0  -0.801336  0  2.347496  0  0  -0.393757  -0.752269  0  2.391009  0
