# generated using pymatgen
data_CuH18C20(N2O)4
_symmetry_space_group_name_H-M   'P 1'
_cell_length_a   7.42317158
_cell_length_b   11.87815018
_cell_length_c   12.78732967
_cell_angle_alpha   90.00270471
_cell_angle_beta   89.99983763
_cell_angle_gamma   94.29699570
_symmetry_Int_Tables_number   1
_chemical_formula_structural   CuH18C20(N2O)4
_chemical_formula_sum   'Cu2 H36 C40 N16 O8'
_cell_volume   1124.33486887
_cell_formula_units_Z   2
loop_
 _symmetry_equiv_pos_site_id
 _symmetry_equiv_pos_as_xyz
  1  'x, y, z'
loop_
 _atom_site_type_symbol
 _atom_site_label
 _atom_site_symmetry_multiplicity
 _atom_site_fract_x
 _atom_site_fract_y
 _atom_site_fract_z
 _atom_site_occupancy
 _atom_site_hle17_ddec_charge
 _atom_site_hle17_ddec_spin_density
 _atom_site_hle17_ddec_sum_bond_order
 _atom_site_hle17_magmom
 _atom_site_hse06_10hf_ddec_charge
 _atom_site_hse06_10hf_ddec_spin_density
 _atom_site_hse06_10hf_ddec_sum_bond_order
 _atom_site_hse06_10hf_magmom
 _atom_site_hse06_ddec_charge
 _atom_site_hse06_ddec_spin_density
 _atom_site_hse06_ddec_sum_bond_order
 _atom_site_hse06_magmom
 _atom_site_pbe_cm5_charge
 _atom_site_pbe_ddec_charge
 _atom_site_pbe_ddec_spin_density
 _atom_site_pbe_ddec_sum_bond_order
 _atom_site_pbe_magmom
Cu  Cu0  1  0.99998791  0.50000570  0.50000546  1  0.813418  -0.650584  1.945046  -0.453  0.819403  -0.766019  2.328957  -0.606  0.907761  -0.842634  2.261441  -0.704  0.793205  0.767464  -0.705637  2.373696  -0.536
Cu  Cu1  1  0.50000619  0.50000178  0.00000129  1  0.813391  -0.650572  1.945079  -0.453  0.819365  -0.765977  2.328963  -0.606  0.907897  -0.842612  2.261254  -0.704  0.793254  0.767507  -0.705611  2.373616  -0.536
H  H2  1  0.64170785  0.97659268  0.50715429  1  0.3375  0.000156  0.931871  0.0  0.317305  -5e-06  0.998636  0.0  0.326625  4e-06  0.990788  0.0  0.293397  0.310774  -1.5e-05  1.00403  0.0
H  H3  1  0.85828578  0.02341255  0.00715098  1  0.337476  0.000157  0.931774  0.0  0.317289  -5e-06  0.998559  0.0  0.326607  5e-06  0.990713  0.0  0.293375  0.310757  -1.5e-05  1.003953  0.0
H  H4  1  0.35830053  0.02341057  0.49283970  1  0.337544  0.000157  0.931812  0.0  0.317329  -5e-06  0.998617  0.0  0.326645  5e-06  0.990773  0.0  0.293439  0.310801  -1.5e-05  1.00401  0.0
H  H5  1  0.14171575  0.97658994  0.99285553  1  0.337509  0.000157  0.931689  0.0  0.317313  -5e-06  0.998467  0.0  0.326631  5e-06  0.990619  0.0  0.293359  0.310782  -1.5e-05  1.003859  0.0
H  H6  1  0.74709399  0.85369356  0.52819077  1  0.327389  0.00024  0.895432  0.0  0.313702  2.5e-05  0.953826  0.0  0.320358  1.2e-05  0.948836  0.0  0.306281  0.309051  3.7e-05  0.957363  0.0
H  H7  1  0.75292015  0.14632493  0.02817880  1  0.327369  0.00024  0.895531  0.0  0.313661  2.5e-05  0.953964  0.0  0.320323  1.2e-05  0.948956  0.0  0.306238  0.309009  3.7e-05  0.957503  0.0
H  H8  1  0.25290152  0.14630478  0.47181261  1  0.32734  0.000239  0.895527  0.0  0.313649  2.5e-05  0.953936  0.0  0.320304  1.2e-05  0.948946  0.0  0.306257  0.308998  3.6e-05  0.957472  0.0
H  H9  1  0.24709318  0.85368418  0.97181911  1  0.327331  0.000239  0.895557  0.0  0.31362  2.5e-05  0.954004  0.0  0.320278  1.2e-05  0.949004  0.0  0.306208  0.308969  3.7e-05  0.95754  0.0
H  H10  1  0.03627340  0.75124241  0.46735429  1  0.091569  -0.001077  0.947471  -0.001  0.098094  -0.001071  1.015129  -0.001  0.100158  -0.000753  1.012568  -0.001  0.118241  0.096128  -0.001274  1.017472  -0.002
H  H11  1  0.46373643  0.24876562  0.96734906  1  0.091651  -0.001076  0.947387  -0.001  0.098157  -0.001071  1.015069  -0.001  0.100222  -0.000752  1.012499  -0.001  0.118248  0.096189  -0.001274  1.017414  -0.002
H  H12  1  0.96375771  0.24875969  0.53264518  1  0.091673  -0.001077  0.947438  -0.001  0.098179  -0.001071  1.015106  -0.001  0.100239  -0.000752  1.012543  -0.001  0.118208  0.096212  -0.001274  1.017451  -0.002
H  H13  1  0.53626861  0.75123344  0.03264572  1  0.09167  -0.001077  0.947369  -0.001  0.098158  -0.001071  1.015065  -0.001  0.100221  -0.000752  1.012498  -0.001  0.118217  0.096192  -0.001274  1.017409  -0.002
H  H14  1  0.91524624  0.01786996  0.39585207  1  0.376871  9e-06  0.851648  0.0  0.364863  -2e-06  0.905336  0.0  0.373101  -4e-06  0.8958  0.0  0.31726  0.358824  -3e-06  0.912482  0.0
H  H15  1  0.58472444  0.98211217  0.89585554  1  0.376691  9e-06  0.851817  0.0  0.364743  -2e-06  0.905372  0.0  0.37297  -4e-06  0.895862  0.0  0.317364  0.358719  -3e-06  0.912475  0.0
H  H16  1  0.08479989  0.98211587  0.60415365  1  0.376856  9e-06  0.851703  0.0  0.364867  -2e-06  0.905353  0.0  0.373107  -4e-06  0.895819  0.0  0.317262  0.358828  -3e-06  0.912492  0.0
H  H17  1  0.41523150  0.01789178  0.10415879  1  0.376748  9e-06  0.851626  0.0  0.364764  -2e-06  0.905268  0.0  0.372995  -4e-06  0.895748  0.0  0.317215  0.358731  -3e-06  0.912397  0.0
H  H18  1  0.20517057  0.95406610  0.34453827  1  0.050538  -0.000202  0.948333  0.0  0.063832  -9.5e-05  1.017184  0.0  0.064377  -8.5e-05  1.016499  0.0  0.095302  0.063213  -0.000114  1.017812  0.0
H  H19  1  0.29482298  0.04592626  0.84453757  1  0.050521  -0.000203  0.948239  0.0  0.063785  -9.5e-05  1.017178  0.0  0.064327  -8.5e-05  1.0165  0.0  0.09529  0.063165  -0.000114  1.017805  0.0
H  H20  1  0.79482082  0.04592300  0.65547293  1  0.050609  -0.000203  0.948266  0.0  0.063865  -9.5e-05  1.017166  0.0  0.064411  -8.5e-05  1.016493  0.0  0.095285  0.063251  -0.000114  1.017784  0.0
H  H21  1  0.70519634  0.95406923  0.15548302  1  0.050448  -0.000203  0.948261  0.0  0.063815  -9.5e-05  1.017121  0.0  0.064357  -8.5e-05  1.016456  0.0  0.09524  0.063201  -0.000114  1.01774  0.0
H  H22  1  0.04558481  0.95672796  0.24103412  1  0.052825  -0.000321  0.921596  0.0  0.070376  -0.000274  0.980443  0.0  0.070942  -0.000176  0.979458  0.0  0.099612  0.069681  -0.000361  0.98142  0.0
H  H23  1  0.45440155  0.04324007  0.74103212  1  0.052714  -0.00032  0.9216  0.0  0.070293  -0.000274  0.980452  0.0  0.070865  -0.000176  0.979462  0.0  0.099574  0.069598  -0.000361  0.981423  0.0
H  H24  1  0.95446111  0.04324772  0.75894267  1  0.052887  -0.00032  0.921587  0.0  0.070425  -0.000274  0.9804  0.0  0.070998  -0.000176  0.97942  0.0  0.099579  0.06973  -0.000361  0.981374  0.0
H  H25  1  0.54554524  0.95676569  0.25894780  1  0.05281  -0.00032  0.921595  0.0  0.070393  -0.000274  0.980451  0.0  0.070966  -0.000176  0.979469  0.0  0.099593  0.0697  -0.000361  0.981422  0.0
H  H26  1  0.06969258  0.46940698  0.27979721  1  0.087711  -0.001091  0.953907  -0.002  0.095952  -0.000958  1.0188  -0.001  0.09747  -0.00065  1.016777  -0.001  0.11637  0.094374  -0.001209  1.020608  -0.002
H  H27  1  0.43031407  0.53057501  0.77978560  1  0.087771  -0.001091  0.953836  -0.002  0.095958  -0.000957  1.018782  -0.001  0.097472  -0.00065  1.016764  -0.001  0.116482  0.094437  -0.001209  1.020527  -0.002
H  H28  1  0.93031027  0.53057773  0.72022572  1  0.087972  -0.001091  0.953688  -0.002  0.096045  -0.000957  1.018721  -0.001  0.097559  -0.00065  1.016705  -0.001  0.116514  0.094526  -0.001209  1.020461  -0.002
H  H29  1  0.56966590  0.46943623  0.22022794  1  0.087816  -0.001092  0.953686  -0.002  0.095887  -0.000957  1.01871  -0.001  0.097402  -0.00065  1.016692  -0.001  0.116412  0.094362  -0.001209  1.020461  -0.002
H  H30  1  0.12118944  0.80012557  0.13722578  1  0.09263  -0.00032  0.978006  -0.001  0.101302  -6e-05  1.047239  0.0  0.103751  2.2e-05  1.045476  0.0  0.104093  0.099238  -0.00014  1.048859  0.0
H  H31  1  0.37879809  0.19983745  0.63722479  1  0.092789  -0.00032  0.977866  -0.001  0.101416  -6e-05  1.047193  0.0  0.103866  2.2e-05  1.045426  0.0  0.104185  0.099352  -0.00014  1.04882  0.0
H  H32  1  0.87879237  0.19984504  0.86276509  1  0.092762  -0.00032  0.977839  -0.001  0.101398  -6e-05  1.047141  0.0  0.103847  2.2e-05  1.045377  0.0  0.104156  0.099339  -0.00014  1.048763  0.0
H  H33  1  0.62121609  0.80018601  0.36276530  1  0.092847  -0.00032  0.97767  -0.001  0.101449  -6e-05  1.047051  0.0  0.103898  2.2e-05  1.045278  0.0  0.104148  0.099387  -0.00014  1.048678  0.0
H  H34  1  0.12199991  0.58901242  0.11932595  1  0.099458  -0.000385  0.975875  0.0  0.109018  -0.000491  1.038233  -0.001  0.10991  -0.00033  1.040594  0.0  0.103174  0.108063  -0.000615  1.036992  -0.001
H  H35  1  0.37799206  0.41094222  0.61931886  1  0.099468  -0.000384  0.975825  0.0  0.109054  -0.000491  1.038173  -0.001  0.109956  -0.00033  1.040511  0.0  0.103198  0.108101  -0.000615  1.036931  -0.001
H  H36  1  0.87795948  0.41095257  0.88068291  1  0.099328  -0.000384  0.975829  0.0  0.109022  -0.000491  1.038088  -0.001  0.109924  -0.000329  1.040424  0.0  0.103162  0.108067  -0.000615  1.036846  -0.001
H  H37  1  0.62198530  0.58907835  0.38068843  1  0.099498  -0.000385  0.975842  0.0  0.109137  -0.000491  1.038135  -0.001  0.110039  -0.00033  1.040468  0.0  0.103236  0.108184  -0.000615  1.036896  -0.001
C  C38  1  0.31363224  0.65105955  0.58185598  1  0.361085  0.025755  3.822286  0.017  0.354779  -0.002285  4.100239  -0.007  0.381945  -0.001984  4.114585  -0.007  0.197791  0.335855  -0.002973  4.090055  -0.007
C  C39  1  0.18639001  0.34894732  0.08185294  1  0.360958  0.025782  3.822594  0.017  0.354756  -0.002283  4.100593  -0.007  0.381864  -0.001983  4.114902  -0.007  0.197772  0.335828  -0.002974  4.090402  -0.007
C  C40  1  0.68635233  0.34894655  0.41814662  1  0.36077  0.025776  3.822475  0.017  0.35446  -0.002298  4.100464  -0.007  0.381625  -0.001992  4.114828  -0.007  0.1977  0.335533  -0.002973  4.090274  -0.007
C  C41  1  0.81362926  0.65105663  0.91814497  1  0.360765  0.02579  3.822377  0.017  0.35455  -0.00229  4.100381  -0.007  0.381669  -0.001988  4.114709  -0.007  0.197653  0.335626  -0.002975  4.090187  -0.007
C  C42  1  0.47284599  0.83941461  0.55592922  1  0.624263  0.005396  3.932836  0.006  0.577926  -0.000373  4.2312  0.0  0.609479  -0.000122  4.232384  0.0  0.226212  0.556285  -0.000696  4.229276  0.001
C  C43  1  0.02717134  0.16059214  0.05591429  1  0.624487  0.005398  3.932561  0.006  0.578081  -0.000374  4.231134  0.0  0.609576  -0.000122  4.232316  0.0  0.22612  0.556437  -0.000696  4.229226  0.001
C  C44  1  0.52715254  0.16059469  0.44408120  1  0.624281  0.005397  3.932925  0.006  0.577914  -0.000385  4.231334  0.0  0.609469  -0.000127  4.232515  0.0  0.226226  0.556271  -0.000697  4.229425  0.001
C  C45  1  0.97284191  0.83940766  0.94409221  1  0.624533  0.005399  3.932412  0.006  0.578156  -0.00038  4.230956  0.0  0.609661  -0.000125  4.232138  0.0  0.226233  0.556514  -0.000697  4.229047  0.001
C  C46  1  0.63545725  0.66404488  0.57581794  1  0.309989  0.023655  3.856207  0.019  0.310074  0.002792  4.131788  0.003  0.329951  0.002172  4.150055  0.002  0.175224  0.296557  0.00301  4.118277  0.003
C  C47  1  0.86457811  0.33596846  0.07581545  1  0.309705  0.023677  3.856227  0.019  0.309909  0.002797  4.131855  0.003  0.32972  0.002174  4.150078  0.002  0.1751  0.296395  0.00301  4.11834  0.003
C  C48  1  0.36453764  0.33596700  0.42418153  1  0.309946  0.023649  3.856379  0.019  0.310028  0.002796  4.13196  0.003  0.329903  0.002167  4.150227  0.002  0.175176  0.296503  0.00301  4.118439  0.003
C  C49  1  0.13543795  0.66403215  0.92418245  1  0.309884  0.023674  3.856175  0.019  0.310061  0.002801  4.131772  0.003  0.329888  0.002171  4.149998  0.002  0.175231  0.296542  0.003011  4.118252  0.003
C  C50  1  0.05348796  0.71904313  0.38862084  1  0.084794  0.009601  3.65567  0.007  0.049921  0.002597  3.903257  0.002  0.058706  0.004488  3.923246  0.003  0.046986  0.043993  0.001093  3.891497  0.0
C  C51  1  0.44651177  0.28095090  0.88861491  1  0.084676  0.009589  3.655793  0.007  0.049846  0.002596  3.903337  0.002  0.058644  0.004486  3.923325  0.003  0.046997  0.043922  0.001091  3.891579  0.0
C  C52  1  0.94653232  0.28094981  0.61138097  1  0.084404  0.009593  3.655959  0.007  0.049666  0.002592  3.903545  0.002  0.058485  0.004485  3.923487  0.003  0.046991  0.043735  0.00109  3.891785  0.0
C  C53  1  0.55347497  0.71905178  0.11138299  1  0.084595  0.009596  3.655956  0.007  0.049844  0.002594  3.903547  0.002  0.058642  0.004487  3.92353  0.003  0.046953  0.04392  0.001092  3.891789  0.0
C  C54  1  0.47397761  0.71765886  0.57490105  1  -0.311571  -0.059116  3.923167  -0.055  -0.318218  -0.014551  4.192604  -0.015  -0.344785  -0.006967  4.213404  -0.008  -0.05773  -0.298148  -0.022611  4.175763  -0.021
C  C55  1  0.02605293  0.28234847  0.07488627  1  -0.311371  -0.059133  3.922963  -0.055  -0.318265  -0.014562  4.192799  -0.015  -0.344622  -0.006975  4.213315  -0.008  -0.057585  -0.298187  -0.022619  4.175941  -0.021
C  C56  1  0.52601945  0.28234961  0.42510702  1  -0.31114  -0.059132  3.923258  -0.055  -0.317765  -0.014504  4.192665  -0.015  -0.344336  -0.00695  4.21348  -0.008  -0.057456  -0.297678  -0.022624  4.175808  -0.021
C  C57  1  0.97396179  0.71765215  0.92510850  1  -0.311391  -0.059125  3.923161  -0.055  -0.318231  -0.014532  4.192922  -0.015  -0.344632  -0.006961  4.213498  -0.008  -0.0577  -0.298155  -0.022624  4.176061  -0.021
C  C58  1  0.07203494  0.91767326  0.31725232  1  0.112405  -0.000784  3.674778  -0.001  0.047888  -0.000727  3.94161  -0.001  0.055712  -0.000476  3.947056  0.0  -0.068035  0.042896  -0.000952  3.937812  -0.001
C  C59  1  0.42796048  0.08231037  0.81724683  1  0.112627  -0.000785  3.674223  -0.001  0.047984  -0.000726  3.941219  -0.001  0.055804  -0.000476  3.94667  0.0  -0.067979  0.042988  -0.000952  3.937429  -0.001
C  C60  1  0.92797610  0.08231219  0.68273464  1  0.112204  -0.000785  3.674825  -0.001  0.047774  -0.000726  3.941593  -0.001  0.05557  -0.000476  3.94708  0.0  -0.068082  0.042772  -0.000952  3.937798  -0.001
C  C61  1  0.57203337  0.91769476  0.18274090  1  0.112523  -0.000784  3.674506  -0.001  0.047808  -0.000726  3.941583  -0.001  0.055604  -0.000477  3.947067  0.0  -0.068029  0.042817  -0.000952  3.937788  -0.001
C  C62  1  0.07381964  0.56109999  0.28303799  1  0.125502  0.0097  3.692022  0.007  0.09432  0.002917  3.944636  0.002  0.102876  0.004879  3.965255  0.003  0.04432  0.089195  0.001416  3.931215  0.001
C  C63  1  0.42617378  0.43888400  0.78303250  1  0.125437  0.009691  3.691703  0.007  0.094352  0.002917  3.944337  0.002  0.102913  0.004881  3.964971  0.003  0.044237  0.089183  0.001417  3.930905  0.001
C  C64  1  0.92617271  0.43888656  0.71697321  1  0.125115  0.009698  3.691667  0.007  0.094154  0.002919  3.944367  0.002  0.102709  0.004882  3.964997  0.003  0.044205  0.088983  0.001417  3.930922  0.001
C  C65  1  0.57380753  0.56112722  0.21697636  1  0.125479  0.009697  3.691764  0.007  0.09453  0.002916  3.94444  0.002  0.103089  0.004881  3.965074  0.003  0.044271  0.089359  0.001416  3.931009  0.001
C  C66  1  0.07631405  0.79217896  0.30333369  1  0.021986  -0.008857  3.717472  -0.009  0.050669  -0.00407  3.948474  -0.005  0.044774  -0.003726  3.971956  -0.005  -0.004446  0.054152  -0.004279  3.932828  -0.005
C  C67  1  0.42368545  0.20780321  0.80333010  1  0.021811  -0.008848  3.717429  -0.009  0.050619  -0.00407  3.948325  -0.005  0.044722  -0.003724  3.971799  -0.005  -0.004411  0.0541  -0.004279  3.932679  -0.005
C  C68  1  0.92370358  0.20780555  0.69666265  1  0.022218  -0.008852  3.717559  -0.009  0.050788  -0.004068  3.948565  -0.005  0.044892  -0.003725  3.972056  -0.005  -0.004254  0.054278  -0.004279  3.932919  -0.005
C  C69  1  0.57629253  0.79220382  0.19666467  1  0.022109  -0.008852  3.717621  -0.009  0.050781  -0.004068  3.948653  -0.005  0.04489  -0.003724  3.972134  -0.005  -0.00427  0.05426  -0.004279  3.933004  -0.005
C  C70  1  0.10129476  0.74494461  0.20492022  1  -0.053568  0.011397  3.702958  0.008  -0.080097  0.004897  3.946502  0.003  -0.076816  0.005654  3.965662  0.003  -0.067877  -0.082134  0.004201  3.933866  0.002
C  C71  1  0.39869066  0.25503045  0.70491593  1  -0.053652  0.011385  3.702722  0.008  -0.080198  0.004899  3.946246  0.003  -0.076915  0.005655  3.965405  0.003  -0.068053  -0.082233  0.004201  3.933612  0.002
C  C72  1  0.89869520  0.25503520  0.79507769  1  -0.053806  0.011392  3.702557  0.008  -0.080277  0.004895  3.946132  0.003  -0.076996  0.005654  3.965296  0.003  -0.068053  -0.082318  0.004201  3.933503  0.002
C  C73  1  0.60129815  0.74498574  0.29507963  1  -0.053831  0.011392  3.703023  0.008  -0.08029  0.004896  3.946544  0.003  -0.077003  0.005655  3.965697  0.003  -0.068034  -0.082326  0.004201  3.933909  0.002
C  C74  1  0.10120372  0.62826994  0.19472972  1  -0.105969  -0.009267  3.739587  -0.009  -0.116589  -0.003897  3.987837  -0.005  -0.124086  -0.003522  4.011643  -0.004  -0.084994  -0.111746  -0.004184  3.971982  -0.005
C  C75  1  0.39879514  0.37170369  0.69472531  1  -0.105984  -0.009258  3.739562  -0.009  -0.116655  -0.003897  3.987866  -0.005  -0.124158  -0.003522  4.011685  -0.004  -0.085047  -0.111819  -0.004183  3.972029  -0.005
C  C76  1  0.89878086  0.37170994  0.80527601  1  -0.105716  -0.009262  3.739349  -0.009  -0.116524  -0.003896  3.987653  -0.005  -0.124024  -0.003521  4.01147  -0.004  -0.085027  -0.111685  -0.004183  3.971819  -0.005
C  C77  1  0.60118452  0.62831432  0.30527963  1  -0.105978  -0.009262  3.740181  -0.009  -0.116742  -0.003897  3.9885  -0.005  -0.12424  -0.003523  4.012315  -0.004  -0.08502  -0.111903  -0.004184  3.972662  -0.005
N  N78  1  0.77450082  0.62283117  0.57383460  1  -0.451078  -0.03144  2.707287  -0.036  -0.455619  -0.005875  2.972134  -0.008  -0.475081  -0.002384  2.97906  -0.005  -0.33225  -0.441955  -0.009917  2.967198  -0.012
N  N79  1  0.72554623  0.37718785  0.07384097  1  -0.45089  -0.031458  2.707453  -0.036  -0.455454  -0.005879  2.972275  -0.008  -0.474946  -0.002385  2.979235  -0.005  -0.332182  -0.441791  -0.009919  2.967307  -0.012
N  N80  1  0.22549577  0.37716546  0.42616095  1  -0.451129  -0.031434  2.707481  -0.036  -0.455686  -0.005896  2.972336  -0.008  -0.475142  -0.002389  2.979259  -0.005  -0.332308  -0.442021  -0.009918  2.96738  -0.012
N  N81  1  0.27447824  0.62282364  0.92616398  1  -0.450945  -0.031456  2.707307  -0.036  -0.455501  -0.005892  2.972121  -0.008  -0.474988  -0.002388  2.979068  -0.005  -0.332194  -0.441848  -0.009921  2.967169  -0.012
N  N82  1  0.05068180  0.60636703  0.37807854  1  -0.302631  -0.073631  3.377381  -0.089  -0.245752  -0.057454  3.661336  -0.078  -0.280219  -0.046794  3.690156  -0.069  -0.34152  -0.226065  -0.061725  3.644407  -0.079
N  N83  1  0.44931133  0.39362667  0.87807307  1  -0.302503  -0.073613  3.377241  -0.089  -0.245723  -0.057446  3.661233  -0.078  -0.280232  -0.046788  3.690075  -0.069  -0.341474  -0.22606  -0.061713  3.64434  -0.079
N  N84  1  0.94932247  0.39362697  0.62193032  1  -0.302353  -0.073613  3.377133  -0.089  -0.245644  -0.057441  3.661129  -0.078  -0.280115  -0.046783  3.689953  -0.069  -0.341497  -0.225961  -0.06171  3.644225  -0.079
N  N85  1  0.55068495  0.60637674  0.12193187  1  -0.302637  -0.07362  3.377445  -0.089  -0.245906  -0.057447  3.661424  -0.078  -0.280412  -0.04679  3.690263  -0.069  -0.341518  -0.226243  -0.061717  3.644528  -0.079
N  N86  1  0.17953059  0.59186001  0.58875327  1  -0.474739  -0.061903  2.936468  -0.072  -0.472488  -0.033912  3.243629  -0.044  -0.501711  -0.025943  3.247183  -0.037  -0.373437  -0.454245  -0.039263  3.242484  -0.048
N  N87  1  0.32047387  0.40816345  0.08875994  1  -0.474628  -0.061925  2.936568  -0.072  -0.472378  -0.033912  3.243654  -0.044  -0.501649  -0.025942  3.247246  -0.037  -0.373443  -0.454151  -0.039264  3.242502  -0.048
N  N88  1  0.82045028  0.40815714  0.41123995  1  -0.474615  -0.061941  2.936227  -0.072  -0.472393  -0.033928  3.243407  -0.044  -0.501627  -0.025944  3.246981  -0.037  -0.373439  -0.454138  -0.039266  3.242248  -0.048
N  N89  1  0.67953330  0.59184066  0.91123718  1  -0.474537  -0.061945  2.93617  -0.072  -0.472301  -0.03392  3.243298  -0.044  -0.501573  -0.025942  3.246888  -0.037  -0.373364  -0.45407  -0.039264  3.242146  -0.048
N  N90  1  0.63544157  0.89647211  0.53990100  1  -0.705371  -0.007697  3.119082  -0.009  -0.6723  -0.002746  3.355839  -0.003  -0.694692  -0.001392  3.349182  -0.002  -0.583462  -0.656396  -0.004389  3.359903  -0.005
N  N91  1  0.86456760  0.10354183  0.03988862  1  -0.70544  -0.007702  3.118949  -0.009  -0.672342  -0.002748  3.355759  -0.003  -0.694744  -0.001394  3.349129  -0.002  -0.583444  -0.656431  -0.004392  3.359822  -0.005
N  N92  1  0.36455592  0.10353043  0.46009221  1  -0.705442  -0.007697  3.119174  -0.009  -0.672342  -0.002746  3.355921  -0.003  -0.694751  -0.001393  3.349307  -0.002  -0.583536  -0.656429  -0.00439  3.359976  -0.005
N  N93  1  0.13544412  0.89646560  0.96010772  1  -0.705475  -0.007698  3.118786  -0.009  -0.672348  -0.002747  3.355556  -0.003  -0.694751  -0.001394  3.348938  -0.002  -0.583401  -0.656432  -0.004391  3.359605  -0.005
O  O94  1  0.32737147  0.88775990  0.55367026  1  -0.605129  -0.004344  1.91887  -0.006  -0.56247  -0.001257  2.136651  -0.002  -0.585233  -0.000552  2.128583  -0.001  -0.320885  -0.546066  -0.001964  2.141493  -0.003
O  O95  1  0.17264229  0.11224089  0.05364846  1  -0.605267  -0.004346  1.918792  -0.006  -0.562518  -0.001258  2.136582  -0.002  -0.585286  -0.000552  2.128536  -0.001  -0.320818  -0.546121  -0.001965  2.141445  -0.003
O  O96  1  0.67262733  0.11225109  0.44635033  1  -0.605122  -0.00435  1.918927  -0.006  -0.562459  -0.001265  2.136697  -0.002  -0.585223  -0.000554  2.12863  -0.001  -0.320895  -0.546056  -0.001967  2.141556  -0.003
O  O97  1  0.82736896  0.88775471  0.94637055  1  -0.60519  -0.004348  1.918754  -0.006  -0.562553  -0.001262  2.13659  -0.002  -0.585313  -0.000554  2.128534  -0.001  -0.320893  -0.546158  -0.001966  2.141447  -0.003
O  O98  1  0.93431266  0.93756135  0.39205690  1  -0.55326  -0.000175  2.060567  0.0  -0.50617  -0.000122  2.285327  0.0  -0.521362  -6.2e-05  2.274715  0.0  -0.406224  -0.495254  -0.000254  2.292533  0.0
O  O99  1  0.56568548  0.06242365  0.89205022  1  -0.55313  -0.000176  2.060337  0.0  -0.50602  -0.000122  2.285166  0.0  -0.52121  -6.2e-05  2.274552  0.0  -0.406359  -0.495109  -0.000254  2.292369  0.0
O  O100  1  0.06565431  0.06241792  0.60790191  1  -0.553275  -0.000175  2.060643  0.0  -0.506226  -0.000121  2.285366  0.0  -0.521417  -6.2e-05  2.274766  0.0  -0.406218  -0.495302  -0.000254  2.292571  0.0
O  O101  1  0.43436198  0.93758838  0.10790389  1  -0.553187  -0.000175  2.060237  0.0  -0.50608  -0.000122  2.285113  0.0  -0.521266  -6.2e-05  2.274512  0.0  -0.406196  -0.495167  -0.000254  2.292313  0.0
