# generated using pymatgen
data_K2H22PtC20S4Cl4O3
_symmetry_space_group_name_H-M   'P 1'
_cell_length_a   8.05534874
_cell_length_b   12.61525369
_cell_length_c   14.31964238
_cell_angle_alpha   83.44675432
_cell_angle_beta   75.87416746
_cell_angle_gamma   77.71804045
_symmetry_Int_Tables_number   1
_chemical_formula_structural   K2H22PtC20S4Cl4O3
_chemical_formula_sum   'K4 H44 Pt2 C40 S8 Cl8 O6'
_cell_volume   1375.89188903
_cell_formula_units_Z   2
loop_
 _symmetry_equiv_pos_site_id
 _symmetry_equiv_pos_as_xyz
  1  'x, y, z'
loop_
 _atom_site_type_symbol
 _atom_site_label
 _atom_site_symmetry_multiplicity
 _atom_site_fract_x
 _atom_site_fract_y
 _atom_site_fract_z
 _atom_site_occupancy
 _atom_site_hle17_bader_spin_density
 _atom_site_hle17_ddec_charge
 _atom_site_hle17_ddec_spin_density
 _atom_site_hle17_ddec_sum_bond_order
 _atom_site_hle17_magmom
 _atom_site_hse06_10hf_bader_spin_density
 _atom_site_hse06_10hf_ddec_charge
 _atom_site_hse06_10hf_ddec_spin_density
 _atom_site_hse06_10hf_ddec_sum_bond_order
 _atom_site_hse06_10hf_magmom
 _atom_site_hse06_bader_spin_density
 _atom_site_hse06_ddec_charge
 _atom_site_hse06_ddec_spin_density
 _atom_site_hse06_ddec_sum_bond_order
 _atom_site_hse06_magmom
 _atom_site_pbe_bader_spin_density
 _atom_site_pbe_cm5_charge
 _atom_site_pbe_ddec_charge
 _atom_site_pbe_ddec_spin_density
 _atom_site_pbe_ddec_sum_bond_order
 _atom_site_pbe_magmom
K  K0  1  0.03243393  0.48994190  0.75768465  1  0  0.851922  0  0.543879  0  0  0.763806  0  0.772635  0  0  0.781267  0  0.750097  0  0  0.590959  0.750947  0  0.788611  0
K  K1  1  0.96756806  0.51005152  0.24231824  1  0  0.851913  0  0.543895  0  0  0.763779  0  0.772679  0  0  0.781243  0  0.750131  0  0  0.590941  0.750916  0  0.788655  0
K  K2  1  0.50079898  0.44532843  0.83157214  1  0  0.8982  0  0.454935  0  0  0.819141  0  0.663515  0  0  0.833233  0  0.644063  0  0  0.585085  0.808756  0  0.677241  0
K  K3  1  0.49918463  0.55467877  0.16843751  1  0  0.898195  0  0.45497  0  0  0.819172  0  0.663494  0  0  0.833205  0  0.644142  0  0  0.585095  0.808787  0  0.677214  0
H  H4  1  0.01490101  0.02051452  0.86535291  1  0  0.10772  0  0.958213  0  0  0.117245  0  1.022045  0  0  0.119842  0  1.021299  0  0  0.098779  0.115354  0  1.022686  0
H  H5  1  0.98510778  0.97948135  0.13464386  1  0  0.107691  0  0.958198  0  0  0.117189  0  1.022073  0  0  0.119798  0  1.021315  0  0  0.098729  0.115293  0  1.022722  0
H  H6  1  0.28685028  0.96636595  0.92951390  1  0  0.113684  0  0.939607  0  0  0.125545  0  0.997491  0  0  0.128645  0  0.995856  0  0  0.103927  0.123347  0  0.998694  0
H  H7  1  0.71315474  0.03362992  0.07048690  1  0  0.113731  0  0.939723  0  0  0.125577  0  0.997635  0  0  0.128676  0  0.996002  0  0  0.103928  0.12338  0  0.998833  0
H  H8  1  0.20005727  0.95984159  0.52918597  1  0  0.11245  0  0.946721  0  0  0.126371  0  1.00285  0  0  0.129156  0  1.001806  0  0  0.105065  0.124362  0  1.003671  0
H  H9  1  0.79994727  0.04015999  0.47081779  1  0  0.112388  0  0.946703  0  0  0.126334  0  1.002824  0  0  0.129101  0  1.001801  0  0  0.105012  0.124323  0  1.003647  0
H  H10  1  0.97580590  0.99386901  0.68444960  1  0  0.10396  0  0.974484  0  0  0.109228  0  1.047617  0  0  0.112544  0  1.04551  0  0  0.095141  0.106822  0  1.049248  0
H  H11  1  0.02419273  0.00613091  0.31555238  1  0  0.103932  0  0.974523  0  0  0.109198  0  1.047648  0  0  0.11252  0  1.045536  0  0  0.095133  0.106793  0  1.049276  0
H  H12  1  0.38179987  0.70850621  0.75601964  1  0  0.057959  0  0.928163  0  0  0.071299  0  0.992045  0  0  0.072795  0  0.99033  0  0  0.094166  0.070067  0  0.993466  0
H  H13  1  0.61819639  0.29149287  0.24397858  1  0  0.05801  0  0.928032  0  0  0.071346  0  0.991936  0  0  0.072841  0  0.990216  0  0  0.0942  0.070116  0  0.993361  0
H  H14  1  0.17289394  0.67356867  0.80477200  1  0  0.038355  0  1.008358  0  0  0.046702  0  1.086214  0  0  0.046176  0  1.08784  0  0  0.089202  0.046952  0  1.085193  0
H  H15  1  0.82710180  0.32642795  0.19522585  1  0  0.038339  0  1.008277  0  0  0.0467  0  1.086119  0  0  0.046175  0  1.08774  0  0  0.089185  0.046951  0  1.085097  0
H  H16  1  0.20169161  0.84269637  0.66830395  1  0  0.079246  0  0.949592  0  0  0.09946  0  1.00777  0  0  0.099314  0  1.009317  0  0  0.093289  0.099522  0  1.006736  0
H  H17  1  0.79830059  0.15730351  0.33169756  1  0  0.079242  0  0.949537  0  0  0.099406  0  1.007789  0  0  0.099258  0  1.00934  0  0  0.093278  0.099467  0  1.006755  0
H  H18  1  0.07087790  0.74858352  0.65855907  1  0  0.06887  0  0.950749  0  0  0.080167  0  1.022504  0  0  0.081183  0  1.023088  0  0  0.084809  0.079359  0  1.022189  0
H  H19  1  0.92912088  0.25141556  0.34143740  1  0  0.068841  0  0.950629  0  0  0.080124  0  1.022414  0  0  0.081138  0  1.022999  0  0  0.084786  0.079313  0  1.022102  0
H  H20  1  0.28058147  0.73155110  0.50381430  1  0  0.08176  0  0.96306  0  0  0.098167  0  1.024443  0  0  0.098024  0  1.026886  0  0  0.089342  0.0982  0  1.022848  0
H  H21  1  0.71941911  0.26845450  0.49618332  1  0  0.081688  0  0.963179  0  0  0.098155  0  1.024502  0  0  0.098011  0  1.026945  0  0  0.089343  0.098187  0  1.022908  0
H  H22  1  0.45218326  0.74981048  0.55564985  1  0  0.069584  0  0.966369  0  0  0.080452  0  1.037925  0  0  0.081212  0  1.038948  0  0  0.080429  0.079851  0  1.037267  0
H  H23  1  0.54781406  0.25019349  0.44435120  1  0  0.069604  0  0.96634  0  0  0.080466  0  1.037918  0  0  0.081226  0  1.038944  0  0  0.080446  0.079865  0  1.037261  0
H  H24  1  0.30373730  0.54654527  0.56342651  1  0  0.033812  0  0.976329  0  0  0.032195  0  1.072333  0  0  0.034835  0  1.068109  0  0  0.080751  0.030144  0  1.075449  0
H  H25  1  0.69626247  0.45345869  0.43656790  1  0  0.033783  0  0.976432  0  0  0.032164  0  1.072419  0  0  0.034797  0  1.068195  0  0  0.080719  0.030108  0  1.07553  0
H  H26  1  0.51963060  0.55852065  0.56904147  1  0  0.049677  0  0.956331  0  0  0.060593  0  1.026825  0  0  0.061051  0  1.027164  0  0  0.089547  0.060149  0  1.026733  0
H  H27  1  0.48036817  0.44148249  0.43095457  1  0  0.049639  0  0.95633  0  0  0.06056  0  1.026782  0  0  0.061014  0  1.027117  0  0  0.089527  0.060113  0  1.026691  0
H  H28  1  0.50224191  0.34120552  0.63704457  1  0  0.051702  0  0.950616  0  0  0.064642  0  1.01901  0  0  0.065047  0  1.01925  0  0  0.096531  0.064215  0  1.019042  0
H  H29  1  0.49775515  0.65879927  0.36295713  1  0  0.051668  0  0.950588  0  0  0.064604  0  1.018984  0  0  0.065011  0  1.019219  0  0  0.096484  0.064176  0  1.019008  0
H  H30  1  0.29608322  0.33235640  0.61549195  1  0  0.03686  0  0.960443  0  0  0.04443  0  1.039301  0  0  0.045092  0  1.038989  0  0  0.084658  0.043811  0  1.039679  0
H  H31  1  0.70391590  0.66764595  0.38450902  1  0  0.036903  0  0.960391  0  0  0.04446  0  1.039254  0  0  0.045123  0  1.03894  0  0  0.084677  0.04384  0  1.039631  0
H  H32  1  0.39476291  0.14648401  0.59943881  1  0  0.072017  0  0.970193  0  0  0.085164  0  1.037564  0  0  0.085063  0  1.039772  0  0  0.082789  0.085148  0  1.036148  0
H  H33  1  0.60523920  0.85352079  0.40055798  1  0  0.072001  0  0.970171  0  0  0.085149  0  1.037529  0  0  0.085047  0  1.039744  0  0  0.082783  0.085134  0  1.036112  0
H  H34  1  0.58907705  0.14848901  0.63543742  1  0  0.067917  0  0.970648  0  0  0.078402  0  1.043919  0  0  0.078884  0  1.044805  0  0  0.080317  0.077982  0  1.0434  0
H  H35  1  0.41092508  0.85151579  0.36456076  1  0  0.067856  0  0.970625  0  0  0.078335  0  1.043884  0  0  0.078818  0  1.044772  0  0  0.080288  0.077918  0  1.043367  0
H  H36  1  0.30666991  0.05902388  0.75376490  1  0  0.073958  0  0.946467  0  0  0.093582  0  1.005731  0  0  0.093578  0  1.007264  0  0  0.087589  0.093519  0  1.004738  0
H  H37  1  0.69333346  0.94097684  0.24623004  1  0  0.073947  0  0.946525  0  0  0.093606  0  1.005763  0  0  0.093603  0  1.007294  0  0  0.087576  0.093543  0  1.00477  0
H  H38  1  0.47176799  0.09941460  0.79689153  1  0  0.06824  0  0.957111  0  0  0.078735  0  1.029255  0  0  0.080138  0  1.028704  0  0  0.077893  0.077661  0  1.029735  0
H  H39  1  0.52823286  0.90058612  0.20310587  1  0  0.06827  0  0.957123  0  0  0.078775  0  1.029272  0  0  0.080179  0  1.028722  0  0  0.077903  0.077704  0  1.02975  0
H  H40  1  0.11137772  0.23147750  0.78458855  1  0  0.035666  0  0.955424  0  0  0.044664  0  1.03136  0  0  0.044981  0  1.031449  0  0  0.084972  0.04431  0  1.031445  0
H  H41  1  0.88862236  0.76852159  0.21540842  1  0  0.035679  0  0.955352  0  0  0.044683  0  1.031327  0  0  0.045001  0  1.031415  0  0  0.084946  0.044329  0  1.031413  0
H  H42  1  0.22093062  0.22408158  0.88069171  1  0  0.062603  0  0.959825  0  0  0.072703  0  1.029746  0  0  0.072687  0  1.030529  0  0  0.094087  0.072593  0  1.029327  0
H  H43  1  0.77906899  0.77591507  0.11930768  1  0  0.062515  0  0.959839  0  0  0.072646  0  1.029778  0  0  0.07263  0  1.03056  0  0  0.094068  0.072538  0  1.029358  0
H  H44  1  0.70863688  0.65494357  0.83366263  1  0  0.385169  0  0.930847  0  0  0.355181  0  0.995977  0  0  0.364429  0  0.982508  0  0  0.262073  0.34863  0  1.005521  0
H  H45  1  0.29136353  0.34505473  0.16633857  1  0  0.385214  0  0.930784  0  0  0.355229  0  0.995911  0  0  0.364477  0  0.98244  0  0  0.262066  0.348681  0  1.00545  0
H  H46  1  0.70709706  0.65087123  0.72465106  1  0  0.384384  0  0.93272  0  0  0.355739  0  0.996179  0  0  0.364934  0  0.982798  0  0  0.263147  0.349249  0  1.005628  0
H  H47  1  0.29290260  0.34912543  0.27535112  1  0  0.384371  0  0.932732  0  0  0.355732  0  0.99618  0  0  0.364927  0  0.982799  0  0  0.263148  0.349239  0  1.005635  0
Pt  Pt48  1  0.00000044  0.49999833  0.00000117  1  0  -0.077124  0  3.955756  0  0  -0.067432  0  4.606925  0  0  -0.060064  0  4.579772  0  0  0.373899  -0.070729  0  4.623621  0
Pt  Pt49  1  0.99999751  0.50000100  0.50000205  1  0  -0.001942  0  3.85804  0  0  0.008843  0  4.505048  0  0  0.015123  0  4.478349  0  0  0.388585  0.006286  0  4.521543  0
C  C50  1  0.98540895  0.75681521  0.94477038  1  0  -0.012139  0  3.797204  0  0  0.000106  0  4.046675  0  0  0.001777  0  4.068706  0  0  -0.030007  -0.001174  0  4.031905  0
C  C51  1  0.01459604  0.24318065  0.05522833  1  0  -0.012162  0  3.797145  0  0  7.9e-05  0  4.04661  0  0  0.001772  0  4.068607  0  0  -0.029959  -0.001196  0  4.031831  0
C  C52  1  0.94429994  0.86347944  0.90391297  1  0  0.091311  0  3.772713  0  0  0.098601  0  4.037992  0  0  0.100756  0  4.058715  0  0  0.001478  0.096964  0  4.024089  0
C  C53  1  0.05570760  0.13651643  0.09608538  1  0  0.091238  0  3.772738  0  0  0.09858  0  4.037935  0  0  0.100728  0  4.058658  0  0  0.001477  0.096947  0  4.024021  0
C  C54  1  0.05123426  0.93873078  0.89708177  1  0  -0.132912  0  3.801111  0  0  -0.155672  0  4.060134  0  0  -0.157398  0  4.080738  0  0  -0.110687  -0.154402  0  4.046236  0
C  C55  1  0.94877354  0.06126428  0.10291663  1  0  -0.132799  0  3.801232  0  0  -0.155554  0  4.06024  0  0  -0.157289  0  4.080844  0  0  -0.110685  -0.15428  0  4.046338  0
C  C56  1  0.20222506  0.90863859  0.93266177  1  0  -0.124362  0  3.788513  0  0  -0.150093  0  4.048913  0  0  -0.151447  0  4.067948  0  0  -0.107253  -0.149132  0  4.036053  0
C  C57  1  0.79778019  0.09135646  0.06733769  1  0  -0.124507  0  3.788801  0  0  -0.150238  0  4.049205  0  0  -0.151593  0  4.068243  0  0  -0.107232  -0.149266  0  4.036341  0
C  C58  1  0.24453498  0.80359884  0.97315497  1  0  0.088486  0  3.772659  0  0  0.093375  0  4.04333  0  0  0.09618  0  4.063226  0  0  -0.002841  0.091262  0  4.030033  0
C  C59  1  0.75546877  0.19639702  0.02684601  1  0  0.088516  0  3.772707  0  0  0.093402  0  4.043409  0  0  0.096208  0  4.063306  0  0  -0.002797  0.091287  0  4.03011  0
C  C60  1  0.14080098  0.72526816  0.97883960  1  0  0.002756  0  3.788737  0  0  0.014019  0  4.040603  0  0  0.015454  0  4.063774  0  0  -0.024242  0.012954  0  4.024972  0
C  C61  1  0.85920252  0.27472852  0.02116203  1  0  0.002763  0  3.788708  0  0  0.014005  0  4.040596  0  0  0.015434  0  4.063762  0  0  -0.024326  0.01294  0  4.024956  0
C  C62  1  0.10583901  0.23847195  0.50762928  1  0  -0.004707  0  3.793826  0  0  0.006102  0  4.045362  0  0  0.00808  0  4.06758  0  0  -0.028174  0.004607  0  4.030475  0
C  C63  1  0.89416038  0.76152960  0.49237312  1  0  -0.004747  0  3.793729  0  0  0.006082  0  4.045256  0  0  0.008062  0  4.067472  0  0  -0.028158  0.004587  0  4.030376  0
C  C64  1  0.18373864  0.13024645  0.48667349  1  0  0.081653  0  3.786889  0  0  0.087348  0  4.056059  0  0  0.090018  0  4.075447  0  0  -5e-06  0.085339  0  4.043086  0
C  C65  1  0.81626205  0.86975511  0.51333013  1  0  0.081757  0  3.78692  0  0  0.087436  0  4.05611  0  0  0.090106  0  4.075492  0  0  3.5e-05  0.085426  0  4.043138  0
C  C66  1  0.13804008  0.04224758  0.54843432  1  0  -0.129186  0  3.800328  0  0  -0.154733  0  4.061324  0  0  -0.155659  0  4.079865  0  0  -0.107228  -0.154018  0  4.048825  0
C  C67  1  0.86196371  0.95775237  0.45156972  1  0  -0.12916  0  3.800384  0  0  -0.154722  0  4.061377  0  0  -0.155637  0  4.079931  0  0  -0.107199  -0.154008  0  4.048877  0
C  C68  1  0.01380407  0.06111143  0.63477620  1  0  -0.13733  0  3.79694  0  0  -0.164077  0  4.064621  0  0  -0.165179  0  4.083148  0  0  -0.112322  -0.163288  0  4.052187  0
C  C69  1  0.98619533  0.93889012  0.36522620  1  0  -0.13729  0  3.796968  0  0  -0.164015  0  4.064627  0  0  -0.165125  0  4.083149  0  0  -0.112299  -0.16323  0  4.052195  0
C  C70  1  0.93578386  0.16767498  0.65666768  1  0  0.081063  0  3.777552  0  0  0.087986  0  4.044799  0  0  0.090651  0  4.064326  0  0  -0.003339  0.085978  0  4.031768  0
C  C71  1  0.06421400  0.83232738  0.34333486  1  0  0.080997  0  3.777601  0  0  0.08793  0  4.044828  0  0  0.090592  0  4.064365  0  0  -0.0034  0.085925  0  4.031802  0
C  C72  1  0.97511227  0.25768067  0.59374118  1  0  -0.001731  0  3.794206  0  0  0.010063  0  4.045445  0  0  0.012144  0  4.067519  0  0  -0.029604  0.008546  0  4.030562  0
C  C73  1  0.02488840  0.74232088  0.40626103  1  0  -0.001621  0  3.794107  0  0  0.010162  0  4.045343  0  0  0.012241  0  4.067417  0  0  -0.029541  0.008637  0  4.030472  0
C  C74  1  0.27165365  0.68250024  0.73806938  1  0  0.076878  0  3.629152  0  0  0.024805  0  3.894134  0  0  0.031433  0  3.900486  0  0  -0.097322  0.020434  0  3.889667  0
C  C75  1  0.72834312  0.31749720  0.26192894  1  0  0.076887  0  3.629125  0  0  0.02485  0  3.894061  0  0  0.031485  0  3.900406  0  0  -0.097351  0.020469  0  3.889603  0
C  C76  1  0.20367440  0.75727501  0.65928584  1  0  -0.140811  0  3.678648  0  0  -0.179708  0  3.933456  0  0  -0.181801  0  3.947326  0  0  -0.171128  -0.178085  0  3.923762  0
C  C77  1  0.79632162  0.24272488  0.34071373  1  0  -0.140744  0  3.678535  0  0  -0.179614  0  3.933396  0  0  -0.181706  0  3.947266  0  0  -0.17109  -0.177989  0  3.923705  0
C  C78  1  0.33477473  0.71422585  0.56830069  1  0  -0.147982  0  3.652516  0  0  -0.180396  0  3.897814  0  0  -0.182949  0  3.912105  0  0  -0.173407  -0.178472  0  3.887873  0
C  C79  1  0.66522408  0.28577731  0.43169813  1  0  -0.147951  0  3.652505  0  0  -0.180425  0  3.897804  0  0  -0.182986  0  3.912091  0  0  -0.173443  -0.178503  0  3.887863  0
C  C80  1  0.37966160  0.59185166  0.59323106  1  0  0.0979  0  3.567016  0  0  0.049374  0  3.822173  0  0  0.055804  0  3.828381  0  0  -0.081122  0.045145  0  3.817912  0
C  C81  1  0.62033716  0.40815149  0.40676428  1  0  0.097932  0  3.566969  0  0  0.049463  0  3.822099  0  0  0.055918  0  3.828272  0  0  -0.081069  0.045239  0  3.817837  0
C  C82  1  0.39238435  0.29820669  0.65952279  1  0  0.091631  0  3.568322  0  0  0.044143  0  3.82432  0  0  0.050687  0  3.830255  0  0  -0.084706  0.039801  0  3.8202  0
C  C83  1  0.60761450  0.70179648  0.34047813  1  0  0.091623  0  3.568238  0  0  0.044171  0  3.824144  0  0  0.050716  0  3.830078  0  0  -0.08466  0.039829  0  3.820029  0
C  C84  1  0.44698772  0.17415250  0.65422583  1  0  -0.152614  0  3.653193  0  0  -0.188668  0  3.906201  0  0  -0.190717  0  3.920168  0  0  -0.175785  -0.187105  0  3.896532  0
C  C85  1  0.55301493  0.82585068  0.34577244  1  0  -0.152531  0  3.653044  0  0  -0.18855  0  3.906039  0  0  -0.190605  0  3.920012  0  0  -0.175751  -0.186992  0  3.896374  0
C  C86  1  0.36953221  0.12740904  0.75617828  1  0  -0.143315  0  3.662533  0  0  -0.182004  0  3.916717  0  0  -0.183926  0  3.929738  0  0  -0.174749  -0.180482  0  3.907627  0
C  C87  1  0.63046864  0.87259169  0.24381912  1  0  -0.143383  0  3.66247  0  0  -0.182125  0  3.916743  0  0  -0.184047  0  3.929765  0  0  -0.174737  -0.1806  0  3.907651  0
C  C88  1  0.23958284  0.22407686  0.80230077  1  0  0.090131  0  3.601677  0  0  0.041245  0  3.866037  0  0  0.047899  0  3.872287  0  0  -0.085551  0.036817  0  3.861657  0
C  C89  1  0.76041726  0.77592223  0.19769760  1  0  0.090325  0  3.601356  0  0  0.041334  0  3.865927  0  0  0.047987  0  3.872176  0  0  -0.085507  0.036902  0  3.861552  0
S  S90  1  0.84962710  0.66387011  0.95073558  1  0  -0.295483  0  2.717802  0  0  -0.278415  0  3.135183  0  0  -0.289058  0  3.126021  0  0  -0.195306  -0.271086  0  3.141232  0
S  S91  1  0.15037481  0.33612736  0.04926340  1  0  -0.295504  0  2.717959  0  0  -0.278415  0  3.135301  0  0  -0.289069  0  3.126138  0  0  -0.195336  -0.27109  0  3.14135  0
S  S92  1  0.20853083  0.59041186  0.02048457  1  0  -0.372064  0  2.5811  0  0  -0.358874  0  2.99433  0  0  -0.370459  0  2.988853  0  0  -0.240872  -0.3508  0  2.997598  0
S  S93  1  0.79146604  0.40958561  0.97951932  1  0  -0.372047  0  2.581158  0  0  -0.358836  0  2.994373  0  0  -0.370423  0  2.988899  0  0  -0.240837  -0.350762  0  2.997637  0
S  S94  1  0.17527670  0.34693165  0.43243019  1  0  -0.290933  0  2.649419  0  0  -0.273803  0  3.062522  0  0  -0.284995  0  3.054109  0  0  -0.1864  -0.266125  0  3.068096  0
S  S95  1  0.82472037  0.65306907  0.56757124  1  0  -0.290973  0  2.649444  0  0  -0.273849  0  3.062552  0  0  -0.28504  0  3.054136  0  0  -0.186442  -0.26617  0  3.06813  0
S  S96  1  0.86330984  0.38951015  0.62051480  1  0  -0.352693  0  2.591924  0  0  -0.33888  0  3.009537  0  0  -0.350421  0  3.002791  0  0  -0.251389  -0.330882  0  3.013801  0
S  S97  1  0.13668879  0.61048977  0.37948719  1  0  -0.35277  0  2.591923  0  0  -0.338951  0  3.009536  0  0  -0.35048  0  3.002773  0  0  -0.251398  -0.330948  0  3.013798  0
Cl  Cl98  1  0.75836355  0.90169797  0.85818604  1  0  -0.099809  0  1.414076  0  0  -0.081731  0  1.653442  0  0  -0.084689  0  1.647542  0  0  -0.005346  -0.079437  0  1.657571  0
Cl  Cl99  1  0.24164397  0.09829789  0.14181091  1  0  -0.099754  0  1.414034  0  0  -0.081701  0  1.653379  0  0  -0.084659  0  1.647481  0  0  -0.005309  -0.079407  0  1.657507  0
Cl  Cl100  1  0.43846235  0.76738363  0.01137272  1  0  -0.119569  0  1.549163  0  0  -0.092978  0  1.816415  0  0  -0.096245  0  1.809836  0  0  -0.006813  -0.090559  0  1.821128  0
Cl  Cl101  1  0.56153733  0.23261304  0.98863086  1  0  -0.119551  0  1.54919  0  0  -0.092962  0  1.816453  0  0  -0.096235  0  1.809872  0  0  -0.006832  -0.090544  0  1.821167  0
Cl  Cl102  1  0.34301597  0.10548717  0.38115900  1  0  -0.084447  0  1.364493  0  0  -0.055522  0  1.591497  0  0  -0.058347  0  1.585664  0  0  0.008442  -0.053381  0  1.595619  0
Cl  Cl103  1  0.65698575  0.89451521  0.61884508  1  0  -0.084502  0  1.364506  0  0  -0.055579  0  1.591515  0  0  -0.058404  0  1.585686  0  0  0.00841  -0.053433  0  1.595632  0
Cl  Cl104  1  0.78771375  0.18990528  0.76668564  1  0  -0.114954  0  1.507947  0  0  -0.094056  0  1.77863  0  0  -0.096866  0  1.772792  0  0  0.020806  -0.091978  0  1.782836  0
Cl  Cl105  1  0.21227975  0.81009461  0.23331638  1  0  -0.114934  0  1.508001  0  0  -0.094037  0  1.778676  0  0  -0.096843  0  1.77284  0  0  0.020833  -0.091958  0  1.782881  0
O  O106  1  0.33051703  0.57624036  0.69855018  1  0  -0.419752  0  2.198075  0  0  -0.338264  0  2.441752  0  0  -0.354889  0  2.442  0  0  -0.367597  -0.326543  0  2.441234  0
O  O107  1  0.66948249  0.42376034  0.30144461  1  0  -0.419754  0  2.198141  0  0  -0.338334  0  2.44182  0  0  -0.354959  0  2.442058  0  0  -0.367582  -0.326611  0  2.441301  0
O  O108  1  0.31446260  0.31829660  0.76043292  1  0  -0.421111  0  2.231363  0  0  -0.346955  0  2.488027  0  0  -0.3628  0  2.487116  0  0  -0.35319  -0.335747  0  2.488308  0
O  O109  1  0.68553573  0.68170412  0.23956693  1  0  -0.421149  0  2.231262  0  0  -0.346962  0  2.487952  0  0  -0.3628  0  2.48704  0  0  -0.353195  -0.335752  0  2.488227  0
O  O110  1  0.67779053  0.61261632  0.78881508  1  0  -0.870077  0  1.868127  0  0  -0.816667  0  2.025762  0  0  -0.83467  0  1.998915  0  0  -0.700131  -0.803892  0  2.044555  0
O  O111  1  0.32220887  0.38738116  0.21118705  1  0  -0.870105  0  1.868116  0  0  -0.816708  0  2.025754  0  0  -0.834703  0  1.998905  0  0  -0.700123  -0.803932  0  2.044546  0
