# generated using pymatgen
data_Zn4H36C38O13
_symmetry_space_group_name_H-M   'P 1'
_cell_length_a   17.74464608
_cell_length_b   18.62758736
_cell_length_c   23.35674563
_cell_angle_alpha   66.64682512
_cell_angle_beta   69.72142593
_cell_angle_gamma   90.09791945
_symmetry_Int_Tables_number   1
_chemical_formula_structural   Zn4H36C38O13
_chemical_formula_sum   'Zn8 H72 C76 O26'
_cell_volume   6561.26602396
_cell_formula_units_Z   2
loop_
 _symmetry_equiv_pos_site_id
 _symmetry_equiv_pos_as_xyz
  1  'x, y, z'
loop_
 _atom_site_type_symbol
 _atom_site_label
 _atom_site_symmetry_multiplicity
 _atom_site_fract_x
 _atom_site_fract_y
 _atom_site_fract_z
 _atom_site_occupancy
 _atom_site_pbe_bader_charge
 _atom_site_pbe_bader_spin_density
 _atom_site_pbe_cm5_charge
 _atom_site_pbe_ddec_charge
 _atom_site_pbe_ddec_spin_density
 _atom_site_pbe_ddec_sum_bond_order
 _atom_site_pbe_magmom
Zn  Zn0  1  0.11780995  0.53142240  0.94364012  1  1.30827  0  0.668209  0.946982  0  2.415748  0
Zn  Zn1  1  0.96895271  0.55665988  0.05338345  1  1.316501  0  0.667764  0.956018  0  2.398842  0
Zn  Zn2  1  0.97886364  0.38867813  0.04978301  1  1.307761  0  0.666908  0.94433  0  2.421867  0
Zn  Zn3  1  0.94021525  0.52969248  0.93307811  1  1.310429  0  0.669726  0.970223  0  2.32791  0
Zn  Zn4  1  0.38601086  0.98045037  0.04783717  1  1.308103  0  0.668433  0.948549  0  2.405932  0
Zn  Zn5  1  0.53108667  0.11508431  0.93839555  1  1.307865  0  0.668914  0.943596  0  2.43406  0
Zn  Zn6  1  0.52406677  0.94733739  0.93463662  1  1.314574  0  0.669131  0.960543  0  2.388371  0
Zn  Zn7  1  0.56573820  0.96902805  0.05247641  1  1.314977  0  0.670089  0.970277  0  2.334019  0
H  H8  1  0.49229170  0.87809742  0.25940203  1  0.120384  0  0.107795  0.114266  0  0.99374  0
H  H9  1  0.43482180  0.81554401  0.38505696  1  0.051692  0  0.105414  0.109369  0  0.990289  0
H  H10  1  0.19426684  0.79782748  0.38194525  1  0.032987  0  0.102786  0.107536  0  1.000845  0
H  H11  1  0.32058184  0.70504934  0.60886480  1  0.055356  0  0.103073  0.108516  0  1.000464  0
H  H12  1  0.02195911  0.62562887  0.72642223  1  0.13783  0  0.10765  0.114474  0  0.995906  0
H  H13  1  0.08256492  0.68848784  0.60082606  1  0.090547  0  0.105182  0.109124  0  0.988482  0
H  H14  1  0.61679912  0.02775024  0.72899070  1  0.12601  0  0.108557  0.115218  0  0.993635  0
H  H15  1  0.68528541  0.08859633  0.60361028  1  0.061701  0  0.106201  0.110425  0  0.989646  0
H  H16  1  0.71161113  0.31727696  0.60595046  1  0.061542  0  0.103627  0.109195  0  0.998742  0
H  H17  1  0.79853764  0.19222976  0.38929004  1  0.064752  0  0.103653  0.109018  0  0.999451  0
H  H18  1  0.88489976  0.48156334  0.25427109  1  0.094192  0  0.10862  0.115692  0  0.993746  0
H  H19  1  0.82567561  0.42706580  0.37978880  1  0.070882  0  0.106198  0.110453  0  0.987946  0
H  H20  1  0.20379661  0.30558498  0.90509060  1  0.028969  0  0.091208  0.085496  0  0.977826  0
H  H21  1  0.13223316  0.23290619  0.98120870  1  0.044203  0  0.092705  0.092702  0  0.984238  0
H  H22  1  0.22370621  0.14291006  0.97699322  1  0.059901  0  0.092664  0.092292  0  0.985151  0
H  H23  1  0.29592515  0.21722895  0.90237364  1  -0.003566  0  0.09151  0.086462  0  0.977882  0
H  H24  1  0.21820051  0.12801581  0.09010393  1  0.041555  0  0.092634  0.092615  0  0.98628  0
H  H25  1  0.28945103  0.18776146  0.09655538  1  0.025296  0  0.091526  0.086573  0  0.977188  0
H  H26  1  0.13032334  0.22136642  0.09319918  1  0.054973  0  0.093188  0.093923  0  0.987327  0
H  H27  1  0.20406297  0.28250761  0.09591842  1  0.002518  0  0.090838  0.085468  0  0.977018  0
H  H28  1  0.30808174  0.39518295  0.90893611  1  0.046129  0  0.089813  0.088575  0  0.984143  0
H  H29  1  0.30680833  0.38791878  0.98657951  1  0.008898  0  0.089781  0.087838  0  0.982415  0
H  H30  1  0.39497427  0.29454201  0.98895505  1  0.027905  0  0.090031  0.088052  0  0.982511  0
H  H31  1  0.39907269  0.30457030  0.90991885  1  0.032325  0  0.090056  0.088822  0  0.985207  0
H  H32  1  0.88902390  0.79706420  0.90751246  1  0.019979  0  0.090924  0.085158  0  0.979302  0
H  H33  1  0.88233837  0.78258692  0.98881786  1  0.039974  0  0.092023  0.090898  0  0.986333  0
H  H34  1  0.79397756  0.87577898  0.98787480  1  0.024857  0  0.092151  0.090595  0  0.985711  0
H  H35  1  0.79895633  0.88749185  0.90759187  1  0.022122  0  0.091143  0.085808  0  0.978978  0
H  H36  1  0.69007299  0.77060571  0.09275181  1  0.035307  0  0.092819  0.093775  0  0.985108  0
H  H37  1  0.61787591  0.71008315  0.08801457  1  0.012894  0  0.090001  0.084368  0  0.980101  0
H  H38  1  0.77644543  0.67569520  0.09237956  1  0.056057  0  0.093305  0.095041  0  0.987468  0
H  H39  1  0.70527060  0.61765800  0.08437705  1  0.037877  0  0.089502  0.083567  0  0.978354  0
H  H40  1  0.78858033  0.71175086  0.89572446  1  0.021047  0  0.089978  0.089041  0  0.983759  0
H  H41  1  0.71493845  0.63704320  0.96766483  1  0.023439  0  0.089136  0.086512  0  0.983103  0
H  H42  1  0.62387150  0.72703793  0.97206829  1  0.043167  0  0.089167  0.086641  0  0.983102  0
H  H43  1  0.69648592  0.80091052  0.89882190  1  0.024886  0  0.0899  0.089466  0  0.985169  0
H  H44  1  0.15972061  0.79535136  0.93632309  1  0.020302  0  0.091042  0.085502  0  0.978404  0
H  H45  1  0.24426698  0.75778525  0.89743659  1  0.043236  0  0.09242  0.091476  0  0.986901  0
H  H46  1  0.33120552  0.85479123  0.89450944  1  0.052244  0  0.093754  0.093573  0  0.984206  0
H  H47  1  0.24610043  0.88989609  0.93574702  1  0.035145  0  0.09107  0.085096  0  0.978041  0
H  H48  1  0.39001813  0.74504454  0.96232296  1  0.049512  0  0.093173  0.094382  0  0.986114  0
H  H49  1  0.34932551  0.70524999  0.05118829  1  0.048625  0  0.089564  0.0835  0  0.981028  0
H  H50  1  0.30032663  0.64779850  0.96784288  1  0.056766  0  0.092735  0.094413  0  0.985745  0
H  H51  1  0.25820341  0.61063923  0.05658469  1  0.026942  0  0.090169  0.084464  0  0.978451  0
H  H52  1  0.09771806  0.74041703  0.06437873  1  0.052954  0  0.090358  0.089494  0  0.983236  0
H  H53  1  0.13661734  0.66366086  0.11339918  1  0.025153  0  0.089763  0.087096  0  0.98159  0
H  H54  1  0.22800511  0.75649086  0.11080892  1  0.019929  0  0.088309  0.08419  0  0.98398  0
H  H55  1  0.18712842  0.83325279  0.06382402  1  0.016175  0  0.090159  0.089207  0  0.983976  0
H  H56  1  0.90003090  0.26887136  0.93184160  1  0.006198  0  0.091328  0.085809  0  0.979498  0
H  H57  1  0.85247886  0.34285273  0.88838496  1  0.044256  0  0.093287  0.092614  0  0.981967  0
H  H58  1  0.77102891  0.24400340  0.88834843  1  0.014972  0  0.092548  0.091741  0  0.988607  0
H  H59  1  0.81544674  0.17024662  0.93559641  1  0.030622  0  0.091072  0.086  0  0.978107  0
H  H60  1  0.65019705  0.29386326  0.94727376  1  0.035343  0  0.09283  0.095023  0  0.985023  0
H  H61  1  0.60425915  0.25128513  0.03603878  1  0.025351  0  0.090385  0.085055  0  0.979829  0
H  H62  1  0.73219745  0.38885732  0.95166222  1  0.032593  0  0.092474  0.093334  0  0.986942  0
H  H63  1  0.68906471  0.34260537  0.04059135  1  -0.005169  0  0.089596  0.08427  0  0.978987  0
H  H64  1  0.83928777  0.20258372  0.06026446  1  0.041446  0  0.08984  0.08896  0  0.984779  0
H  H65  1  0.75559029  0.23487549  0.10491938  1  0.017407  0  0.088595  0.084207  0  0.985157  0
H  H66  1  0.66586302  0.14320806  0.10460619  1  0.014539  0  0.089409  0.08653  0  0.98126  0
H  H67  1  0.74968161  0.10732372  0.06402817  1  0.02685  0  0.0902  0.088623  0  0.985113  0
H  H68  1  0.22736269  0.92566285  0.22425981  1  0.049702  0  0.097281  0.142665  0  0.986628  0
H  H69  1  0.24894769  0.84046586  0.21084723  1  0.058198  0  0.095384  0.139791  0  0.993396  0
H  H70  1  0.17029131  0.83137909  0.28711360  1  0.038373  0  0.088243  0.119146  0  1.005947  0
H  H71  1  0.34278289  0.66691347  0.70385109  1  0.019642  0  0.087646  0.117927  0  1.007657  0
H  H72  1  0.26494791  0.66740160  0.77673546  1  0.071972  0  0.096363  0.140453  0  0.990017  0
H  H73  1  0.27982501  0.57734126  0.77064586  1  0.062493  0  0.096629  0.141401  0  0.989194  0
H  H74  1  0.57628682  0.28039648  0.76002043  1  0.047189  0  0.096931  0.141454  0  0.9864  0
H  H75  1  0.66258764  0.25482348  0.77904385  1  0.03841  0  0.096589  0.141659  0  0.993325  0
H  H76  1  0.67427737  0.33528161  0.70090962  1  0.014044  0  0.08852  0.119182  0  1.006062  0
H  H77  1  0.82795993  0.16795979  0.29718377  1  0.009882  0  0.088926  0.119806  0  1.005102  0
H  H78  1  0.83705908  0.24473776  0.21796281  1  0.061951  0  0.096145  0.140255  0  0.993484  0
H  H79  1  0.92498836  0.22190560  0.23514872  1  0.063969  0  0.098101  0.142989  0  0.984015  0
C  C80  1  0.13745292  0.63697852  0.00477421  1  1.552787  0  0.2339  0.600411  0  4.100659  0
C  C81  1  0.91432298  0.40715138  0.17636829  1  1.530339  0  0.224963  0.606632  0  4.16387  0
C  C82  1  0.14825560  0.36701036  0.99641867  1  1.535784  0  0.233778  0.601105  0  4.099634  0
C  C83  1  0.85801642  0.36404623  0.99499072  1  1.561671  0  0.236474  0.607513  0  4.092255  0
C  C84  1  0.09401753  0.59008950  0.81332202  1  1.492946  0  0.225128  0.606803  0  4.161783  0
C  C85  1  0.85836937  0.63981279  0.98931350  1  1.535785  0  0.236122  0.606649  0  4.093671  0
C  C86  1  0.36566988  0.14628527  0.99401707  1  1.532535  0  0.234354  0.602519  0  4.095804  0
C  C87  1  0.58177164  0.09577443  0.81215712  1  1.558032  0  0.224309  0.605101  0  4.164717  0
C  C88  1  0.35365868  0.86561411  0.99845530  1  1.563084  0  0.23499  0.605349  0  4.095075  0
C  C89  1  0.64029672  0.86118161  0.99261343  1  1.556117  0  0.235935  0.606828  0  4.08919  0
C  C90  1  0.41640372  0.91521186  0.17495654  1  1.562859  0  0.22424  0.605043  0  4.160513  0
C  C91  1  0.64906260  0.13558246  0.99345748  1  1.566051  0  0.234665  0.604048  0  4.092939  0
C  C92  1  0.37642515  0.87517918  0.25001866  1  -0.073742  0  -0.018868  -0.107699  0  3.915236  0
C  C93  1  0.42678409  0.86064749  0.28720903  1  0.068695  0  -0.083232  -0.083507  0  4.012563  0
C  C94  1  0.39495954  0.82573352  0.35704378  1  -0.10048  0  -0.08688  -0.137668  0  3.967512  0
C  C95  1  0.30995708  0.80303715  0.39215398  1  0.117142  0  0.001338  0.151391  0  4.131268  0
C  C96  1  0.25984779  0.81635999  0.35465981  1  0.046936  0  -0.085349  -0.194048  0  3.896216  0
C  C97  1  0.29075716  0.85221969  0.28427300  1  -0.005861  0  0.006622  0.176314  0  3.930924  0
C  C98  1  0.27478386  0.76734578  0.46344529  1  -0.209481  0  -0.042316  -0.103731  0  4.106633  0
C  C99  1  0.24286100  0.73657771  0.52493329  1  -0.189095  0  -0.042887  -0.106388  0  4.106463  0
C  C100  1  0.20636174  0.70082663  0.59616698  1  0.117162  0  0.003396  0.15561  0  4.12928  0
C  C101  1  0.25481408  0.68707931  0.63502502  1  -0.059345  0  -0.087047  -0.197801  0  3.896092  0
C  C102  1  0.22214745  0.65145417  0.70544963  1  0.078762  0  0.006818  0.176771  0  3.926203  0
C  C103  1  0.13622196  0.62888832  0.73836779  1  -0.078053  0  -0.020528  -0.111508  0  3.913603  0
C  C104  1  0.08761488  0.64318706  0.69970055  1  -0.136549  0  -0.082698  -0.081738  0  4.013827  0
C  C105  1  0.12117257  0.67820613  0.62990749  1  0.000234  0  -0.08708  -0.138328  0  3.965853  0
C  C106  1  0.62378995  0.13777552  0.73759848  1  -0.08259  0  -0.019435  -0.109319  0  3.921262  0
C  C107  1  0.63743720  0.09141618  0.70097861  1  -0.062598  0  -0.083423  -0.082847  0  4.017398  0
C  C108  1  0.67562153  0.12497991  0.63151582  1  0.050592  0  -0.087347  -0.138439  0  3.972227  0
C  C109  1  0.70246935  0.20753328  0.59639932  1  0.071979  0  0.003473  0.155207  0  4.137829  0
C  C110  1  0.68987693  0.25363228  0.63330921  1  -0.015601  0  -0.086897  -0.197509  0  3.898696  0
C  C111  1  0.65063310  0.22091155  0.70338062  1  0.014661  0  0.006902  0.176999  0  3.93063  0
C  C112  1  0.74089456  0.24310299  0.52542322  1  0.054646  0  -0.043013  -0.107197  0  4.118747  0
C  C113  1  0.77281600  0.27253363  0.46401706  1  -0.517829  0  -0.041909  -0.103224  0  4.11638  0
C  C114  1  0.80839056  0.30544983  0.39292772  1  0.136699  0  0.002199  0.153298  0  4.13532  0
C  C115  1  0.81858952  0.25584301  0.35919479  1  0.039197  0  -0.085732  -0.19602  0  3.896943  0
C  C116  1  0.85298771  0.28507486  0.28905064  1  -0.016229  0  0.005064  0.174086  0  3.934926  0
C  C117  1  0.87715282  0.36822242  0.25141176  1  -0.044432  0  -0.018699  -0.106765  0  3.918347  0
C  C118  1  0.86626837  0.41799686  0.28488820  1  -0.079105  0  -0.083109  -0.083594  0  4.016557  0
C  C119  1  0.83320615  0.38789763  0.35448706  1  0.024704  0  -0.087208  -0.138803  0  3.970582  0
C  C120  1  0.19555863  0.26333857  0.95648803  1  -0.040445  0  -0.156271  -0.170498  0  3.852018  0
C  C121  1  0.25608800  0.20370553  0.95463205  1  -0.025498  0  -0.155399  -0.168453  0  3.851845  0
C  C122  1  0.30920411  0.20757312  0.99401954  1  0.052609  0  -0.017224  0.019642  0  3.813716  0
C  C123  1  0.25231789  0.18814421  0.06726755  1  -0.028534  0  -0.15795  -0.172739  0  3.859724  0
C  C124  1  0.19427891  0.24999503  0.06805113  1  -0.02964  0  -0.158354  -0.171982  0  3.857679  0
C  C125  1  0.20916552  0.30977125  0.99522167  1  0.072  0  -0.016602  0.021188  0  3.812996  0
C  C126  1  0.29756399  0.35268418  0.96067262  1  -0.030537  0  -0.164364  -0.178099  0  3.889491  0
C  C127  1  0.35686986  0.29186131  0.96124032  1  -0.018626  0  -0.165238  -0.178627  0  3.889697  0
C  C128  1  0.84606367  0.78239511  0.95913448  1  -0.026751  0  -0.15614  -0.169458  0  3.851627  0
C  C129  1  0.78670008  0.84337142  0.95926563  1  -0.009164  0  -0.156308  -0.169822  0  3.853689  0
C  C130  1  0.69774459  0.80047586  0.99118327  1  0.042468  0  -0.016177  0.022333  0  3.807937  0
C  C131  1  0.68177411  0.73926569  0.06370460  1  -0.015815  0  -0.15929  -0.174168  0  3.864677  0
C  C132  1  0.73995732  0.67752641  0.06243745  1  -0.061284  0  -0.158211  -0.171586  0  3.85704  0
C  C133  1  0.79797184  0.69797632  0.98923189  1  0.049593  0  -0.016705  0.021317  0  3.808311  0
C  C134  1  0.74745584  0.69733128  0.94772109  1  0.003164  0  -0.164694  -0.178433  0  3.8904  0
C  C135  1  0.68717601  0.75708368  0.94982941  1  -0.051372  0  -0.164236  -0.177499  0  3.886533  0
C  C136  1  0.21603016  0.77313207  0.94010469  1  -0.038448  0  -0.155692  -0.170575  0  3.856074  0
C  C137  1  0.27401305  0.83648225  0.93872255  1  -0.049031  0  -0.156318  -0.168112  0  3.852939  0
C  C138  1  0.29366501  0.80302339  0.00314041  1  0.042083  0  -0.016719  0.020461  0  3.811156  0
C  C139  1  0.33303317  0.72824339  0.00651075  1  -0.073578  0  -0.157598  -0.172096  0  3.862866  0
C  C140  1  0.27329830  0.66481453  0.00963485  1  -0.039944  0  -0.157816  -0.172344  0  3.859073  0
C  C141  1  0.19401077  0.69704092  0.00638471  1  0.038301  0  -0.016987  0.02284  0  3.811357  0
C  C142  1  0.15437899  0.71795616  0.06634383  1  -0.042817  0  -0.164294  -0.177437  0  3.883668  0
C  C143  1  0.21406066  0.77989639  0.06503363  1  -0.000332  0  -0.164279  -0.177029  0  3.884193  0
C  C144  1  0.84067118  0.28696378  0.93321621  1  -0.016956  0  -0.155428  -0.169373  0  3.851912  0
C  C145  1  0.78507041  0.22205215  0.93402679  1  -0.013784  0  -0.155661  -0.169812  0  3.854912  0
C  C146  1  0.70438437  0.19562466  0.99631210  1  0.025726  0  -0.016462  0.023907  0  3.809697  0
C  C147  1  0.66324545  0.26950772  0.99338291  1  -0.024594  0  -0.15849  -0.175784  0  3.856037  0
C  C148  1  0.71900878  0.33176746  0.99556111  1  0.006261  0  -0.15821  -0.17215  0  3.864529  0
C  C149  1  0.79979639  0.30214379  0.99681605  1  0.036032  0  -0.016558  0.019775  0  3.80923  0
C  C150  1  0.78171600  0.22369852  0.05972143  1  -0.023061  0  -0.164904  -0.175152  0  3.884789  0
C  C151  1  0.72320543  0.16143859  0.06045200  1  -0.00477  0  -0.164846  -0.17774  0  3.892672  0
C  C152  1  0.23105193  0.86277651  0.24990103  1  -0.043772  0  -0.23944  -0.413292  0  3.976093  0
C  C153  1  0.28071597  0.64033881  0.74091105  1  -0.053621  0  -0.239672  -0.411126  0  3.978122  0
C  C154  1  0.64065685  0.27591310  0.73755011  1  -0.002293  0  -0.239187  -0.412172  0  3.975475  0
C  C155  1  0.86087058  0.22669559  0.25830551  1  -0.040052  0  -0.238735  -0.412424  0  3.97675  0
O  O156  1  0.00017319  0.50277727  0.99365352  1  -1.22878  0  -0.574419  -1.024688  0  2.55521  0
O  O157  1  0.16754744  0.61289735  0.95860862  1  -1.180196  0  -0.318284  -0.553447  0  2.352228  0
O  O158  1  0.91286631  0.48140306  0.14803845  1  -1.170924  0  -0.319228  -0.552621  0  2.339893  0
O  O159  1  0.07306799  0.33606188  0.02694144  1  -1.180558  0  -0.317715  -0.551955  0  2.34851  0
O  O160  1  0.06473072  0.61618973  0.04817286  1  -1.181545  0  -0.312621  -0.5447  0  2.352236  0
O  O161  1  0.17595018  0.44095709  0.96679093  1  -1.18073  0  -0.313598  -0.54457  0  2.353664  0
O  O162  1  0.94554282  0.36433733  0.14573265  1  -1.172489  0  -0.311526  -0.540642  0  2.367425  0
O  O163  1  0.89038174  0.33988814  0.03884677  1  -1.184798  0  -0.31703  -0.550919  0  2.37774  0
O  O164  1  0.01605540  0.58043669  0.83777658  1  -1.138525  0  -0.318915  -0.554657  0  2.320782  0
O  O165  1  0.87130005  0.43451872  0.94926444  1  -1.183398  0  -0.316704  -0.554906  0  2.320603  0
O  O166  1  0.13897294  0.56887656  0.84769900  1  -1.176038  0  -0.312384  -0.542828  0  2.398334  0
O  O167  1  0.89735757  0.63225808  0.02770887  1  -1.186852  0  -0.320609  -0.557481  0  2.35694  0
O  O168  1  0.86624657  0.60409623  0.95144306  1  -1.17361  0  -0.312506  -0.547698  0  2.338045  0
O  O169  1  0.50276292  0.00111020  0.99434523  1  -1.23018  0  -0.575633  -1.026132  0  2.556681  0
O  O170  1  0.33216308  0.07367469  0.02268725  1  -1.174984  0  -0.318248  -0.553337  0  2.33699  0
O  O171  1  0.55312154  0.13765195  0.84433525  1  -1.172458  0  -0.314749  -0.54488  0  2.380704  0
O  O172  1  0.42350361  0.88473342  0.95077678  1  -1.188776  0  -0.317161  -0.556162  0  2.348316  0
O  O173  1  0.44202770  0.17148611  0.96553711  1  -1.182333  0  -0.31381  -0.543747  0  2.359119  0
O  O174  1  0.32980536  0.89461617  0.04169061  1  -1.179764  0  -0.313624  -0.545892  0  2.35392  0
O  O175  1  0.57684328  0.02027578  0.83885789  1  -1.160276  0  -0.318323  -0.550335  0  2.331677  0
O  O176  1  0.59855530  0.87254496  0.95597511  1  -1.186442  0  -0.314768  -0.548729  0  2.366177  0
O  O177  1  0.49300308  0.91582920  0.14861677  1  -1.1773  0  -0.318534  -0.551991  0  2.314982  0
O  O178  1  0.63872974  0.89618121  0.03026391  1  -1.175654  0  -0.318325  -0.557441  0  2.325728  0
O  O179  1  0.37127431  0.94684067  0.14248014  1  -1.182531  0  -0.313044  -0.543777  0  2.379591  0
O  O180  1  0.62582667  0.16135903  0.94380090  1  -1.184644  0  -0.322086  -0.558171  0  2.355249  0
O  O181  1  0.63012594  0.06509628  0.03963145  1  -1.182419  0  -0.311487  -0.548097  0  2.338124  0
