# generated using pymatgen
data_CdH10C3(IN)2
_symmetry_space_group_name_H-M   'P 1'
_cell_length_a   6.72590027
_cell_length_b   9.75470181
_cell_length_c   14.01272692
_cell_angle_alpha   89.99950627
_cell_angle_beta   97.98985992
_cell_angle_gamma   90.00056288
_symmetry_Int_Tables_number   1
_chemical_formula_structural   CdH10C3(IN)2
_chemical_formula_sum   'Cd4 H40 C12 I8 N8'
_cell_volume   910.43857528
_cell_formula_units_Z   4
loop_
 _symmetry_equiv_pos_site_id
 _symmetry_equiv_pos_as_xyz
  1  'x, y, z'
loop_
 _atom_site_type_symbol
 _atom_site_label
 _atom_site_symmetry_multiplicity
 _atom_site_fract_x
 _atom_site_fract_y
 _atom_site_fract_z
 _atom_site_occupancy
 _atom_site_pbe_bader_spin_density
 _atom_site_pbe_cm5_charge
 _atom_site_pbe_ddec_charge
 _atom_site_pbe_ddec_spin_density
 _atom_site_pbe_ddec_sum_bond_order
 _atom_site_pbe_magmom
Cd  Cd0  1  0.70674280  0.79001592  0.72125794  1  0  0.530225  0.646553  0  2.421773  0
Cd  Cd1  1  0.79325165  0.29002005  0.77874178  1  0  0.53026  0.646547  0  2.421877  0
Cd  Cd2  1  0.29326181  0.20997903  0.27874418  1  0  0.530244  0.64661  0  2.421738  0
Cd  Cd3  1  0.20675144  0.70997592  0.22125954  1  0  0.53025  0.646526  0  2.421805  0
H  H4  1  0.73254127  0.89185290  0.90843001  1  0  0.270224  0.266409  0  0.987933  0
H  H5  1  0.76743638  0.39186023  0.59156449  1  0  0.27022  0.266491  0  0.987485  0
H  H6  1  0.26745732  0.10814512  0.09157103  1  0  0.270247  0.266447  0  0.987876  0
H  H7  1  0.23255475  0.60814190  0.40843894  1  0  0.270224  0.266431  0  0.987449  0
H  H8  1  0.75299362  0.72370737  0.91268959  1  0  0.266439  0.262514  0  1.000024  0
H  H9  1  0.74700616  0.22370640  0.58732013  1  0  0.266537  0.262696  0  1.000015  0
H  H10  1  0.24700948  0.27629168  0.08731173  1  0  0.266442  0.262477  0  1.000024  0
H  H11  1  0.25299846  0.77629060  0.41268271  1  0  0.266544  0.262646  0  1.000026  0
H  H12  1  0.59547135  0.77219977  0.18760674  1  0  0.263865  0.257797  0  1.00525  0
H  H13  1  0.90452997  0.27220015  0.31239920  1  0  0.263867  0.257851  0  1.005194  0
H  H14  1  0.40452718  0.22779825  0.81239073  1  0  0.263843  0.257772  0  1.005265  0
H  H15  1  0.09547614  0.72779993  0.68760302  1  0  0.263871  0.257878  0  1.005157  0
H  H16  1  0.57571553  0.60564917  0.20117778  1  0  0.262734  0.257072  0  1.006397  0
H  H17  1  0.92430473  0.10565087  0.29883105  1  0  0.262837  0.257128  0  1.006583  0
H  H18  1  0.42428605  0.39434988  0.79882273  1  0  0.262752  0.257079  0  1.00642  0
H  H19  1  0.07569988  0.89435023  0.70117108  1  0  0.262855  0.257101  0  1.006626  0
H  H20  1  0.37234749  0.87601039  0.85868169  1  0  0.080142  0.065228  0  1.033207  0
H  H21  1  0.12763981  0.37601612  0.64131803  1  0  0.080133  0.065237  0  1.033274  0
H  H22  1  0.62765105  0.12398251  0.14131649  1  0  0.080149  0.065183  0  1.033233  0
H  H23  1  0.87235878  0.62399113  0.35868301  1  0  0.080148  0.065285  0  1.03325  0
H  H24  1  0.39407684  0.69590343  0.86537525  1  0  0.08215  0.069261  0  1.016491  0
H  H25  1  0.10591126  0.19591012  0.63462914  1  0  0.082203  0.069341  0  1.016268  0
H  H26  1  0.60592920  0.30409050  0.13462340  1  0  0.082147  0.06927  0  1.016451  0
H  H27  1  0.89409175  0.80409713  0.36536717  1  0  0.082196  0.069324  0  1.016327  0
H  H28  1  0.26426945  0.81060483  0.00803869  1  0  0.07566  0.083004  0  1.034259  0
H  H29  1  0.23572111  0.31061102  0.49196659  1  0  0.07565  0.083011  0  1.03414  0
H  H30  1  0.73573062  0.18938910  0.99196101  1  0  0.075661  0.083036  0  1.034254  0
H  H31  1  0.76427144  0.68940135  0.50803193  1  0  0.075653  0.082983  0  1.03414  0
H  H32  1  0.50194603  0.88908043  0.03808242  1  0  0.083188  0.091735  0  1.003629  0
H  H33  1  0.99804014  0.38908573  0.46191545  1  0  0.083174  0.091691  0  1.003505  0
H  H34  1  0.49805251  0.11091246  0.96191575  1  0  0.083187  0.091757  0  1.00354  0
H  H35  1  0.00194491  0.61092562  0.53808259  1  0  0.083206  0.091765  0  1.003637  0
H  H36  1  0.65722945  0.64452295  0.04613551  1  0  0.079449  0.054306  0  1.040068  0
H  H37  1  0.84277923  0.14450268  0.45386879  1  0  0.079474  0.054314  0  1.039935  0
H  H38  1  0.34276912  0.35547199  0.95386410  1  0  0.079474  0.054348  0  1.040039  0
H  H39  1  0.15722085  0.85549944  0.54613163  1  0  0.079455  0.054236  0  1.04002  0
H  H40  1  0.40644770  0.58254793  0.03751108  1  0  0.091658  0.070283  0  1.004818  0
H  H41  1  0.09357907  0.08255864  0.46250067  1  0  0.091635  0.070224  0  1.004951  0
H  H42  1  0.59355387  0.41744804  0.96248872  1  0  0.091645  0.070261  0  1.004776  0
H  H43  1  0.90643011  0.91745271  0.53750603  1  0  0.091636  0.070203  0  1.004911  0
C  C44  1  0.45584060  0.79199145  0.89835369  1  0  -0.087824  0.027326  0  3.889071  0
C  C45  1  0.04414568  0.29200839  0.60164860  1  0  -0.08788  0.027142  0  3.888598  0
C  C46  1  0.54416097  0.20800554  0.10164610  1  0  -0.087805  0.027409  0  3.888881  0
C  C47  1  0.95584987  0.70799988  0.39835011  1  0  -0.087856  0.027166  0  3.888733  0
C  C48  1  0.42566906  0.79761167  0.00427778  1  0  -0.179131  -0.203244  0  3.921212  0
C  C49  1  0.07431976  0.29760953  0.49572318  1  0  -0.179108  -0.203198  0  3.920946  0
C  C50  1  0.57433099  0.20238328  0.99572049  1  0  -0.179133  -0.203279  0  3.921165  0
C  C51  1  0.92567877  0.70239772  0.50427428  1  0  -0.179114  -0.203251  0  3.921077  0
C  C52  1  0.50416750  0.67032938  0.06009501  1  0  -0.088442  0.023693  0  3.896884  0
C  C53  1  0.99584148  0.17032982  0.43990845  1  0  -0.088476  0.023744  0  3.896951  0
C  C54  1  0.49583104  0.32966454  0.93990317  1  0  -0.088493  0.023623  0  3.897071  0
C  C55  1  0.00415408  0.82967538  0.56009097  1  0  -0.08845  0.023869  0  3.896938  0
I  I56  1  0.45554824  0.57768000  0.64146749  1  0  -0.218526  -0.445594  0  1.436122  0
I  I57  1  0.04443236  0.07767630  0.85853642  1  0  -0.218547  -0.445614  0  1.436101  0
I  I58  1  0.54445329  0.42232007  0.35853016  1  0  -0.218527  -0.445599  0  1.436084  0
I  I59  1  0.95555286  0.92231660  0.14147163  1  0  -0.218537  -0.445589  0  1.436035  0
I  I60  1  0.49331952  0.03115489  0.65321511  1  0  -0.239902  -0.462274  0  1.405239  0
I  I61  1  0.00665148  0.53115704  0.84678847  1  0  -0.239898  -0.462252  0  1.405345  0
I  I62  1  0.50669105  0.96884621  0.34678525  1  0  -0.239904  -0.462307  0  1.40528  0
I  I63  1  0.99336344  0.46883996  0.15320289  1  0  -0.239892  -0.462272  0  1.405346  0
N  N64  1  0.66703541  0.80262409  0.88081849  1  0  -0.638889  -0.53899  0  3.400667  0
N  N65  1  0.83294429  0.30261408  0.61918665  1  0  -0.638984  -0.539154  0  3.399827  0
N  N66  1  0.33296469  0.19737189  0.11918335  1  0  -0.638936  -0.539013  0  3.400527  0
N  N67  1  0.16705436  0.69738906  0.38081796  1  0  -0.63902  -0.539035  0  3.399847  0
N  N68  1  0.50743739  0.68880085  0.16515080  1  0  -0.63304  -0.525106  0  3.384881  0
N  N69  1  0.99257931  0.18878823  0.33485160  1  0  -0.633098  -0.525227  0  3.385209  0
N  N70  1  0.49256414  0.31119819  0.83484685  1  0  -0.633007  -0.525071  0  3.385123  0
N  N71  1  0.00742679  0.81121902  0.66514991  1  0  -0.633134  -0.525213  0  3.385076  0
