# generated using pymatgen
data_CuH15C18N3O4
_symmetry_space_group_name_H-M   'P 1'
_cell_length_a   7.19609180
_cell_length_b   9.01617059
_cell_length_c   13.83707325
_cell_angle_alpha   109.47155415
_cell_angle_beta   94.04430551
_cell_angle_gamma   98.07782918
_symmetry_Int_Tables_number   1
_chemical_formula_structural   CuH15C18N3O4
_chemical_formula_sum   'Cu2 H30 C36 N6 O8'
_cell_volume   831.37118539
_cell_formula_units_Z   2
loop_
 _symmetry_equiv_pos_site_id
 _symmetry_equiv_pos_as_xyz
  1  'x, y, z'
loop_
 _atom_site_type_symbol
 _atom_site_label
 _atom_site_symmetry_multiplicity
 _atom_site_fract_x
 _atom_site_fract_y
 _atom_site_fract_z
 _atom_site_occupancy
 _atom_site_hle17_ddec_charge
 _atom_site_hle17_ddec_spin_density
 _atom_site_hle17_ddec_sum_bond_order
 _atom_site_hle17_magmom
 _atom_site_hse06_10hf_ddec_charge
 _atom_site_hse06_10hf_ddec_spin_density
 _atom_site_hse06_10hf_ddec_sum_bond_order
 _atom_site_hse06_10hf_magmom
 _atom_site_hse06_ddec_charge
 _atom_site_hse06_ddec_spin_density
 _atom_site_hse06_ddec_sum_bond_order
 _atom_site_hse06_magmom
 _atom_site_pbe_cm5_charge
 _atom_site_pbe_ddec_charge
 _atom_site_pbe_ddec_spin_density
 _atom_site_pbe_ddec_sum_bond_order
 _atom_site_pbe_magmom
Cu  Cu0  1  0.50000136  0.00000131  0.00000239  1  0.892387  -0.703751  1.832137  -0.519  0.880938  -0.79439  2.228905  -0.645  0.972979  -0.86319  2.164076  -0.741  0.703039  0.821008  -0.745484  2.279128  -0.583
Cu  Cu1  1  0.49999310  0.49999902  0.50000036  1  0.885566  -0.694651  1.822968  -0.514  0.87596  -0.793434  2.218431  -0.645  0.971466  -0.863146  2.151481  -0.742  0.699512  0.816083  -0.739794  2.268614  -0.579
H  H2  1  0.32953545  0.21718943  0.15591848  1  0.343672  0.000119  0.913014  0.0  0.326387  6.6e-05  0.974828  0.0  0.334936  0.000117  0.967561  0.0  0.302112  0.320478  2.4e-05  0.979637  0.0
H  H3  1  0.67046933  0.78281836  0.84408432  1  0.343708  0.000121  0.912911  0.0  0.326348  6.6e-05  0.974824  0.0  0.33492  0.000117  0.967519  0.0  0.302074  0.320408  2.4e-05  0.97968  0.0
H  H4  1  0.32905907  0.34545369  0.28543778  1  0.333118  0.000149  0.923366  0.0  0.315529  0.000106  0.987816  0.0  0.323281  0.000133  0.981632  0.0  0.300363  0.310133  7.9e-05  0.992202  0.0
H  H5  1  0.67093920  0.65454927  0.71456445  1  0.333178  0.000148  0.923356  0.0  0.315588  0.000106  0.987773  0.0  0.323344  0.000132  0.98159  0.0  0.30039  0.310191  7.9e-05  0.992174  0.0
H  H6  1  0.24546900  0.70985942  0.12269041  1  0.035024  -0.007714  0.95282  -0.01  0.043656  -0.005171  1.023692  -0.007  0.042276  -0.003317  1.021206  -0.004  0.104802  0.044516  -0.006706  1.025441  -0.008
H  H7  1  0.75453699  0.29013288  0.87730693  1  0.035097  -0.007714  0.952909  -0.01  0.043787  -0.00517  1.023707  -0.007  0.042398  -0.003317  1.021248  -0.004  0.104829  0.044644  -0.006705  1.025463  -0.008
H  H8  1  0.97331613  0.72977571  0.01314651  1  0.118561  0.000372  0.959987  0.001  0.127565  -4.7e-05  1.020717  0.0  0.132021  1.6e-05  1.018238  0.0  0.101855  0.12446  -0.000153  1.02249  0.0
H  H9  1  0.02669381  0.27022256  0.98684720  1  0.118471  0.000371  0.959993  0.001  0.127524  -4.7e-05  1.020682  0.0  0.131979  1.6e-05  1.018208  0.0  0.101843  0.124418  -0.000153  1.022453  0.0
H  H10  1  0.99284599  0.53555690  0.10478166  1  0.074877  -0.000642  0.964837  -0.001  0.086185  -0.000373  1.028645  0.0  0.088127  -0.000212  1.02725  0.0  0.096474  0.084627  -0.000578  1.029822  -0.001
H  H11  1  0.00716093  0.46444014  0.89520950  1  0.074971  -0.000642  0.964734  -0.001  0.086231  -0.000373  1.028583  0.0  0.088168  -0.000212  1.027198  0.0  0.096524  0.084673  -0.000578  1.029765  -0.001
H  H12  1  0.72230633  0.45452560  0.18912482  1  0.095285  8.8e-05  0.976952  0.0  0.103903  -2.4e-05  1.039198  0.0  0.105753  -1.4e-05  1.041103  0.0  0.095225  0.102739  -2.9e-05  1.037459  0.0
H  H13  1  0.27770620  0.54546435  0.81086576  1  0.095277  9.1e-05  0.976966  0.0  0.10389  -2.4e-05  1.039231  0.0  0.105731  -1.4e-05  1.041137  0.0  0.095257  0.102726  -2.9e-05  1.037491  0.0
H  H14  1  0.42659745  0.56582344  0.17843456  1  0.085615  -0.000377  0.955061  0.0  0.095691  -0.00026  1.019179  0.0  0.098019  -0.000145  1.01792  0.0  0.098552  0.093729  -0.000388  1.020577  0.0
H  H15  1  0.57341624  0.43416534  0.82155797  1  0.085688  -0.000378  0.955196  0.0  0.09577  -0.00026  1.019303  0.0  0.098085  -0.000146  1.018061  0.0  0.098653  0.09383  -0.000388  1.020676  0.0
H  H16  1  0.22060999  0.13390045  0.55172654  1  0.043295  -0.007761  0.907701  -0.009  0.053646  -0.005498  0.970595  -0.006  0.053367  -0.003545  0.966839  -0.004  0.108756  0.05368  -0.006992  0.973323  -0.008
H  H17  1  0.77937968  0.86610121  0.44827510  1  0.043288  -0.00776  0.907737  -0.009  0.053655  -0.005497  0.970611  -0.006  0.053373  -0.003545  0.966859  -0.004  0.108756  0.05369  -0.006991  0.97334  -0.008
H  H18  1  0.98681916  0.39099539  0.66437241  1  0.11504  0.000669  0.950921  0.001  0.123565  0.000131  1.012905  0.0  0.126759  0.000124  1.012829  0.0  0.101002  0.121044  9.7e-05  1.013653  0.0
H  H19  1  0.01316982  0.60900270  0.33563060  1  0.115178  0.000678  0.950807  0.001  0.123669  0.000131  1.012837  0.0  0.126862  0.000124  1.012761  0.0  0.10104  0.12115  9.7e-05  1.01358  0.0
H  H20  1  0.99835894  0.15019656  0.71209003  1  0.084718  -0.00056  0.950104  -0.001  0.096318  -0.000301  1.009091  0.0  0.097913  -0.00017  1.008906  0.0  0.099719  0.094831  -0.000411  1.009978  0.0
H  H21  1  0.00162517  0.84979789  0.28790912  1  0.084786  -0.000558  0.949997  -0.001  0.096386  -0.000301  1.009  0.0  0.09798  -0.00017  1.008816  0.0  0.099758  0.094901  -0.000411  1.009878  0.0
H  H22  1  0.70339625  0.95548882  0.69437785  1  0.098381  0.000316  0.982764  0.0  0.104165  -9e-06  1.049707  0.0  0.106951  7e-06  1.050402  0.0  0.095604  0.102123  -1.8e-05  1.049263  0.0
H  H23  1  0.29658647  0.04450558  0.30561546  1  0.098525  0.000315  0.98244  0.0  0.104293  -9e-06  1.049448  0.0  0.107087  7e-06  1.050125  0.0  0.09563  0.10225  -1.8e-05  1.049004  0.0
H  H24  1  0.39825084  0.99981643  0.62159106  1  0.08848  -0.000426  0.952914  0.0  0.097349  -0.000315  1.017724  0.0  0.099018  -0.00019  1.017809  0.0  0.099782  0.096031  -0.000443  1.017819  0.0
H  H25  1  0.60173932  0.00018044  0.37840378  1  0.088573  -0.000424  0.952891  0.0  0.097387  -0.000315  1.017737  0.0  0.099058  -0.00019  1.01782  0.0  0.099821  0.09607  -0.000443  1.017834  0.0
H  H26  1  0.89737744  0.06917756  0.14230375  1  0.088373  0.000121  0.918222  0.0  0.100305  0.00012  0.972502  0.0  0.104174  0.000117  0.968149  0.0  0.120129  0.097627  0.0001  0.975223  0.0
H  H27  1  0.10263035  0.93083147  0.85770231  1  0.088405  0.000121  0.918218  0.0  0.100302  0.00012  0.972529  0.0  0.104171  0.000117  0.968175  0.0  0.12016  0.097622  0.0001  0.975251  0.0
H  H28  1  0.07240889  0.21379067  0.32468496  1  0.119771  1.2e-05  0.983257  0.0  0.127341  -2.1e-05  1.046787  0.0  0.132026  -5e-06  1.045123  0.0  0.104207  0.124046  -4.1e-05  1.048228  0.0
H  H29  1  0.92758843  0.78621469  0.67532354  1  0.119776  7e-06  0.983185  0.0  0.127299  -2.1e-05  1.046787  0.0  0.131985  -5e-06  1.045121  0.0  0.104171  0.124011  -4.1e-05  1.048225  0.0
H  H30  1  0.88658398  0.37131551  0.45804944  1  0.081877  0.000106  0.938014  0.0  0.090645  9.6e-05  1.001409  0.0  0.09402  0.0001  0.997116  0.0  0.116402  0.088359  7.5e-05  1.00406  0.0
H  H31  1  0.11341266  0.62868627  0.54195826  1  0.08179  0.000105  0.938093  0.0  0.090571  9.7e-05  1.001485  0.0  0.093934  0.0001  0.99719  0.0  0.116368  0.088291  7.5e-05  1.004128  0.0
C  C32  1  0.35676949  0.76559792  0.08835461  1  0.326904  0.014721  3.714111  0.012  0.284766  0.005655  3.988378  0.005  0.315985  0.005945  3.990223  0.004  0.079773  0.264109  0.004962  3.986316  0.005
C  C33  1  0.64323787  0.23440154  0.91164504  1  0.326829  0.014726  3.71431  0.012  0.284629  0.005655  3.988614  0.005  0.315852  0.005945  3.990456  0.004  0.079618  0.263969  0.004962  3.986556  0.005
C  C34  1  0.53309260  0.71123911  0.09157378  1  -0.169154  -0.007938  3.821322  -0.01  -0.152944  -0.003376  4.061225  -0.005  -0.174905  -0.001666  4.092216  -0.003  -0.04696  -0.139082  -0.004883  4.040471  -0.007
C  C35  1  0.46691779  0.28876157  0.90842408  1  -0.169242  -0.007931  3.821401  -0.01  -0.152999  -0.003374  4.061271  -0.005  -0.17496  -0.001666  4.092258  -0.003  -0.046951  -0.139139  -0.004883  4.04052  -0.007
C  C36  1  0.68809795  0.75842223  0.04172195  1  0.367283  0.007068  3.834912  0.008  0.355654  0.001051  4.096747  0.002  0.379003  0.001687  4.111428  0.002  0.099493  0.340138  2e-05  4.085865  0.001
C  C37  1  0.31191312  0.24158203  0.95827598  1  0.367154  0.007057  3.835036  0.007  0.355593  0.00105  4.096801  0.002  0.378936  0.001689  4.111495  0.002  0.099444  0.340084  1.9e-05  4.085906  0.001
C  C38  1  0.85370332  0.69101127  0.04837661  1  -0.226159  -0.014314  3.710417  -0.015  -0.243734  -0.006232  3.962896  -0.008  -0.255856  -0.004159  3.982178  -0.005  -0.114202  -0.235933  -0.007638  3.949759  -0.009
C  C39  1  0.14630963  0.30898824  0.95161965  1  -0.225924  -0.014305  3.710321  -0.015  -0.243562  -0.006231  3.962765  -0.008  -0.255686  -0.004161  3.982057  -0.005  -0.114114  -0.235761  -0.007637  3.949623  -0.009
C  C40  1  0.86376033  0.58495253  0.10067885  1  -0.017552  0.006445  3.79262  0.004  -0.034078  0.001063  4.048407  0.0  -0.028638  0.001286  4.068382  0.0  -0.084544  -0.037336  0.000815  4.034385  0.0
C  C41  1  0.13625149  0.41504098  0.89931174  1  -0.017734  0.00644  3.792573  0.004  -0.03423  0.001062  4.0484  0.0  -0.02879  0.00129  4.068367  0.0  -0.084618  -0.037492  0.000815  4.034379  0.0
C  C42  1  0.71160375  0.53904635  0.14929402  1  -0.122023  -0.003823  3.784108  -0.004  -0.141266  -3e-05  4.046812  0.0  -0.150969  -1.6e-05  4.071473  0.0  -0.117273  -0.134828  9.3e-05  4.029206  0.0
C  C43  1  0.28840388  0.46094712  0.85069785  1  -0.121989  -0.00383  3.784145  -0.004  -0.141225  -2.8e-05  4.04684  0.0  -0.150909  -2e-05  4.071495  0.0  -0.117354  -0.134786  9.3e-05  4.029244  0.0
C  C44  1  0.54845752  0.60108260  0.14334137  1  -0.045475  0.005798  3.770562  0.004  -0.067691  0.00137  4.023911  0.001  -0.061684  0.001426  4.046245  0.001  -0.082393  -0.07107  0.001409  4.00864  0.001
C  C45  1  0.45155313  0.39891210  0.85665015  1  -0.045505  0.0058  3.77046  0.004  -0.067767  0.001367  4.023824  0.001  -0.061751  0.001432  4.046157  0.001  -0.08243  -0.071165  0.001409  4.008549  0.001
C  C46  1  0.33955582  0.22726627  0.55294403  1  0.326886  0.014576  3.712083  0.012  0.286627  0.005524  3.983654  0.005  0.317764  0.005814  3.984631  0.004  0.082906  0.26535  0.004893  3.982914  0.005
C  C47  1  0.66044108  0.77272952  0.44705661  1  0.326986  0.014576  3.712198  0.012  0.28671  0.005523  3.983791  0.005  0.317849  0.005814  3.984766  0.004  0.08293  0.265423  0.004893  3.983064  0.005
C  C48  1  0.51878883  0.21820225  0.60027043  1  -0.173274  -0.010468  3.825838  -0.013  -0.157792  -0.003878  4.068527  -0.006  -0.179353  -0.002083  4.098875  -0.004  -0.046902  -0.144102  -0.005485  4.049105  -0.007
C  C49  1  0.48120388  0.78179347  0.39972787  1  -0.173395  -0.010465  3.825925  -0.013  -0.157953  -0.003878  4.068642  -0.006  -0.179518  -0.002081  4.098996  -0.004  -0.046985  -0.144255  -0.005485  4.04922  -0.007
C  C50  1  0.68648096  0.33526893  0.61492195  1  0.361947  0.009523  3.833665  0.009  0.349107  0.001608  4.096841  0.002  0.372206  0.002326  4.111806  0.002  0.097664  0.333242  0.000577  4.087012  0.002
C  C51  1  0.31351104  0.66473036  0.38507782  1  0.361907  0.009523  3.833785  0.009  0.349145  0.00161  4.096845  0.002  0.372243  0.002321  4.111812  0.002  0.097659  0.333276  0.000576  4.087005  0.002
C  C52  1  0.85878721  0.30448786  0.65508436  1  -0.221964  -0.01715  3.720318  -0.018  -0.240598  -0.006544  3.975892  -0.008  -0.252432  -0.004496  3.995986  -0.006  -0.113895  -0.232796  -0.008187  3.963068  -0.009
C  C53  1  0.14120271  0.69550785  0.34491745  1  -0.222173  -0.017161  3.720375  -0.018  -0.240824  -0.006548  3.975978  -0.008  -0.252662  -0.004493  3.996072  -0.006  -0.113921  -0.233016  -0.008188  3.963149  -0.009
C  C54  1  0.86359029  0.16970185  0.68135023  1  -0.017952  0.009618  3.781286  0.006  -0.03246  0.001271  4.033735  0.001  -0.026598  0.001687  4.052882  0.001  -0.081705  -0.036592  0.000556  4.021121  0.0
C  C55  1  0.13639729  0.83029621  0.31864911  1  -0.017916  0.009605  3.781162  0.006  -0.032411  0.001275  4.033573  0.001  -0.02655  0.001682  4.052726  0.001  -0.08173  -0.03654  0.000556  4.020959  0.0
C  C56  1  0.69763161  0.05881788  0.67102363  1  -0.121557  -0.009495  3.781022  -0.009  -0.141155  -0.001513  4.04456  -0.002  -0.151251  -0.001079  4.068839  -0.001  -0.115363  -0.134408  -0.001145  4.027879  -0.001
C  C57  1  0.30235670  0.94117660  0.32897279  1  -0.121761  -0.009488  3.781002  -0.009  -0.141373  -0.001515  4.04455  -0.002  -0.151471  -0.001075  4.068827  -0.001  -0.115447  -0.134625  -0.001144  4.027868  -0.001
C  C58  1  0.52854323  0.08448026  0.63135315  1  -0.048158  0.008934  3.761815  0.006  -0.070409  0.001739  4.016321  0.001  -0.065217  0.001992  4.039923  0.001  -0.08115  -0.073411  0.001506  4.000475  0.001
C  C59  1  0.47144624  0.91551303  0.36864162  1  -0.048188  0.008923  3.762011  0.006  -0.070376  0.001741  4.016487  0.001  -0.065184  0.001985  4.040092  0.001  -0.081153  -0.073379  0.001506  4.000641  0.001
C  C60  1  0.56238533  0.24247733  0.25689023  1  0.617742  0.000243  3.819297  0.0  0.588718  0.000128  4.085377  0.0  0.613868  0.000154  4.093268  0.0  0.340731  0.572251  0.000115  4.078915  0.0
C  C61  1  0.43761921  0.75752929  0.74311664  1  0.617999  0.000242  3.819182  0.0  0.588794  0.000128  4.085481  0.0  0.613946  0.000156  4.093368  0.0  0.340813  0.572328  0.000115  4.079017  0.0
C  C62  1  0.82948281  0.14142471  0.20543413  1  0.188314  0.000507  3.737612  0.0  0.16281  0.000279  3.98963  0.0  0.176887  0.000282  4.001537  0.0  0.057426  0.154434  0.000266  3.980234  0.0
C  C63  1  0.17052102  0.85858547  0.79457275  1  0.188339  0.000506  3.737614  0.0  0.162894  0.000276  3.98959  0.0  0.176971  0.000285  4.001495  0.0  0.057431  0.154519  0.000266  3.980197  0.0
C  C64  1  0.92565030  0.21933514  0.30465590  1  -0.243308  -0.000845  3.767765  -0.001  -0.252436  -0.000312  4.014386  0.0  -0.265445  -0.000192  4.032308  0.0  -0.116389  -0.244508  -0.00049  4.002735  0.0
C  C65  1  0.07435142  0.78067860  0.69535167  1  -0.243159  -0.000844  3.767556  -0.001  -0.252283  -0.000311  4.014226  0.0  -0.265291  -0.000193  4.032142  0.0  -0.116285  -0.244366  -0.00049  4.00258  0.0
C  C66  1  0.82297700  0.30711385  0.37825040  1  0.193726  0.000537  3.742289  0.0  0.165197  0.00029  4.001281  0.0  0.179857  0.000305  4.012745  0.0  0.056777  0.156171  0.000331  3.993072  0.0
C  C67  1  0.17702218  0.69289391  0.62175796  1  0.193793  0.000545  3.742128  0.0  0.165269  0.000288  4.001086  0.0  0.179946  0.000308  4.012532  0.0  0.056798  0.15624  0.000331  3.99288  0.0
N  N68  1  0.38271598  0.25815261  0.23260632  1  -0.698436  -4.9e-05  3.067437  0.0  -0.659301  0.000264  3.289673  0.0  -0.681603  0.000361  3.284463  0.0  -0.57315  -0.643495  0.000232  3.292392  0.0
N  N69  1  0.61728880  0.74185518  0.76739720  1  -0.698513  -4.6e-05  3.067352  0.0  -0.659272  0.000265  3.289723  0.0  -0.681597  0.000362  3.284466  0.0  -0.57314  -0.643443  0.000231  3.29251  0.0
N  N70  1  0.64941319  0.15075859  0.18077314  1  -0.478804  0.000557  3.094112  -0.001  -0.44344  0.001174  3.377378  0.0  -0.465924  0.001729  3.387358  0.0  -0.33556  -0.428207  0.000501  3.369554  -0.001
N  N71  1  0.35059297  0.84924923  0.81923260  1  -0.478943  0.000557  3.094291  -0.001  -0.443531  0.001174  3.3776  0.0  -0.466025  0.001727  3.387596  0.0  -0.335598  -0.428298  0.000501  3.369772  -0.001
N  N72  1  0.64275396  0.31861151  0.35644816  1  -0.485134  -0.00036  3.082935  -0.002  -0.448138  0.000316  3.364027  -0.001  -0.471718  0.000912  3.374361  -0.001  -0.337978  -0.43269  -0.000269  3.357238  -0.002
N  N73  1  0.35724408  0.68139027  0.64355815  1  -0.485445  -0.000361  3.082961  -0.002  -0.448385  0.000317  3.364139  -0.001  -0.471963  0.000911  3.374459  -0.001  -0.338107  -0.432937  -0.000269  3.357354  -0.002
O  O74  1  0.31246717  0.86743832  0.05137909  1  -0.433749  -0.066295  2.14475  -0.091  -0.398172  -0.045412  2.416746  -0.069  -0.432829  -0.033636  2.409003  -0.056  -0.277902  -0.375568  -0.05341  2.421727  -0.077
O  O75  1  0.68754158  0.13256120  0.94862640  1  -0.43371  -0.066311  2.14463  -0.091  -0.398167  -0.04542  2.416724  -0.069  -0.432797  -0.033643  2.408908  -0.056  -0.277797  -0.375559  -0.05342  2.421704  -0.077
O  O76  1  0.68438747  0.85698157  0.99089569  1  -0.571074  -0.086052  2.1275  -0.116  -0.542061  -0.052961  2.40538  -0.079  -0.585331  -0.038137  2.401361  -0.062  -0.330358  -0.51291  -0.062727  2.40766  -0.088
O  O77  1  0.31562520  0.14303107  0.00910699  1  -0.570945  -0.086049  2.127561  -0.116  -0.54203  -0.052957  2.405478  -0.079  -0.585289  -0.038134  2.401456  -0.062  -0.330337  -0.512887  -0.062724  2.407762  -0.088
O  O78  1  0.30172165  0.32583371  0.51153433  1  -0.432719  -0.061782  2.139783  -0.084  -0.395832  -0.043621  2.410242  -0.066  -0.430817  -0.032548  2.4033  -0.054  -0.273857  -0.373137  -0.051765  2.414916  -0.074
O  O79  1  0.69826873  0.67416439  0.48846728  1  -0.432733  -0.061769  2.139892  -0.084  -0.395847  -0.043615  2.410375  -0.066  -0.430828  -0.032543  2.403428  -0.054  -0.273824  -0.373151  -0.051757  2.41505  -0.074
O  O80  1  0.68885735  0.46731890  0.59495720  1  -0.571471  -0.085218  2.141797  -0.115  -0.542079  -0.052439  2.428372  -0.078  -0.585895  -0.03774  2.424492  -0.061  -0.331487  -0.512572  -0.062252  2.430696  -0.087
O  O81  1  0.31112767  0.53268033  0.40504446  1  -0.57132  -0.085231  2.141711  -0.115  -0.541938  -0.052444  2.42823  -0.078  -0.585741  -0.037743  2.424333  -0.061  -0.331414  -0.512479  -0.062257  2.430673  -0.087
