# generated using pymatgen
data_Cd3H52C62N8(O6F)2
_symmetry_space_group_name_H-M   'P 1'
_cell_length_a   8.42551100
_cell_length_b   12.09343356
_cell_length_c   15.05358930
_cell_angle_alpha   67.58009963
_cell_angle_beta   79.73037833
_cell_angle_gamma   81.74332444
_symmetry_Int_Tables_number   1
_chemical_formula_structural   Cd3H52C62N8(O6F)2
_chemical_formula_sum   'Cd3 H52 C62 N8 O12 F2'
_cell_volume   1390.37730916
_cell_formula_units_Z   1
loop_
 _symmetry_equiv_pos_site_id
 _symmetry_equiv_pos_as_xyz
  1  'x, y, z'
loop_
 _atom_site_type_symbol
 _atom_site_label
 _atom_site_symmetry_multiplicity
 _atom_site_fract_x
 _atom_site_fract_y
 _atom_site_fract_z
 _atom_site_occupancy
 _atom_site_hle17_bader_spin_density
 _atom_site_hle17_ddec_charge
 _atom_site_hle17_ddec_spin_density
 _atom_site_hle17_ddec_sum_bond_order
 _atom_site_hle17_magmom
 _atom_site_hse06_10hf_bader_spin_density
 _atom_site_hse06_10hf_ddec_charge
 _atom_site_hse06_10hf_ddec_spin_density
 _atom_site_hse06_10hf_ddec_sum_bond_order
 _atom_site_hse06_10hf_magmom
 _atom_site_hse06_bader_spin_density
 _atom_site_hse06_ddec_charge
 _atom_site_hse06_ddec_spin_density
 _atom_site_hse06_ddec_sum_bond_order
 _atom_site_hse06_magmom
 _atom_site_pbe_bader_spin_density
 _atom_site_pbe_cm5_charge
 _atom_site_pbe_ddec_charge
 _atom_site_pbe_ddec_spin_density
 _atom_site_pbe_ddec_sum_bond_order
 _atom_site_pbe_magmom
Cd  Cd0  1  0.04029614  0.48010496  0.27185125  1  0  1.093083  0  1.73281  0  0  0.900977  0  2.177895  0  0  0.961568  0  2.124108  0  0  0.765776  0.858105  0  2.214489  0
Cd  Cd1  1  0.95970332  0.51989605  0.72814884  1  0  1.093108  0  1.7328  0  0  0.900992  0  2.177881  0  0  0.961585  0  2.124092  0  0  0.765783  0.858113  0  2.214465  0
Cd  Cd2  1  0.00000047  0.49999944  0.50000008  1  0  1.312518  0  1.658505  0  0  1.144527  0  2.124128  0  0  1.202132  0  2.060287  0  0  0.794334  1.102543  0  2.168578  0
H  H3  1  0.76599321  0.81064500  0.34772525  1  0  0.083518  0  0.906027  0  0  0.099754  0  0.954945  0  0  0.101127  0  0.955516  0  0  0.105305  0.098738  0  0.95468  0
H  H4  1  0.23400616  0.18935691  0.65227525  1  0  0.083516  0  0.906026  0  0  0.099755  0  0.954941  0  0  0.101127  0  0.955512  0  0  0.10531  0.098741  0  0.954679  0
H  H5  1  0.99897252  0.08911195  0.58866555  1  0  0.052987  0  0.954371  0  0  0.067094  0  1.013987  0  0  0.06846  0  1.013447  0  0  0.090883  0.06611  0  1.014467  0
H  H6  1  0.00102591  0.91088731  0.41133318  1  0  0.053028  0  0.954297  0  0  0.067126  0  1.013901  0  0  0.068492  0  1.013361  0  0  0.090897  0.066137  0  1.014383  0
H  H7  1  0.19304125  0.06941100  0.40222332  1  0  0.074008  0  0.951525  0  0  0.087248  0  1.019927  0  0  0.089636  0  1.018104  0  0  0.085445  0.085454  0  1.021322  0
H  H8  1  0.80695802  0.93059182  0.59777492  1  0  0.073987  0  0.951543  0  0  0.087219  0  1.019965  0  0  0.089605  0  1.018144  0  0  0.08543  0.08543  0  1.021355  0
H  H9  1  0.27419194  0.04889376  0.50841694  1  0  0.061098  0  0.926233  0  0  0.082077  0  0.980577  0  0  0.082855  0  0.980942  0  0  0.086095  0.081521  0  0.980315  0
H  H10  1  0.72580752  0.95110726  0.49158315  1  0  0.061103  0  0.926241  0  0  0.082078  0  0.98059  0  0  0.082854  0  0.980956  0  0  0.086093  0.08152  0  0.980325  0
H  H11  1  0.76255794  0.14943775  0.49912573  1  0  0.061821  0  0.942812  0  0  0.080752  0  1.003455  0  0  0.081255  0  1.004124  0  0  0.086724  0.080343  0  1.003047  0
H  H12  1  0.23744393  0.85056328  0.50087213  1  0  0.061816  0  0.942807  0  0  0.080751  0  1.003446  0  0  0.081254  0  1.004114  0  0  0.086725  0.080342  0  1.003038  0
H  H13  1  0.88325476  0.12893811  0.39683939  1  0  0.065367  0  0.936358  0  0  0.0817  0  1.001044  0  0  0.082275  0  1.002437  0  0  0.085205  0.081242  0  1.000151  0
H  H14  1  0.11674702  0.87106380  0.60315953  1  0  0.065372  0  0.936307  0  0  0.081705  0  1.001006  0  0  0.08228  0  1.002398  0  0  0.085202  0.081248  0  1.000114  0
H  H15  1  0.32210958  0.52478287  0.09511036  1  0  0.087982  0  0.960417  0  0  0.095122  0  1.027777  0  0  0.09846  0  1.02404  0  0  0.115917  0.09259  0  1.030594  0
H  H16  1  0.67788869  0.47521813  0.90489185  1  0  0.088006  0  0.960416  0  0  0.095138  0  1.027772  0  0  0.098472  0  1.02405  0  0  0.115921  0.092599  0  1.0306  0
H  H17  1  0.41741245  0.46616880  0.94768490  1  0  0.104886  0  0.953054  0  0  0.118088  0  1.007596  0  0  0.12073  0  1.007374  0  0  0.11021  0.116193  0  1.0079  0
H  H18  1  0.58258750  0.53382769  0.05231982  1  0  0.104883  0  0.952959  0  0  0.118082  0  1.007508  0  0  0.120725  0  1.007283  0  0  0.110199  0.116186  0  1.007818  0
H  H19  1  0.24485512  0.34236146  0.91038989  1  0  0.109267  0  0.942793  0  0  0.12068  0  1.002241  0  0  0.123762  0  0.999907  0  0  0.113224  0.118401  0  1.004026  0
H  H20  1  0.75514975  0.65763410  0.08961595  1  0  0.109245  0  0.942742  0  0  0.12067  0  1.002184  0  0  0.123749  0  0.999857  0  0  0.113225  0.118392  0  1.003973  0
H  H21  1  0.65421367  0.40538363  0.35977775  1  0  0.083056  0  0.94643  0  0  0.092009  0  1.010432  0  0  0.094293  0  1.00864  0  0  0.117707  0.090259  0  1.011873  0
H  H22  1  0.34578588  0.59461649  0.64022260  1  0  0.083079  0  0.946411  0  0  0.092032  0  1.010409  0  0  0.094316  0  1.008618  0  0  0.117718  0.090284  0  1.011849  0
H  H23  1  0.45317944  0.28360969  0.33947298  1  0  0.120539  0  0.933881  0  0  0.131011  0  0.988394  0  0  0.134466  0  0.987473  0  0  0.114561  0.128494  0  0.989246  0
H  H24  1  0.54682141  0.71638953  0.66052751  1  0  0.120554  0  0.93387  0  0  0.131025  0  0.9884  0  0  0.134479  0  0.98748  0  0  0.114551  0.128507  0  0.98925  0
H  H25  1  0.53117382  0.18966337  0.21334344  1  0  0.109336  0  0.949711  0  0  0.117575  0  1.01216  0  0  0.12165  0  1.008253  0  0  0.108388  0.114547  0  1.015071  0
H  H26  1  0.46882834  0.81033494  0.78665719  1  0  0.109297  0  0.949708  0  0  0.117545  0  1.012157  0  0  0.121621  0  1.00825  0  0  0.108365  0.114526  0  1.015062  0
H  H27  1  0.62117562  0.97926949  0.03373513  1  0  0.099156  0  0.976833  0  0  0.110024  0  1.039277  0  0  0.112326  0  1.038423  0  0  0.107283  0.108374  0  1.039923  0
H  H28  1  0.37882745  0.02073153  0.96626327  1  0  0.099149  0  0.976868  0  0  0.110025  0  1.039302  0  0  0.112328  0  1.038447  0  0  0.10727  0.108379  0  1.039942  0
H  H29  1  0.56426837  0.85770517  0.94148840  1  0  0.127762  0  0.953449  0  0  0.131951  0  1.022031  0  0  0.135992  0  1.019785  0  0  0.108189  0.129068  0  1.023746  0
H  H30  1  0.43573721  0.14229494  0.05851002  1  0  0.127718  0  0.953479  0  0  0.131912  0  1.022063  0  0  0.135954  0  1.019817  0  0  0.108168  0.129039  0  1.023768  0
H  H31  1  0.96579462  0.99959922  0.72483720  1  0  0.118752  0  0.95902  0  0  0.129245  0  1.017453  0  0  0.132818  0  1.015408  0  0  0.108785  0.126647  0  1.019098  0
H  H32  1  0.03420873  0.00039911  0.27516131  1  0  0.118623  0  0.959144  0  0  0.129137  0  1.017565  0  0  0.13271  0  1.015522  0  0  0.108728  0.126543  0  1.019202  0
H  H33  1  0.01045372  0.13088366  0.80961497  1  0  0.100169  0  0.962268  0  0  0.110687  0  1.02326  0  0  0.113465  0  1.021936  0  0  0.10836  0.108664  0  1.024305  0
H  H34  1  0.98955445  0.86911465  0.19038306  1  0  0.100157  0  0.962333  0  0  0.110663  0  1.023338  0  0  0.113437  0  1.022016  0  0  0.108358  0.108642  0  1.024378  0
H  H35  1  0.28243178  0.77042407  0.31897970  1  0  0.078664  0  0.914843  0  0  0.093067  0  0.969725  0  0  0.094457  0  0.970452  0  0  0.100553  0.092018  0  0.969384  0
H  H36  1  0.71756778  0.22957603  0.68102198  1  0  0.078622  0  0.914849  0  0  0.093069  0  0.969691  0  0  0.094463  0  0.970413  0  0  0.100566  0.092015  0  0.96936  0
H  H37  1  0.34782893  0.60538138  0.46450479  1  0  0.078993  0  0.947946  0  0  0.092793  0  1.017246  0  0  0.094425  0  1.016474  0  0  0.08934  0.091565  0  1.017918  0
H  H38  1  0.65217193  0.39461783  0.53549637  1  0  0.078982  0  0.947979  0  0  0.092785  0  1.017283  0  0  0.094419  0  1.016513  0  0  0.089337  0.091558  0  1.017957  0
H  H39  1  0.51321632  0.54877866  0.40060938  1  0  0.063351  0  0.95469  0  0  0.081832  0  1.019  0  0  0.082261  0  1.019733  0  0  0.086067  0.081455  0  1.018611  0
H  H40  1  0.48678453  0.45122056  0.59939045  1  0  0.063352  0  0.954602  0  0  0.081835  0  1.018923  0  0  0.082265  0  1.019656  0  0  0.086056  0.081459  0  1.018531  0
H  H41  1  0.61829029  0.65270899  0.48559979  1  0  0.077735  0  0.937634  0  0  0.093246  0  1.003121  0  0  0.094763  0  1.002765  0  0  0.090833  0.09209  0  1.003475  0
H  H42  1  0.38171047  0.34729112  0.51440111  1  0  0.077755  0  0.937644  0  0  0.093278  0  1.003103  0  0  0.094794  0  1.002747  0  0  0.090844  0.092122  0  1.00346  0
H  H43  1  0.49113397  0.78463371  0.43527845  1  0  0.056089  0  0.939088  0  0  0.074958  0  1.000786  0  0  0.076203  0  1.000325  0  0  0.084322  0.073998  0  1.001189  0
H  H44  1  0.50886558  0.21536642  0.56472123  1  0  0.056109  0  0.939056  0  0  0.074953  0  1.000774  0  0  0.076198  0  1.000312  0  0  0.084325  0.073998  0  1.001177  0
H  H45  1  0.69552922  0.87011749  0.18013322  1  0  0.063687  0  0.960225  0  0  0.077284  0  1.032994  0  0  0.079189  0  1.031614  0  0  0.083573  0.075859  0  1.034069  0
H  H46  1  0.30447042  0.12988174  0.81986673  1  0  0.063678  0  0.960218  0  0  0.077293  0  1.03297  0  0  0.079199  0  1.031586  0  0  0.083581  0.075859  0  1.034059  0
H  H47  1  0.53148179  0.90724894  0.25702316  1  0  0.065781  0  0.930718  0  0  0.08585  0  0.989302  0  0  0.086908  0  0.989442  0  0  0.086035  0.085019  0  0.989297  0
H  H48  1  0.46851757  0.09275298  0.74297600  1  0  0.065734  0  0.930757  0  0  0.085806  0  0.989344  0  0  0.086858  0  0.98949  0  0  0.086032  0.084978  0  0.989341  0
H  H49  1  0.43884210  0.80689215  0.15779893  1  0  0.068149  0  0.96777  0  0  0.085451  0  1.03142  0  0  0.0861  0  1.033048  0  0  0.084556  0.084943  0  1.030379  0
H  H50  1  0.56115635  0.19310707  0.84220247  1  0  0.068154  0  0.967776  0  0  0.085466  0  1.031433  0  0  0.086117  0  1.033061  0  0  0.084562  0.084956  0  1.030393  0
H  H51  1  0.57512376  0.68161941  0.20449602  1  0  0.058017  0  0.949644  0  0  0.076842  0  1.011728  0  0  0.077637  0  1.011699  0  0  0.082752  0.076238  0  1.011839  0
H  H52  1  0.42487218  0.31838072  0.79550536  1  0  0.057988  0  0.949662  0  0  0.076819  0  1.011756  0  0  0.077614  0  1.011728  0  0  0.082728  0.076218  0  1.011857  0
H  H53  1  0.04549592  0.22919424  0.89097072  1  0  0.32373  0  0.912822  0  0  0.303306  0  0.977609  0  0  0.312235  0  0.969762  0  0  0.314855  0.296962  0  0.983214  0
H  H54  1  0.95450605  0.77080585  0.10903072  1  0  0.32376  0  0.912778  0  0  0.303342  0  0.977557  0  0  0.312273  0  0.96971  0  0  0.314856  0.296995  0  0.983168  0
C  C55  1  0.68832814  0.75532244  0.33271207  1  0  -0.121077  0  3.639868  0  0  -0.118852  0  3.880768  0  0  -0.125072  0  3.895444  0  0  -0.089232  -0.114625  0  3.870577  0
C  C56  1  0.31167382  0.24467769  0.66728671  1  0  -0.120984  0  3.639751  0  0  -0.118797  0  3.880651  0  0  -0.125014  0  3.895323  0  0  -0.089219  -0.114571  0  3.87046  0
C  C57  1  0.80485843  0.65543429  0.31324238  1  0  0.688629  0  3.776554  0  0  0.636108  0  4.072942  0  0  0.670393  0  4.066711  0  0  0.214681  0.612749  0  4.076446  0
C  C58  1  0.19514214  0.34456762  0.68675667  1  0  0.68839  0  3.776654  0  0  0.635938  0  4.072966  0  0  0.670221  0  4.066741  0  0  0.214648  0.612579  0  4.076464  0
C  C59  1  0.04547539  0.24829113  0.46631906  1  0  0.685768  0  3.841996  0  0  0.63903  0  4.137934  0  0  0.67393  0  4.130879  0  0  0.210448  0.615209  0  4.141877  0
C  C60  1  0.95452056  0.75170899  0.53368365  1  0  0.685959  0  3.841652  0  0  0.639045  0  4.137841  0  0  0.673943  0  4.130788  0  0  0.210441  0.615228  0  4.14178  0
C  C61  1  0.02042689  0.11473107  0.50943606  1  0  -0.111225  0  3.642295  0  0  -0.11208  0  3.882895  0  0  -0.118212  0  3.897317  0  0  -0.094099  -0.107871  0  3.87287  0
C  C62  1  0.97957146  0.88526906  0.49056442  1  0  -0.111353  0  3.642198  0  0  -0.1121  0  3.882762  0  0  -0.11823  0  3.89718  0  0  -0.094108  -0.107885  0  3.872729  0
C  C63  1  0.16631958  0.03726771  0.48179543  1  0  -0.118285  0  3.688179  0  0  -0.162602  0  3.948275  0  0  -0.163283  0  3.961973  0  0  -0.167506  -0.161914  0  3.938716  0
C  C64  1  0.83367867  0.96273332  0.51820412  1  0  -0.118224  0  3.688183  0  0  -0.16255  0  3.948259  0  0  -0.163227  0  3.961956  0  0  -0.167471  -0.161865  0  3.938693  0
C  C65  1  0.86687976  0.09523070  0.47679325  1  0  -0.111868  0  3.665737  0  0  -0.154415  0  3.924958  0  0  -0.155388  0  3.940279  0  0  -0.16332  -0.153555  0  3.914233  0
C  C66  1  0.13312090  0.90477033  0.52320539  1  0  -0.11184  0  3.665711  0  0  -0.154407  0  3.924911  0  0  -0.15538  0  3.940233  0  0  -0.163299  -0.153548  0  3.914185  0
C  C67  1  0.25370690  0.46952206  0.07533541  1  0  0.128657  0  3.707144  0  0  0.090678  0  3.97021  0  0  0.099405  0  3.986395  0  0  0.048897  0.085071  0  3.959141  0
C  C68  1  0.74628904  0.53047806  0.92466663  1  0  0.128709  0  3.707057  0  0  0.090756  0  3.970099  0  0  0.09948  0  3.986278  0  0  0.048964  0.085152  0  3.959031  0
C  C69  1  0.30488322  0.43685203  0.99411806  1  0  -0.112782  0  3.732487  0  0  -0.126122  0  3.989065  0  0  -0.132171  0  4.008946  0  0  -0.08251  -0.122287  0  3.975683  0
C  C70  1  0.69511886  0.56314715  0.00588497  1  0  -0.112817  0  3.732425  0  0  -0.126166  0  3.989032  0  0  -0.132216  0  4.008915  0  0  -0.082553  -0.122333  0  3.975656  0
C  C71  1  0.20938650  0.36820823  0.97348953  1  0  -0.025092  0  3.666518  0  0  -0.054249  0  3.922606  0  0  -0.050495  0  3.937694  0  0  -0.062011  -0.056524  0  3.91237  0
C  C72  1  0.79061185  0.63179188  0.02651228  1  0  -0.025025  0  3.666405  0  0  -0.054205  0  3.922498  0  0  -0.050452  0  3.93759  0  0  -0.061997  -0.056479  0  3.912266  0
C  C73  1  0.06319189  0.33277607  0.03423555  1  0  -0.035081  0  3.801707  0  0  -0.021307  0  4.040302  0  0  -0.024296  0  4.063187  0  0  -0.000268  -0.019543  0  4.025001  0
C  C74  1  0.93680617  0.66722675  0.96576414  1  0  -0.035199  0  3.801717  0  0  -0.021375  0  4.040255  0  0  -0.024367  0  4.063144  0  0  -0.000344  -0.019618  0  4.024962  0
C  C75  1  0.01890489  0.36978296  0.11525387  1  0  0.137242  0  3.740735  0  0  0.124431  0  3.987606  0  0  0.130036  0  4.008915  0  0  0.117799  0.120634  0  3.9733  0
C  C76  1  0.98109067  0.63022078  0.88474514  1  0  0.137277  0  3.740835  0  0  0.124477  0  3.987663  0  0  0.130083  0  4.008971  0  0  0.117844  0.12069  0  3.973338  0
C  C77  1  0.86617848  0.33881152  0.17862877  1  0  0.121572  0  3.754128  0  0  0.110453  0  4.003204  0  0  0.114232  0  4.025591  0  0  0.113202  0.107897  0  3.98812  0
C  C78  1  0.13381967  0.66119041  0.82137052  1  0  0.121662  0  3.75408  0  0  0.110502  0  4.003148  0  0  0.114281  0  4.025534  0  0  0.113236  0.107948  0  3.988054  0
C  C79  1  0.68096102  0.36482816  0.30468450  1  0  0.139667  0  3.696376  0  0  0.104867  0  3.958669  0  0  0.112277  0  3.976165  0  0  0.053151  0.100012  0  3.946739  0
C  C80  1  0.31903752  0.63517016  0.69531716  1  0  0.13964  0  3.696468  0  0  0.104834  0  3.958768  0  0  0.112244  0  3.976266  0  0  0.053138  0.099971  0  3.94684  0
C  C81  1  0.57048016  0.29535805  0.29398752  1  0  -0.113004  0  3.71737  0  0  -0.124717  0  3.970286  0  0  -0.13078  0  3.99045  0  0  -0.078245  -0.120818  0  3.956703  0
C  C82  1  0.42952097  0.70463848  0.70601375  1  0  -0.113001  0  3.717322  0  0  -0.124738  0  3.970261  0  0  -0.130801  0  3.990425  0  0  -0.078229  -0.120835  0  3.95668  0
C  C83  1  0.61302815  0.24399078  0.22419642  1  0  -0.037851  0  3.680741  0  0  -0.06365  0  3.927569  0  0  -0.061469  0  3.944174  0  0  -0.063761  -0.06484  0  3.916314  0
C  C84  1  0.38696919  0.75600753  0.77580669  1  0  -0.0378  0  3.680725  0  0  -0.063609  0  3.927533  0  0  -0.061427  0  3.944137  0  0  -0.063711  -0.06481  0  3.91628  0
C  C85  1  0.76311470  0.26493976  0.16413292  1  0  -0.022601  0  3.778477  0  0  -0.009558  0  4.013214  0  0  -0.011921  0  4.036878  0  0  0.002133  -0.008124  0  3.997276  0
C  C86  1  0.23688373  0.73505949  0.83586648  1  0  -0.022653  0  3.778554  0  0  -0.009537  0  4.013248  0  0  -0.011902  0  4.036913  0  0  0.002097  -0.008116  0  3.99732  0
C  C87  1  0.81533043  0.22182334  0.08638980  1  0  0.097194  0  3.851296  0  0  0.089646  0  4.113835  0  0  0.090793  0  4.13822  0  0  0.085728  0.088838  0  4.097366  0
C  C88  1  0.18466790  0.77817681  0.91360867  1  0  0.097154  0  3.851198  0  0  0.08953  0  4.113833  0  0  0.090673  0  4.138224  0  0  0.08568  0.088733  0  4.097353  0
C  C89  1  0.95702962  0.25961440  0.02262678  1  0  0.11275  0  3.801696  0  0  0.092183  0  4.058404  0  0  0.094395  0  4.083262  0  0  0.094787  0.090739  0  4.041627  0
C  C90  1  0.04297087  0.74038841  0.97737267  1  0  0.112902  0  3.801574  0  0  0.092315  0  4.058322  0  0  0.094528  0  4.083191  0  0  0.094873  0.090868  0  4.041548  0
C  C91  1  0.83984994  0.13805690  0.98091090  1  0  0.353418  0  3.747076  0  0  0.322656  0  4.02178  0  0  0.337425  0  4.035703  0  0  0.227491  0.312927  0  4.012129  0
C  C92  1  0.16015212  0.86194232  0.01908947  1  0  0.35338  0  3.747231  0  0  0.32262  0  4.021935  0  0  0.337385  0  4.035872  0  0  0.227443  0.312899  0  4.012278  0
C  C93  1  0.81703223  0.06410298  0.92801192  1  0  -0.021129  0  3.79688  0  0  -0.008686  0  4.039757  0  0  -0.011601  0  4.060889  0  0  -0.009386  -0.006957  0  4.02546  0
C  C94  1  0.18297325  0.93589804  0.07198491  1  0  -0.021201  0  3.79698  0  0  -0.008765  0  4.039879  0  0  -0.011679  0  4.061009  0  0  -0.009379  -0.007036  0  4.025587  0
C  C95  1  0.69413883  0.98481499  0.96516170  1  0  -0.0585  0  3.713115  0  0  -0.080299  0  3.959838  0  0  -0.079653  0  3.979096  0  0  -0.078657  -0.080494  0  3.946694  0
C  C96  1  0.30586183  0.01518605  0.03483627  1  0  -0.058534  0  3.71326  0  0  -0.080324  0  3.959977  0  0  -0.079678  0  3.97923  0  0  -0.078655  -0.080519  0  3.946835  0
C  C97  1  0.66380937  0.91560497  0.91535995  1  0  -0.194519  0  3.76686  0  0  -0.216275  0  4.024552  0  0  -0.222152  0  4.043794  0  0  -0.100464  -0.212281  0  4.011516  0
C  C98  1  0.33619490  0.08439607  0.08463566  1  0  -0.194354  0  3.766846  0  0  -0.216133  0  4.024514  0  0  -0.222013  0  4.043763  0  0  -0.100424  -0.212147  0  4.011481  0
C  C99  1  0.76294898  0.92419114  0.82910641  1  0  0.303977  0  3.795976  0  0  0.291341  0  4.076604  0  0  0.302297  0  4.088395  0  0  0.096001  0.283775  0  4.068635  0
C  C100  1  0.23705307  0.07580811  0.17089063  1  0  0.303859  0  3.795877  0  0  0.291265  0  4.076479  0  0  0.302222  0  4.088267  0  0  0.095995  0.283699  0  4.068514  0
C  C101  1  0.88951758  0.99803867  0.79164242  1  0  -0.187464  0  3.764287  0  0  -0.21319  0  4.02537  0  0  -0.218533  0  4.044193  0  0  -0.098654  -0.209602  0  4.012672  0
C  C102  1  0.11048595  0.00195789  0.20835461  1  0  -0.187278  0  3.764306  0  0  -0.213026  0  4.025378  0  0  -0.21837  0  4.044199  0  0  -0.098541  -0.209438  0  4.01268  0
C  C103  1  0.91507830  0.06954788  0.84076323  1  0  -0.043209  0  3.686029  0  0  -0.068156  0  3.941665  0  0  -0.067382  0  3.960883  0  0  -0.076994  -0.06842  0  3.928511  0
C  C104  1  0.08492506  0.93045045  0.15923595  1  0  -0.043141  0  3.686139  0  0  -0.068085  0  3.9418  0  0  -0.067315  0  3.961028  0  0  -0.077011  -0.068357  0  3.928651  0
C  C105  1  0.27315346  0.61655149  0.28754204  1  0  0.678196  0  3.812113  0  0  0.628498  0  4.106182  0  0  0.662768  0  4.100107  0  0  0.204983  0.605123  0  4.10948  0
C  C106  1  0.72684487  0.38344867  0.71245577  1  0  0.678114  0  3.81208  0  0  0.628379  0  4.106207  0  0  0.66265  0  4.100137  0  0  0.204989  0.605005  0  4.109497  0
C  C107  1  0.37131387  0.69817717  0.30856567  1  0  -0.116616  0  3.635699  0  0  -0.112154  0  3.869135  0  0  -0.118717  0  3.884551  0  0  -0.091063  -0.10767  0  3.858539  0
C  C108  1  0.62868921  0.30182384  0.69143339  1  0  -0.116511  0  3.635548  0  0  -0.112063  0  3.869038  0  0  -0.118624  0  3.884453  0  0  -0.091064  -0.107577  0  3.858441  0
C  C109  1  0.44515473  0.63237848  0.40339133  1  0  -0.118244  0  3.656697  0  0  -0.163626  0  3.914442  0  0  -0.164203  0  3.928572  0  0  -0.16943  -0.163095  0  3.904744  0
C  C110  1  0.55484732  0.36762075  0.59660771  1  0  -0.118262  0  3.656639  0  0  -0.163698  0  3.914485  0  0  -0.164283  0  3.928625  0  0  -0.16943  -0.163165  0  3.904784  0
C  C111  1  0.55994921  0.70696005  0.42103687  1  0  -0.111806  0  3.674254  0  0  -0.15929  0  3.937826  0  0  -0.159614  0  3.951318  0  0  -0.166549  -0.158881  0  3.928493  0
C  C112  1  0.44005146  0.29304097  0.57896243  1  0  -0.111843  0  3.674256  0  0  -0.159287  0  3.937813  0  0  -0.159608  0  3.951307  0  0  -0.166544  -0.158882  0  3.928487  0
C  C113  1  0.60529030  0.83109664  0.24316479  1  0  -0.118248  0  3.687468  0  0  -0.167362  0  3.953223  0  0  -0.16754  0  3.966027  0  0  -0.170769  -0.167021  0  3.944323  0
C  C114  1  0.39470814  0.16890259  0.75683594  1  0  -0.118162  0  3.687557  0  0  -0.167285  0  3.953333  0  0  -0.167458  0  3.96614  0  0  -0.170762  -0.166934  0  3.944435  0
C  C115  1  0.49861315  0.75455137  0.22190069  1  0  -0.119158  0  3.684097  0  0  -0.16388  0  3.939639  0  0  -0.164476  0  3.953858  0  0  -0.173835  -0.163344  0  3.929802  0
C  C116  1  0.50138297  0.24544697  0.77810054  1  0  -0.119177  0  3.684083  0  0  -0.163933  0  3.939696  0  0  -0.164535  0  3.953923  0  0  -0.173816  -0.163389  0  3.929836  0
N  N117  1  0.11580223  0.43661116  0.13329562  1  0  -0.343112  0  3.286961  0  0  -0.270176  0  3.55485  0  0  -0.289891  0  3.572495  0  0  -0.325965  -0.256801  0  3.542634  0
N  N118  1  0.88419714  0.56339076  0.86670421  1  0  -0.343221  0  3.287057  0  0  -0.270308  0  3.554954  0  0  -0.290022  0  3.572596  0  0  -0.326023  -0.256927  0  3.542719  0
N  N119  1  0.82340894  0.38552754  0.24897819  1  0  -0.34787  0  3.249358  0  0  -0.284252  0  3.518443  0  0  -0.3025  0  3.537896  0  0  -0.320378  -0.271721  0  3.504988  0
N  N120  1  0.17659042  0.61447438  0.75102097  1  0  -0.347864  0  3.249353  0  0  -0.284212  0  3.518413  0  0  -0.30246  0  3.537865  0  0  -0.320357  -0.271678  0  3.504949  0
N  N121  1  0.74392929  0.14592764  0.05990833  1  0  -0.435567  0  2.922732  0  0  -0.410189  0  3.194135  0  0  -0.424623  0  3.207934  0  0  -0.335495  -0.400328  0  3.184622  0
N  N122  1  0.25606924  0.85407070  0.94009199  1  0  -0.43557  0  2.922806  0  0  -0.410166  0  3.194229  0  0  -0.424601  0  3.208033  0  0  -0.335478  -0.400307  0  3.184712  0
N  N123  1  0.96946508  0.20613728  0.95602027  1  0  -0.367467  0  3.363932  0  0  -0.307404  0  3.595871  0  0  -0.325722  0  3.610074  0  0  -0.373616  -0.294986  0  3.586115  0
N  N124  1  0.03053921  0.79386371  0.04397934  1  0  -0.367511  0  3.36401  0  0  -0.30744  0  3.595948  0  0  -0.325727  0  3.61007  0  0  -0.373613  -0.295025  0  3.586199  0
O  O125  1  0.82321723  0.55312138  0.38128445  1  0  -0.685859  0  2.052841  0  0  -0.613716  0  2.320101  0  0  -0.644225  0  2.307175  0  0  -0.330562  -0.592162  0  2.327979  0
O  O126  1  0.17678343  0.44687964  0.61871419  1  0  -0.685821  0  2.053028  0  0  -0.613692  0  2.320256  0  0  -0.644197  0  2.307326  0  0  -0.330578  -0.59214  0  2.32813  0
O  O127  1  0.88274561  0.67523742  0.22846388  1  0  -0.652427  0  2.017221  0  0  -0.589233  0  2.266834  0  0  -0.617283  0  2.256683  0  0  -0.319841  -0.569719  0  2.27326  0
O  O128  1  0.11725627  0.32476357  0.77153731  1  0  -0.652316  0  2.01717  0  0  -0.589149  0  2.266759  0  0  -0.617197  0  2.256614  0  0  -0.319819  -0.569632  0  2.273171  0
O  O129  1  0.00037453  0.30595020  0.52345508  1  0  -0.67352  0  2.000948  0  0  -0.608988  0  2.259778  0  0  -0.640111  0  2.247969  0  0  -0.337666  -0.587042  0  2.26709  0
O  O130  1  0.99962159  0.69404813  0.47654682  1  0  -0.673624  0  2.000804  0  0  -0.609035  0  2.259718  0  0  -0.640157  0  2.24791  0  0  -0.337692  -0.587095  0  2.267033  0
O  O131  1  0.10320932  0.29113215  0.37738875  1  0  -0.645657  0  2.012468  0  0  -0.584472  0  2.266436  0  0  -0.613021  0  2.254133  0  0  -0.338546  -0.564507  0  2.274169  0
O  O132  1  0.89678401  0.70886981  0.62260968  1  0  -0.645674  0  2.012374  0  0  -0.584459  0  2.266481  0  0  -0.613004  0  2.254175  0  0  -0.338539  -0.564501  0  2.27422  0
O  O133  1  0.18901501  0.54068576  0.35989528  1  0  -0.714826  0  2.106213  0  0  -0.632299  0  2.376857  0  0  -0.666176  0  2.362799  0  0  -0.350354  -0.60824  0  2.385304  0
O  O134  1  0.81098464  0.45931345  0.64010599  1  0  -0.714787  0  2.106314  0  0  -0.63222  0  2.376942  0  0  -0.666096  0  2.362883  0  0  -0.350328  -0.608164  0  2.385384  0
O  O135  1  0.27342586  0.62274706  0.20201830  1  0  -0.622736  0  1.914225  0  0  -0.57002  0  2.146105  0  0  -0.595937  0  2.138125  0  0  -0.327843  -0.551812  0  2.150899  0
O  O136  1  0.72657111  0.37725484  0.79798444  1  0  -0.622726  0  1.914004  0  0  -0.569989  0  2.145883  0  0  -0.595905  0  2.137908  0  0  -0.327892  -0.551782  0  2.150667  0
F  F137  1  0.73676244  0.85552231  0.77968120  1  0  -0.20355  0  1.193923  0  0  -0.1516  0  1.358116  0  0  -0.161937  0  1.349079  0  0  -0.090416  -0.144003  0  1.364157  0
F  F138  1  0.26324073  0.14447779  0.22031945  1  0  -0.203567  0  1.193848  0  0  -0.151634  0  1.358023  0  0  -0.161971  0  1.348986  0  0  -0.090449  -0.144033  0  1.364061  0
