# generated using pymatgen
data_Mn2H4C6N14O
_symmetry_space_group_name_H-M   'P 1'
_cell_length_a   7.36346520
_cell_length_b   9.63995365
_cell_length_c   20.15307377
_cell_angle_alpha   89.99989151
_cell_angle_beta   90.00012648
_cell_angle_gamma   89.99982830
_symmetry_Int_Tables_number   1
_chemical_formula_structural   Mn2H4C6N14O
_chemical_formula_sum   'Mn8 H16 C24 N56 O4'
_cell_volume   1430.53497089
_cell_formula_units_Z   4
loop_
 _symmetry_equiv_pos_site_id
 _symmetry_equiv_pos_as_xyz
  1  'x, y, z'
loop_
 _atom_site_type_symbol
 _atom_site_label
 _atom_site_symmetry_multiplicity
 _atom_site_fract_x
 _atom_site_fract_y
 _atom_site_fract_z
 _atom_site_occupancy
 _atom_site_pbe_bader_charge
 _atom_site_pbe_bader_spin_density
 _atom_site_pbe_cm5_charge
 _atom_site_pbe_ddec_charge
 _atom_site_pbe_ddec_spin_density
 _atom_site_pbe_ddec_sum_bond_order
 _atom_site_pbe_magmom
Mn  Mn0  1  0.74999463  0.11692300  0.50000388  1  1.456704  4.547452  0.643351  0.626987  4.697057  2.618243  4.459
Mn  Mn1  1  0.25006832  0.88310262  0.99998959  1  1.456546  4.54746  0.643376  0.626978  4.696942  2.618239  4.459
Mn  Mn2  1  0.25007089  0.88308493  0.50001027  1  1.456598  4.547487  0.643376  0.626999  4.697045  2.618245  4.459
Mn  Mn3  1  0.75000535  0.11691568  0.00001067  1  1.456577  4.547458  0.643327  0.626918  4.69701  2.618453  4.459
Mn  Mn4  1  0.47074143  0.50990288  0.24999309  1  1.459217  4.577043  0.619823  0.78456  4.695008  2.37672  4.481
Mn  Mn5  1  0.52924804  0.49007705  0.74998087  1  1.459141  4.577068  0.619818  0.784648  4.695018  2.376644  4.481
Mn  Mn6  1  0.97072890  0.49005678  0.24998734  1  1.459293  4.577044  0.619861  0.784751  4.694882  2.376494  4.481
Mn  Mn7  1  0.02924021  0.50988165  0.75001291  1  1.45911  4.577044  0.619867  0.784664  4.695127  2.376661  4.481
H  H8  1  0.42525275  0.35993821  0.40681636  1  0.14752  0.000806  0.136374  0.09942  7.2e-05  0.986558  0.0
H  H9  1  0.57474039  0.64006289  0.90681496  1  0.147604  0.000806  0.136398  0.099436  7.2e-05  0.986589  0.0
H  H10  1  0.92525362  0.64006512  0.09318239  1  0.147493  0.000806  0.136352  0.099349  7.2e-05  0.986614  0.0
H  H11  1  0.07474578  0.35994135  0.59318382  1  0.147544  0.000807  0.136391  0.099404  7.2e-05  0.986569  0.0
H  H12  1  0.57474352  0.64006350  0.59318241  1  0.147568  0.000806  0.136368  0.099361  7.2e-05  0.986606  0.0
H  H13  1  0.42525316  0.35993467  0.09318430  1  0.147521  0.000807  0.136395  0.099413  7.2e-05  0.986605  0.0
H  H14  1  0.07474265  0.35993348  0.90681538  1  0.147591  0.000806  0.136368  0.099435  7.2e-05  0.986532  0.0
H  H15  1  0.92525728  0.64006243  0.40681743  1  0.147544  0.000806  0.136369  0.099402  7.1e-05  0.986633  0.0
H  H16  1  0.21995923  0.29560848  0.29049658  1  0.633539  0.001675  0.287876  0.330605  0.001639  1.037188  0.002
H  H17  1  0.78003320  0.70439099  0.79049430  1  0.633521  0.001675  0.287886  0.330633  0.001638  1.03713  0.002
H  H18  1  0.71996191  0.70439323  0.20950746  1  0.633522  0.001675  0.287877  0.330633  0.001638  1.037142  0.002
H  H19  1  0.28003276  0.29560448  0.70950465  1  0.633473  0.001676  0.287902  0.330596  0.001639  1.037205  0.002
H  H20  1  0.78004246  0.70439115  0.70950615  1  0.633598  0.001673  0.287877  0.330636  0.001637  1.037126  0.002
H  H21  1  0.21996306  0.29560346  0.20950546  1  0.633461  0.001676  0.287903  0.330638  0.001639  1.037147  0.002
H  H22  1  0.28004115  0.29560640  0.79049527  1  0.633565  0.001675  0.28789  0.330622  0.001639  1.037171  0.002
H  H23  1  0.71996215  0.70438789  0.29049561  1  0.633584  0.001675  0.287854  0.330578  0.001638  1.037224  0.002
C  C24  1  0.56366988  0.35083223  0.38887226  1  0.977042  0.020739  0.150116  0.160115  0.016536  3.98037  0.016
C  C25  1  0.43632722  0.64916789  0.88887074  1  0.977046  0.020733  0.150118  0.160141  0.016531  3.980301  0.016
C  C26  1  0.06367288  0.64917607  0.11112521  1  0.976037  0.020738  0.150147  0.160154  0.016531  3.980334  0.016
C  C27  1  0.93632798  0.35083552  0.61112784  1  0.977059  0.020752  0.15013  0.160176  0.016547  3.980158  0.016
C  C28  1  0.43632503  0.64917362  0.61112551  1  0.976033  0.020756  0.1502  0.160244  0.016546  3.980233  0.016
C  C29  1  0.56366904  0.35082448  0.11112604  1  0.975976  0.020762  0.150132  0.160138  0.016551  3.98027  0.016
C  C30  1  0.93632202  0.35082460  0.88887405  1  0.976042  0.020755  0.150164  0.160064  0.016546  3.980415  0.016
C  C31  1  0.06367236  0.64916826  0.38887143  1  0.977069  0.020718  0.150104  0.160102  0.016518  3.980427  0.016
C  C32  1  0.84002082  0.29471341  0.37779468  1  1.007284  0.017966  0.222273  0.227156  0.014483  4.067314  0.014
C  C33  1  0.15997757  0.70529194  0.87779338  1  1.00739  0.017969  0.222202  0.226953  0.014485  4.067483  0.014
C  C34  1  0.34001688  0.70529011  0.12220698  1  1.007305  0.01796  0.222227  0.227051  0.01448  4.067337  0.014
C  C35  1  0.65998133  0.29471210  0.62220646  1  1.007233  0.017982  0.222303  0.227198  0.014497  4.067296  0.014
C  C36  1  0.15997272  0.70529556  0.62220805  1  1.00732  0.017969  0.222225  0.227054  0.014484  4.067465  0.014
C  C37  1  0.84002006  0.29470250  0.12220588  1  1.007417  0.017987  0.222207  0.226967  0.014502  4.067332  0.014
C  C38  1  0.65997666  0.29470849  0.87779278  1  1.007536  0.017962  0.222227  0.227071  0.01448  4.067348  0.014
C  C39  1  0.34002173  0.70528753  0.37779082  1  1.006892  0.017952  0.222226  0.227128  0.01447  4.067313  0.014
C  C40  1  0.00370417  0.21617662  0.39016619  1  0.987228  0.010864  0.230211  0.198236  0.00883  4.075834  0.008
C  C41  1  0.99629430  0.78382765  0.89016649  1  0.987205  0.010857  0.230245  0.198311  0.008824  4.075958  0.008
C  C42  1  0.50370593  0.78382352  0.10983768  1  0.98753  0.01088  0.230185  0.19827  0.008843  4.075711  0.008
C  C43  1  0.49629764  0.21617874  0.60983809  1  0.986837  0.010873  0.23011  0.198026  0.008837  4.075873  0.008
C  C44  1  0.99629209  0.78382716  0.60983456  1  0.987186  0.010854  0.230261  0.198296  0.008821  4.075972  0.008
C  C45  1  0.00370604  0.21617613  0.10983526  1  0.987183  0.01087  0.230217  0.198216  0.008837  4.075903  0.008
C  C46  1  0.49629712  0.21617715  0.89016406  1  0.987286  0.010865  0.230225  0.198295  0.00883  4.075868  0.008
C  C47  1  0.50370542  0.78382297  0.39016365  1  0.987531  0.010877  0.23014  0.198081  0.008841  4.075613  0.008
N  N48  1  0.00708063  0.12641675  0.44124876  1  -0.729895  0.060185  -0.215413  -0.231344  0.041381  3.406  0.024
N  N49  1  0.99292086  0.87358732  0.94124947  1  -0.729928  0.060177  -0.215391  -0.231243  0.041379  3.405923  0.024
N  N50  1  0.50708580  0.87358131  0.05875412  1  -0.730029  0.060215  -0.215369  -0.231232  0.04139  3.406161  0.024
N  N51  1  0.49291882  0.12642426  0.55875461  1  -0.730022  0.060205  -0.215301  -0.231051  0.041388  3.406007  0.024
N  N52  1  0.99291564  0.87358911  0.55875397  1  -0.729762  0.060183  -0.215402  -0.231332  0.041383  3.40577  0.024
N  N53  1  0.00708491  0.12641438  0.05875426  1  -0.729786  0.060207  -0.215377  -0.231124  0.041387  3.406012  0.024
N  N54  1  0.49291861  0.12642248  0.94124614  1  -0.730064  0.060196  -0.215301  -0.231157  0.04139  3.405904  0.024
N  N55  1  0.50708967  0.87358574  0.44124515  1  -0.729979  0.060206  -0.215396  -0.231215  0.041387  3.406208  0.024
N  N56  1  0.80203160  0.37676063  0.32609334  1  -0.7788  0.059826  -0.226572  -0.231401  0.040239  3.360255  0.025
N  N57  1  0.19796241  0.62323870  0.82609413  1  -0.778566  0.059818  -0.226509  -0.231187  0.040229  3.360158  0.025
N  N58  1  0.30202829  0.62323779  0.17390482  1  -0.778862  0.059832  -0.226527  -0.231277  0.040231  3.360292  0.025
N  N59  1  0.69796751  0.37676525  0.67390525  1  -0.778489  0.059841  -0.226575  -0.231333  0.04024  3.360423  0.025
N  N60  1  0.19795923  0.62323693  0.67390642  1  -0.778817  0.059792  -0.226475  -0.231254  0.040231  3.359985  0.025
N  N61  1  0.80202843  0.37675574  0.17390464  1  -0.778915  0.059859  -0.226509  -0.231198  0.040243  3.360094  0.025
N  N62  1  0.69795982  0.37676184  0.82609345  1  -0.778914  0.059809  -0.226519  -0.231278  0.040233  3.360052  0.025
N  N63  1  0.30202875  0.62323334  0.32609153  1  -0.778076  0.059812  -0.226563  -0.231363  0.040231  3.360309  0.025
N  N64  1  0.16433551  0.05771812  0.43461861  1  -0.217495  0.060218  -0.08975  -0.034249  0.040674  3.484279  0.027
N  N65  1  0.83566458  0.94228287  0.93461912  1  -0.217584  0.060222  -0.089881  -0.034549  0.040682  3.484644  0.027
N  N66  1  0.66433774  0.94228061  0.06538490  1  -0.217428  0.060242  -0.089773  -0.03427  0.040683  3.484622  0.027
N  N67  1  0.33566556  0.05772804  0.56538433  1  -0.21728  0.060244  -0.089823  -0.03438  0.040685  3.484675  0.027
N  N68  1  0.83565940  0.94228255  0.56538463  1  -0.2175  0.060219  -0.089746  -0.034181  0.040673  3.484482  0.027
N  N69  1  0.16433983  0.05771884  0.06538361  1  -0.217471  0.060236  -0.089756  -0.034326  0.040681  3.484388  0.027
N  N70  1  0.33566532  0.05772732  0.93461585  1  -0.217347  0.060244  -0.089857  -0.034426  0.040683  3.484802  0.027
N  N71  1  0.66434156  0.94228300  0.43461543  1  -0.217543  0.060234  -0.089781  -0.034292  0.04068  3.484456  0.027
N  N72  1  0.62209317  0.41211576  0.33308424  1  -0.790313  0.058259  -0.240364  -0.210558  0.037466  3.415979  0.021
N  N73  1  0.37790359  0.58788251  0.83308372  1  -0.790588  0.058235  -0.240354  -0.210658  0.037461  3.415848  0.021
N  N74  1  0.12209268  0.58788410  0.16691179  1  -0.790536  0.058286  -0.240338  -0.210531  0.037465  3.415972  0.021
N  N75  1  0.87790580  0.41212000  0.66691481  1  -0.790753  0.058278  -0.240351  -0.210582  0.037473  3.416044  0.021
N  N76  1  0.37789630  0.58788387  0.66691155  1  -0.790433  0.058298  -0.240407  -0.210603  0.037467  3.416183  0.021
N  N77  1  0.62209267  0.41211298  0.16691207  1  -0.790494  0.058297  -0.24033  -0.21049  0.037467  3.415828  0.021
N  N78  1  0.87789815  0.41211242  0.83308748  1  -0.79039  0.058294  -0.240386  -0.210542  0.037467  3.416274  0.021
N  N79  1  0.12209182  0.58788067  0.33308445  1  -0.79068  0.058238  -0.240348  -0.210614  0.037458  3.415968  0.021
N  N80  1  0.69470896  0.27599868  0.41877945  1  -1.251135  0.05973  -0.334921  -0.354826  0.040316  3.412297  0.023
N  N81  1  0.30529103  0.72400652  0.91877775  1  -1.251062  0.059721  -0.334912  -0.354756  0.040317  3.412299  0.023
N  N82  1  0.19471014  0.72401244  0.08122011  1  -1.249889  0.059691  -0.334858  -0.354724  0.040307  3.41189  0.023
N  N83  1  0.80529054  0.27599823  0.58122171  1  -1.251132  0.059747  -0.334906  -0.354768  0.040317  3.412015  0.023
N  N84  1  0.30528594  0.72401237  0.58122180  1  -1.249949  0.059726  -0.334962  -0.354808  0.040312  3.41239  0.023
N  N85  1  0.69470795  0.27598896  0.08122052  1  -1.249933  0.059727  -0.334923  -0.354727  0.040317  3.412196  0.023
N  N86  1  0.80528477  0.27599031  0.91877965  1  -1.250027  0.059705  -0.334882  -0.354729  0.040311  3.412108  0.023
N  N87  1  0.19471251  0.72400451  0.41877755  1  -1.251006  0.059691  -0.334845  -0.354728  0.040311  3.412049  0.023
N  N88  1  0.15655331  0.20507895  0.35414793  1  -0.70941  0.011094  -0.196015  -0.233049  0.006579  3.329677  0.006
N  N89  1  0.84344222  0.79492338  0.85414958  1  -0.709296  0.011099  -0.196011  -0.233122  0.006583  3.329696  0.006
N  N90  1  0.65655525  0.79491980  0.14585358  1  -0.709547  0.011102  -0.196056  -0.233178  0.006584  3.329747  0.006
N  N91  1  0.34344310  0.20508335  0.64585487  1  -0.709008  0.011109  -0.196031  -0.233075  0.00659  3.329534  0.006
N  N92  1  0.84344295  0.79492276  0.64585332  1  -0.709451  0.011098  -0.196029  -0.233087  0.006581  3.329729  0.006
N  N93  1  0.15655676  0.20507936  0.14585315  1  -0.709453  0.0111  -0.196065  -0.233177  0.006583  3.329801  0.006
N  N94  1  0.34344509  0.20508191  0.85414568  1  -0.709539  0.011108  -0.196116  -0.233269  0.006589  3.329662  0.006
N  N95  1  0.65655859  0.79492250  0.35414638  1  -0.709436  0.011099  -0.195942  -0.232954  0.006582  3.32951  0.006
N  N96  1  0.25514848  0.10451295  0.38290790  1  -0.076633  0.018866  -0.081805  -0.063735  0.012979  3.169581  0.014
N  N97  1  0.74484586  0.89548824  0.88290938  1  -0.076756  0.01887  -0.081731  -0.063567  0.012981  3.16951  0.014
N  N98  1  0.75515392  0.89548454  0.11709519  1  -0.076762  0.01889  -0.081785  -0.063649  0.012996  3.169514  0.014
N  N99  1  0.24484697  0.10451976  0.61709401  1  -0.076688  0.018892  -0.081747  -0.063628  0.012997  3.169425  0.014
N  N100  1  0.74484235  0.89548565  0.61709385  1  -0.076867  0.018871  -0.081821  -0.063815  0.012982  3.169751  0.014
N  N101  1  0.25515583  0.10451450  0.11709336  1  -0.076785  0.018879  -0.081751  -0.063637  0.012988  3.16963  0.014
N  N102  1  0.24484642  0.10451820  0.88290606  1  -0.076704  0.018889  -0.081736  -0.063553  0.012995  3.169509  0.014
N  N103  1  0.75515608  0.89549025  0.38290575  1  -0.076848  0.018881  -0.081822  -0.063727  0.01299  3.169569  0.014
O  O104  1  0.23766940  0.35881113  0.25000001  1  -1.313522  0.11491  -0.547341  -0.72462  0.085536  2.35053  0.057
O  O105  1  0.76232415  0.64118539  0.75000025  1  -1.313677  0.114921  -0.547349  -0.724725  0.085538  2.350718  0.057
O  O106  1  0.73767121  0.64118225  0.25000107  1  -1.313712  0.11492  -0.547297  -0.72466  0.085535  2.350653  0.057
O  O107  1  0.26232370  0.35880908  0.74999968  1  -1.313542  0.114916  -0.547369  -0.724579  0.085543  2.350672  0.057
