# generated using pymatgen
data_Gd2CuH16C32(N2O13)2
_symmetry_space_group_name_H-M   'P 1'
_cell_length_a   9.83650449
_cell_length_b   10.30758798
_cell_length_c   11.01479923
_cell_angle_alpha   70.15588217
_cell_angle_beta   85.14980160
_cell_angle_gamma   71.17714697
_symmetry_Int_Tables_number   1
_chemical_formula_structural   Gd2CuH16C32(N2O13)2
_chemical_formula_sum   'Gd2 Cu1 H16 C32 N4 O26'
_cell_volume   993.91132916
_cell_formula_units_Z   1
loop_
 _symmetry_equiv_pos_site_id
 _symmetry_equiv_pos_as_xyz
  1  'x, y, z'
loop_
 _atom_site_type_symbol
 _atom_site_label
 _atom_site_symmetry_multiplicity
 _atom_site_fract_x
 _atom_site_fract_y
 _atom_site_fract_z
 _atom_site_occupancy
 _atom_site_hle17_ddec_charge
 _atom_site_hle17_ddec_spin_density
 _atom_site_hle17_ddec_sum_bond_order
 _atom_site_hle17_magmom
 _atom_site_hse06_10hf_ddec_charge
 _atom_site_hse06_10hf_ddec_spin_density
 _atom_site_hse06_10hf_ddec_sum_bond_order
 _atom_site_hse06_10hf_magmom
 _atom_site_hse06_ddec_charge
 _atom_site_hse06_ddec_spin_density
 _atom_site_hse06_ddec_sum_bond_order
 _atom_site_hse06_magmom
 _atom_site_pbe_cm5_charge
 _atom_site_pbe_ddec_charge
 _atom_site_pbe_ddec_spin_density
 _atom_site_pbe_ddec_sum_bond_order
 _atom_site_pbe_magmom
Gd  Gd0  1  0.40469684  0.40626418  0.41675416  1  2.20975  0.000693  1.773008  0.001  2.125399  0.000291  2.122819  0.0  2.178188  0.000488  2.070849  0.0  1.479295  2.083431  -8.9e-05  2.166946  0.0
Gd  Gd1  1  0.59530006  0.59373732  0.58324650  1  2.209732  0.000691  1.773067  0.001  2.125369  0.000294  2.122871  0.0  2.178173  0.00049  2.070876  0.0  1.479265  2.083387  -8.9e-05  2.167005  0.0
Cu  Cu2  1  0.49999892  0.99999764  0.50000247  1  1.122713  -0.709136  1.640162  -0.542  1.135448  -0.811157  2.03461  -0.678  1.223336  -0.873603  1.971464  -0.768  0.773009  1.076079  -0.760286  2.080933  -0.612
H  H3  1  0.91872628  0.36250853  0.48449925  1  0.133951  -0.000117  0.917823  0.0  0.140276  -0.000106  0.982029  0.0  0.145099  -5.4e-05  0.977699  0.0  0.126893  0.136639  -0.000115  0.985503  0.0
H  H4  1  0.08127197  0.63749516  0.51549790  1  0.133916  -0.000116  0.917868  0.0  0.14029  -0.000106  0.982024  0.0  0.145108  -5.4e-05  0.977706  0.0  0.126902  0.136657  -0.000115  0.985491  0.0
H  H5  1  0.81021807  0.96685724  0.66372419  1  0.121469  0.000111  0.948192  0.0  0.126127  0.000107  1.017561  0.0  0.129841  9.3e-05  1.014198  0.0  0.116588  0.1231  0.000103  1.020468  0.0
H  H6  1  0.18977135  0.03315188  0.33627102  1  0.121411  0.000128  0.948222  0.0  0.126102  0.000107  1.017565  0.0  0.129814  9.3e-05  1.014204  0.0  0.116604  0.123078  0.000103  1.020475  0.0
H  H7  1  0.25156029  0.95501323  0.65161558  1  0.132618  0.000318  0.953934  0.0  0.131111  0.000223  1.030699  0.0  0.135968  0.000249  1.025507  0.0  0.119958  0.127483  0.000175  1.034617  0.0
H  H8  1  0.74843015  0.04498609  0.34838717  1  0.132662  0.000325  0.953947  0.0  0.131256  0.000223  1.030588  0.0  0.136115  0.000249  1.025389  0.0  0.11997  0.127627  0.000175  1.034498  0.0
H  H9  1  0.45877498  0.37130188  0.97920362  1  0.133197  0.000142  0.906226  0.0  0.142793  1.5e-05  0.963391  0.0  0.147016  1.3e-05  0.959493  0.0  0.125538  0.139373  9e-06  0.966736  0.0
H  H10  1  0.54123889  0.62869096  0.02079664  1  0.133165  0.000155  0.906202  0.0  0.142748  1.6e-05  0.963384  0.0  0.146971  1.3e-05  0.959485  0.0  0.125524  0.139328  9e-06  0.966733  0.0
H  H11  1  0.34911291  0.98675296  0.20173066  1  0.126364  1.9e-05  0.951891  0.0  0.131126  -4.5e-05  1.018929  0.0  0.134706  -1.3e-05  1.01576  0.0  0.118884  0.128381  -7.3e-05  1.021489  0.0
H  H12  1  0.65089146  0.01324421  0.79827079  1  0.12645  2.4e-05  0.951819  0.0  0.131176  -4.5e-05  1.018905  0.0  0.134756  -1.3e-05  1.015735  0.0  0.118895  0.128431  -7.3e-05  1.021458  0.0
H  H13  1  0.29101291  0.15170895  0.78760282  1  0.137869  9.3e-05  0.933785  0.0  0.142032  -4.5e-05  0.999836  0.0  0.146328  -1.6e-05  0.995894  0.0  0.120604  0.138771  -2.5e-05  1.002962  0.0
H  H14  1  0.70898977  0.84829038  0.21239899  1  0.137889  9.9e-05  0.933743  0.0  0.142015  -4.5e-05  0.999837  0.0  0.146307  -1.6e-05  0.995896  0.0  0.120603  0.138752  -2.5e-05  1.002964  0.0
H  H15  1  0.13734159  0.56046413  0.24142717  1  0.453656  -6e-06  0.793189  0.0  0.441058  -1.7e-05  0.832199  0.0  0.448871  -8e-06  0.821082  0.0  0.343214  0.435494  -1.7e-05  0.840137  0.0
H  H16  1  0.86265802  0.43953848  0.75857021  1  0.453689  -5e-06  0.793143  0.0  0.441089  -1.7e-05  0.832156  0.0  0.448902  -9e-06  0.821039  0.0  0.343223  0.43552  -1.7e-05  0.840098  0.0
H  H17  1  0.22675493  0.67083562  0.18307989  1  0.449558  0.0  0.830881  0.0  0.419023  3e-06  0.891495  0.0  0.429955  2e-06  0.875153  0.0  0.313287  0.411279  5e-06  0.903099  0.0
H  H18  1  0.77324740  0.32916481  0.81691887  1  0.449512  1e-06  0.830959  0.0  0.418966  4e-06  0.891591  0.0  0.429898  2e-06  0.875248  0.0  0.313252  0.411215  5e-06  0.903205  0.0
C  C19  1  0.09627045  0.16678716  0.56015039  1  -0.063517  5.6e-05  3.720529  0.0  -0.037968  0.000283  3.956807  0.0  -0.05003  0.000271  3.979329  0.0  -0.008031  -0.03065  0.000257  3.942535  0.0
C  C20  1  0.90372576  0.83321327  0.43984885  1  -0.063643  0.000145  3.720799  0.0  -0.038082  0.000285  3.957119  0.0  -0.050147  0.000271  3.979642  0.0  -0.008104  -0.030767  0.000256  3.942847  0.0
C  C21  1  0.95001937  0.24597220  0.53607870  1  -0.014647  0.000721  3.601149  0.0  -0.061692  0.000228  3.857927  0.0  -0.054764  0.000271  3.872561  0.0  -0.049113  -0.067384  0.000176  3.849921  0.0
C  C22  1  0.04997684  0.75403150  0.46391769  1  -0.014586  0.000602  3.601226  0.0  -0.061658  0.000224  3.858026  0.0  -0.054731  0.000267  3.872658  0.0  -0.049103  -0.067345  0.000176  3.850024  0.0
C  C23  1  0.84684907  0.17430235  0.57146405  1  -0.053631  -0.00024  3.726422  0.0  -0.02871  -3.3e-05  3.96297  0.0  -0.040134  -5.6e-05  3.986015  0.0  -0.00689  -0.021761  -3.7e-05  3.948144  0.0
C  C24  1  0.15314578  0.82570243  0.42853302  1  -0.053471  -0.000159  3.726378  0.0  -0.028622  -3.1e-05  3.963036  0.0  -0.04005  -5.5e-05  3.986074  0.0  -0.006843  -0.021679  -3.7e-05  3.948221  0.0
C  C25  1  0.88846890  0.02516810  0.63846225  1  -0.074472  0.000258  3.685733  0.0  -0.114573  0.000154  3.942314  0.0  -0.109965  0.000209  3.960234  0.0  -0.061326  -0.115738  0.000222  3.929386  0.0
C  C26  1  0.11152289  0.97483667  0.36153505  1  -0.07451  0.0001  3.685651  0.0  -0.114597  0.000152  3.942279  0.0  -0.10999  0.000211  3.9602  0.0  -0.061374  -0.115771  0.000221  3.929365  0.0
C  C27  1  0.03288065  0.95109784  0.67117407  1  0.055979  -0.000128  3.696878  0.0  0.05464  -1.6e-05  3.949713  0.0  0.048957  -3.9e-05  3.973309  0.0  0.075473  0.057701  -2.1e-05  3.933505  0.0
C  C28  1  0.96711250  0.04890584  0.32882438  1  0.056162  -4.6e-05  3.696668  0.0  0.054761  -1.5e-05  3.949631  0.0  0.049079  -4.1e-05  3.973228  0.0  0.075555  0.05783  -2.1e-05  3.933419  0.0
C  C29  1  0.13896387  0.01817879  0.63021452  1  -0.053959  0.000463  3.644176  0.0  -0.092498  0.000345  3.901134  0.0  -0.086762  0.000435  3.916292  0.0  -0.056425  -0.094519  0.000415  3.890236  0.0
C  C30  1  0.86102723  0.98182163  0.36978511  1  -0.054071  0.000315  3.644215  0.0  -0.092686  0.000344  3.901217  0.0  -0.086951  0.000437  3.916379  0.0  -0.056425  -0.094708  0.000415  3.890319  0.0
C  C31  1  0.20253438  0.24470443  0.50401341  1  0.675308  0.000671  3.87114  -0.001  0.633909  -0.002265  4.16095  -0.004  0.67214  -0.002195  4.150931  -0.004  0.216062  0.607226  -0.002112  4.16682  -0.004
C  C32  1  0.79746386  0.75529600  0.49598567  1  0.675481  0.000643  3.871007  -0.001  0.634046  -0.002264  4.160843  -0.004  0.672283  -0.002194  4.150813  -0.004  0.216128  0.607356  -0.002112  4.166715  -0.004
C  C33  1  0.69413856  0.25426827  0.52871739  1  0.711033  1.5e-05  3.848492  0.0  0.667993  3.2e-05  4.135953  0.0  0.703736  2.3e-05  4.125748  0.0  0.225719  0.643912  5.6e-05  4.141643  0.0
C  C34  1  0.30585596  0.74573758  0.47128118  1  0.71074  3e-06  3.848828  0.0  0.667726  3.1e-05  4.136278  0.0  0.703489  2.3e-05  4.126052  0.0  0.225583  0.643653  5.6e-05  4.141959  0.0
C  C35  1  0.37991131  0.26949815  0.87083913  1  -0.053378  3.3e-05  3.691663  0.0  -0.03135  -3.4e-05  3.934594  0.0  -0.042127  0.000219  3.95717  0.0  -0.004982  -0.024798  -0.000322  3.919512  0.0
C  C36  1  0.62009611  0.73049576  0.12916311  1  -0.053227  0.000171  3.6916  0.0  -0.031262  -3.2e-05  3.934589  0.0  -0.042047  0.000218  3.957176  0.0  -0.004926  -0.02472  -0.000323  3.91952  0.0
C  C37  1  0.41618142  0.28400588  0.98509687  1  -0.013974  -0.002539  3.59758  -0.003  -0.061752  -0.001722  3.854222  -0.002  -0.055929  -0.001142  3.870274  -0.001  -0.048734  -0.064668  -0.002026  3.843198  -0.002
C  C38  1  0.58383177  0.71598588  0.01490379  1  -0.01401  -0.002668  3.597431  -0.003  -0.061769  -0.001725  3.854075  -0.002  -0.055941  -0.001142  3.870124  -0.001  -0.048774  -0.064688  -0.002026  3.84306  -0.002
C  C39  1  0.40378453  0.18301149  0.10467566  1  -0.051353  -0.009032  3.707922  -0.01  -0.02713  -0.004393  3.944927  -0.005  -0.038802  -0.002584  3.967961  -0.003  -0.006504  -0.019591  -0.005804  3.929427  -0.007
C  C40  1  0.59622595  0.81698242  0.89532634  1  -0.051343  -0.008929  3.707844  -0.01  -0.027068  -0.004391  3.944749  -0.005  -0.038745  -0.002583  3.967779  -0.003  -0.006473  -0.019523  -0.005804  3.929248  -0.007
C  C41  1  0.35198059  0.06993804  0.11016449  1  -0.078351  -0.001081  3.692162  -0.001  -0.119048  -0.000352  3.950584  0.0  -0.11445  -0.000271  3.968262  0.0  -0.065863  -0.122312  -0.000683  3.939044  -0.001
C  C42  1  0.64802717  0.93005804  0.88983704  1  -0.078502  -0.001196  3.692199  -0.001  -0.119199  -0.000355  3.95063  0.0  -0.114602  -0.000271  3.968308  0.0  -0.065912  -0.122465  -0.000683  3.939082  -0.001
C  C43  1  0.30505354  0.06493539  0.99684227  1  0.051782  0.001596  3.727559  0.001  0.048242  0.000411  3.986669  0.0  0.041609  0.000446  4.011359  0.0  0.074764  0.052565  0.00038  3.969902  0.0
C  C44  1  0.69495287  0.93506177  0.00315903  1  0.051942  0.001751  3.727618  0.001  0.048392  0.000417  3.986717  0.0  0.041762  0.000445  4.011405  0.0  0.074805  0.052705  0.00038  3.969956  0.0
C  C45  1  0.31965281  0.16201758  0.87632043  1  -0.066063  -0.003056  3.649955  -0.003  -0.105251  -0.001222  3.903211  -0.001  -0.100361  -0.000823  3.919448  -0.001  -0.059171  -0.108284  -0.001382  3.892277  -0.001
C  C46  1  0.68035291  0.83797851  0.12367944  1  -0.066236  -0.003161  3.650074  -0.003  -0.105366  -0.001224  3.903366  -0.001  -0.100469  -0.000821  3.919603  -0.001  -0.059226  -0.108394  -0.001382  3.892435  -0.001
C  C47  1  0.41475533  0.36148110  0.74061439  1  0.716976  -0.000103  3.850333  0.0  0.670855  -7.7e-05  4.14532  0.0  0.706546  -3.2e-05  4.1354  0.0  0.23599  0.646799  -9.5e-05  4.15089  0.0
C  C48  1  0.58524938  0.63851497  0.25938737  1  0.716939  -0.000121  3.850264  0.0  0.670825  -7.7e-05  4.145272  0.0  0.706517  -3.5e-05  4.13535  0.0  0.236022  0.646772  -9.5e-05  4.15084  0.0
C  C49  1  0.44610254  0.18712372  0.23100789  1  0.694731  0.006049  3.847597  0.006  0.655843  0.000417  4.138912  0.001  0.694819  0.000544  4.129456  0.001  0.233067  0.629027  -8.8e-05  4.145123  0.001
C  C50  1  0.55390386  0.81287018  0.76899443  1  0.694706  0.006053  3.847622  0.006  0.655834  0.000417  4.138875  0.001  0.694826  0.000544  4.129389  0.001  0.233033  0.629009  -8.8e-05  4.145107  0.001
N  N51  1  0.07449636  0.79450059  0.74581940  1  0.495175  3e-06  3.916648  0.0  0.523148  -2e-06  4.219437  0.0  0.543446  1.3e-05  4.228645  0.0  0.056336  0.50961  -3e-06  4.21293  0.0
N  N52  1  0.92549509  0.20550201  0.25417861  1  0.495064  -1.5e-05  3.917016  0.0  0.523053  -2e-06  4.219829  0.0  0.543352  1.4e-05  4.229042  0.0  0.056332  0.509505  -3e-06  4.21333  0.0
N  N53  1  0.24332591  0.95044803  0.00589950  1  0.505323  4.8e-05  3.902507  0.0  0.532601  2e-05  4.200536  0.0  0.554123  2.4e-05  4.209512  0.0  0.060003  0.518145  2.3e-05  4.194851  0.0
N  N54  1  0.75667812  0.04955022  0.99410164  1  0.505272  2.8e-05  3.902461  0.0  0.532548  2e-05  4.200497  0.0  0.554069  2.2e-05  4.209475  0.0  0.059974  0.5181  2.3e-05  4.1948  0.0
O  O55  1  0.33633971  0.17548111  0.49661361  1  -0.727702  -0.044095  2.231401  -0.063  -0.693294  -0.033471  2.524513  -0.051  -0.732162  -0.024695  2.511387  -0.041  -0.369811  -0.665837  -0.039814  2.53511  -0.057
O  O56  1  0.66365888  0.82451495  0.50339044  1  -0.72772  -0.044081  2.231392  -0.063  -0.693342  -0.033472  2.524559  -0.051  -0.732201  -0.024697  2.511406  -0.041  -0.369821  -0.665875  -0.039817  2.535147  -0.057
O  O57  1  0.16180447  0.38207104  0.46082862  1  -0.633132  -0.01447  1.94105  -0.019  -0.599135  -0.007236  2.173106  -0.01  -0.625773  -0.003348  2.163538  -0.005  -0.345366  -0.57829  -0.0126  2.17843  -0.017
O  O58  1  0.83819649  0.61792721  0.53917185  1  -0.633259  -0.014464  1.940967  -0.019  -0.599166  -0.007237  2.172953  -0.01  -0.625809  -0.003348  2.163383  -0.005  -0.345402  -0.578314  -0.012602  2.178272  -0.017
O  O59  1  0.64208321  0.38812242  0.51958478  1  -0.795947  -5.9e-05  2.19419  0.0  -0.750251  5.3e-05  2.444697  0.0  -0.776917  4.9e-05  2.435195  0.0  -0.418357  -0.730169  1.3e-05  2.449835  0.0
O  O60  1  0.35791029  0.61188342  0.48041478  1  -0.79581  -5e-05  2.194258  0.0  -0.750123  5.3e-05  2.444766  0.0  -0.776795  4.7e-05  2.435259  0.0  -0.418286  -0.730044  1.3e-05  2.449904  0.0
O  O61  1  0.61882661  0.19108483  0.49671013  1  -0.693512  0.001211  2.037108  0.0  -0.670919  0.001091  2.30772  0.0  -0.695838  0.001313  2.293832  0.0  -0.354018  -0.653364  0.000804  2.318167  0.0
O  O62  1  0.38116792  0.80892101  0.50329117  1  -0.693425  0.001213  2.03707  0.0  -0.670815  0.001092  2.30765  0.0  -0.695742  0.001313  2.293758  0.0  -0.353993  -0.653276  0.000804  2.318137  0.0
O  O63  1  0.97606371  0.74038580  0.78486218  1  -0.369493  -2.8e-05  1.701981  0.0  -0.357539  4e-06  1.893768  0.0  -0.369309  -5e-06  1.890597  0.0  -0.146649  -0.349436  -0.0  1.89612  0.0
O  O64  1  0.02392433  0.25961791  0.21513120  1  -0.369496  4.8e-05  1.702157  0.0  -0.357556  3e-06  1.893953  0.0  -0.369325  -4e-06  1.890781  0.0  -0.146717  -0.349454  -0.0  1.896314  0.0
O  O65  1  0.20417692  0.72608693  0.76399870  1  -0.328007  -2e-05  1.738338  0.0  -0.315164  -3.6e-05  1.938216  0.0  -0.325728  -4.1e-05  1.934499  0.0  -0.112026  -0.307712  -4.3e-05  1.940785  0.0
O  O66  1  0.79581116  0.27391997  0.23600457  1  -0.327954  -6.6e-05  1.738488  0.0  -0.315088  -3.5e-05  1.938331  0.0  -0.325652  -4.1e-05  1.934617  0.0  -0.111989  -0.30763  -4.2e-05  1.940892  0.0
O  O67  1  0.38147528  0.33725516  0.64343576  1  -0.704779  -0.000672  2.071427  -0.001  -0.662111  -0.000216  2.313965  0.0  -0.689057  -6.1e-05  2.306063  0.0  -0.383081  -0.642831  -0.000318  2.318969  0.0
O  O68  1  0.61852569  0.66274635  0.35656459  1  -0.704819  -0.000665  2.071379  -0.001  -0.662158  -0.000216  2.313933  0.0  -0.689108  -5.9e-05  2.306032  0.0  -0.383128  -0.642876  -0.000318  2.318938  0.0
O  O69  1  0.47925831  0.45063848  0.73947785  1  -0.698374  0.000152  2.024243  0.0  -0.660542  8.5e-05  2.270929  0.0  -0.686847  7.5e-05  2.260429  0.0  -0.389463  -0.641476  4.3e-05  2.27745  0.0
O  O70  1  0.52074367  0.54935977  0.26052253  1  -0.698339  0.000173  2.024217  0.0  -0.660494  8.6e-05  2.270891  0.0  -0.686806  7.3e-05  2.260413  0.0  -0.38948  -0.641429  4.3e-05  2.277406  0.0
O  O71  1  0.43130224  0.30670981  0.24541033  1  -0.673191  -0.000538  2.020349  -0.002  -0.639144  -0.000486  2.258819  -0.002  -0.664479  0.000119  2.247073  -0.001  -0.364757  -0.621535  -0.00103  2.267225  -0.002
O  O72  1  0.56870111  0.69328407  0.75459495  1  -0.673114  -0.000531  2.02029  -0.002  -0.639063  -0.000485  2.258713  -0.002  -0.664411  0.000119  2.246967  -0.001  -0.364716  -0.62145  -0.00103  2.267129  -0.002
O  O73  1  0.49315298  0.05957432  0.31512661  1  -0.607695  -0.082353  2.08262  -0.114  -0.591336  -0.046572  2.37796  -0.071  -0.634743  -0.032849  2.367434  -0.055  -0.319024  -0.562105  -0.056014  2.386144  -0.081
O  O74  1  0.50685206  0.94042066  0.68487638  1  -0.607717  -0.082359  2.082706  -0.114  -0.591357  -0.046573  2.378012  -0.071  -0.634774  -0.032851  2.367497  -0.055  -0.319001  -0.562124  -0.056017  2.386204  -0.081
O  O75  1  0.25186528  0.85391021  0.11347110  1  -0.386987  0.000102  1.801544  0.0  -0.357862  -3e-05  2.007885  0.0  -0.373301  -1.5e-05  2.004061  0.0  -0.121727  -0.347948  -2e-06  2.011245  0.0
O  O76  1  0.74813841  0.14608912  0.88652972  1  -0.386967  0.000107  1.801512  0.0  -0.35783  -2.9e-05  2.007854  0.0  -0.373271  -1.5e-05  2.004032  0.0  -0.121711  -0.34792  -2e-06  2.011212  0.0
O  O77  1  0.18582035  0.95476081  0.90840956  1  -0.341151  0.000309  1.761892  0.0  -0.330029  0.00016  1.969574  0.0  -0.341607  0.000173  1.966562  0.0  -0.120872  -0.322748  0.000131  1.972454  0.0
O  O78  1  0.81418233  0.04523851  0.09159225  1  -0.341156  0.000355  1.761888  0.0  -0.330035  0.000158  1.969566  0.0  -0.341614  0.000174  1.966556  0.0  -0.120876  -0.322762  0.000131  1.972442  0.0
O  O79  1  0.21953862  0.58644374  0.25608272  1  -0.882757  5.7e-05  1.875252  0.0  -0.846603  3.4e-05  2.047739  0.0  -0.863928  2.3e-05  2.017199  0.0  -0.615951  -0.833795  4.8e-05  2.069374  0.0
O  O80  1  0.78046369  0.41355345  0.74391434  1  -0.882737  5.6e-05  1.875274  0.0  -0.846584  3.4e-05  2.047767  0.0  -0.863912  2.3e-05  2.017226  0.0  -0.615931  -0.833769  4.7e-05  2.069409  0.0
