# generated using pymatgen
data_CuH10C10(NO)4
_symmetry_space_group_name_H-M   'P 1'
_cell_length_a   7.45594744
_cell_length_b   11.34466138
_cell_length_c   13.76651926
_cell_angle_alpha   89.99892495
_cell_angle_beta   90.00049542
_cell_angle_gamma   89.99927735
_symmetry_Int_Tables_number   1
_chemical_formula_structural   CuH10C10(NO)4
_chemical_formula_sum   'Cu4 H40 C40 N16 O16'
_cell_volume   1164.44377122
_cell_formula_units_Z   4
loop_
 _symmetry_equiv_pos_site_id
 _symmetry_equiv_pos_as_xyz
  1  'x, y, z'
loop_
 _atom_site_type_symbol
 _atom_site_label
 _atom_site_symmetry_multiplicity
 _atom_site_fract_x
 _atom_site_fract_y
 _atom_site_fract_z
 _atom_site_occupancy
 _atom_site_hle17_ddec_charge
 _atom_site_hle17_ddec_spin_density
 _atom_site_hle17_ddec_sum_bond_order
 _atom_site_hle17_magmom
 _atom_site_hse06_10hf_ddec_charge
 _atom_site_hse06_10hf_ddec_spin_density
 _atom_site_hse06_10hf_ddec_sum_bond_order
 _atom_site_hse06_10hf_magmom
 _atom_site_hse06_ddec_charge
 _atom_site_hse06_ddec_spin_density
 _atom_site_hse06_ddec_sum_bond_order
 _atom_site_hse06_magmom
 _atom_site_pbe_cm5_charge
 _atom_site_pbe_ddec_charge
 _atom_site_pbe_ddec_spin_density
 _atom_site_pbe_ddec_sum_bond_order
 _atom_site_pbe_magmom
Cu  Cu0  1  0.00000719  0.50000228  0.50000191  1  0.844322  0.716333  1.772759  0.502  0.813467  0.799559  2.166358  0.613  0.905322  0.872222  2.095197  0.693  0.734896  0.75333  0.744091  2.219581  0.56
Cu  Cu1  1  0.99999080  0.99999924  0.00000179  1  0.844295  -0.716364  1.772972  -0.502  0.813488  -0.799562  2.166518  -0.613  0.905377  -0.872236  2.095375  -0.693  0.734948  0.753401  -0.744068  2.219672  -0.56
Cu  Cu2  1  0.49999205  0.50000403  0.00000089  1  0.844522  0.716335  1.772653  0.502  0.813676  0.799562  2.166248  0.613  0.905506  0.872232  2.095145  0.693  0.73502  0.753565  0.744102  2.219454  0.56
Cu  Cu3  1  0.50000326  0.99999572  0.49999627  1  0.844507  -0.71639  1.772827  -0.502  0.813678  -0.799574  2.166359  -0.613  0.905544  -0.872244  2.095243  -0.693  0.735038  0.75357  -0.744067  2.219549  -0.56
H  H4  1  0.71195013  0.70269734  0.73210571  1  0.126104  -0.000392  0.933224  -0.001  0.136497  -6.6e-05  0.99496  0.0  0.139666  -6.6e-05  0.992792  0.0  0.120574  0.134228  -5.8e-05  0.996619  0.0
H  H5  1  0.28805016  0.79729986  0.23209158  1  0.126072  0.000391  0.933211  0.001  0.136416  6.6e-05  0.995012  0.0  0.139569  6.5e-05  0.992833  0.0  0.120545  0.134145  5.7e-05  0.996675  0.0
H  H6  1  0.21194941  0.29729688  0.76789380  1  0.126076  -0.000391  0.933208  -0.001  0.136455  -6.6e-05  0.994943  0.0  0.139635  -6.6e-05  0.992777  0.0  0.120551  0.134184  -5.7e-05  0.996603  0.0
H  H7  1  0.78804622  0.20269699  0.26790098  1  0.126112  0.000393  0.933221  0.001  0.136506  6.6e-05  0.994957  0.0  0.139653  6.5e-05  0.992774  0.0  0.120543  0.134233  5.9e-05  0.996618  0.0
H  H8  1  0.28804314  0.29730128  0.26790049  1  0.1261  -0.000391  0.933205  -0.001  0.136472  -6.6e-05  0.994945  0.0  0.139633  -6.6e-05  0.992772  0.0  0.120555  0.134201  -5.8e-05  0.996607  0.0
H  H9  1  0.71193104  0.20269524  0.76789356  1  0.126107  0.000392  0.933295  0.001  0.136479  6.6e-05  0.99502  0.0  0.139629  6.5e-05  0.992841  0.0  0.120526  0.134207  5.9e-05  0.996679  0.0
H  H10  1  0.78805592  0.70270262  0.23210586  1  0.126118  -0.000392  0.933228  -0.001  0.136478  -6.6e-05  0.994962  0.0  0.139633  -6.6e-05  0.992786  0.0  0.120525  0.134209  -5.6e-05  0.996618  0.0
H  H11  1  0.21194839  0.79730868  0.73210159  1  0.126072  0.000391  0.933355  0.001  0.136465  6.6e-05  0.995083  0.0  0.139609  6.5e-05  0.992899  0.0  0.120571  0.134192  5.8e-05  0.996743  0.0
H  H12  1  0.73728336  0.56224905  0.78791546  1  0.123583  -0.000559  0.950269  -0.001  0.131367  -0.000289  1.018562  0.0  0.133772  -0.000242  1.016956  0.0  0.116308  0.129549  -0.000306  1.019926  0.0
H  H13  1  0.26275267  0.93774690  0.28790554  1  0.123526  0.000558  0.950317  0.001  0.131332  0.000289  1.018611  0.0  0.133723  0.000242  1.016995  0.0  0.116311  0.12951  0.000308  1.019985  0.0
H  H14  1  0.23726702  0.43774320  0.71207908  1  0.123567  -0.000559  0.95024  -0.001  0.131352  -0.000289  1.018509  0.0  0.13377  -0.000242  1.016912  0.0  0.116316  0.129534  -0.000306  1.019878  0.0
H  H15  1  0.76275725  0.06225369  0.21208617  1  0.123576  0.000559  0.950333  0.001  0.131376  0.000289  1.018618  0.0  0.133762  0.000242  1.017004  0.0  0.116339  0.129552  0.000307  1.019997  0.0
H  H16  1  0.26272198  0.43774340  0.21207767  1  0.123523  -0.00056  0.950355  -0.001  0.131322  -0.000289  1.018597  0.0  0.133721  -0.000242  1.01699  0.0  0.116304  0.129504  -0.000306  1.019963  0.0
H  H17  1  0.73725401  0.06224732  0.71208831  1  0.12359  0.000559  0.950282  0.001  0.131372  0.000289  1.018558  0.0  0.133763  0.000242  1.016944  0.0  0.116306  0.12955  0.000307  1.019934  0.0
H  H18  1  0.76274234  0.56225454  0.28791477  1  0.12361  -0.00056  0.950312  -0.001  0.131383  -0.000289  1.018574  0.0  0.133779  -0.000242  1.016967  0.0  0.116347  0.129566  -0.000307  1.019946  0.0
H  H19  1  0.23725748  0.93775727  0.78790623  1  0.123579  0.000559  0.950261  0.001  0.131372  0.000289  1.018548  0.0  0.133756  0.000242  1.016933  0.0  0.11631  0.129546  0.000307  1.019927  0.0
H  H20  1  0.82137184  0.87595367  0.81445948  1  0.108177  -4e-05  0.970673  0.0  0.115018  -5.3e-05  1.03537  0.0  0.118179  -3.3e-05  1.031603  0.0  0.135136  0.112627  -7.4e-05  1.03811  0.0
H  H21  1  0.17862840  0.62404874  0.31445046  1  0.108055  4e-05  0.970758  0.0  0.114997  5.3e-05  1.035345  0.0  0.118157  3.4e-05  1.03158  0.0  0.135107  0.112607  7.5e-05  1.038083  0.0
H  H22  1  0.32138118  0.12404317  0.68554490  1  0.108193  -4e-05  0.970697  0.0  0.115071  -5.3e-05  1.035344  0.0  0.118233  -3.4e-05  1.031572  0.0  0.135141  0.112682  -7.4e-05  1.038079  0.0
H  H23  1  0.67862255  0.37595079  0.18553939  1  0.108039  4e-05  0.970722  0.0  0.114847  5.3e-05  1.035463  0.0  0.118008  3.4e-05  1.031693  0.0  0.135015  0.112459  7.4e-05  1.038201  0.0
H  H24  1  0.17861473  0.12404319  0.18554962  1  0.108142  -4e-05  0.970794  0.0  0.115015  -5.2e-05  1.035441  0.0  0.118179  -3.3e-05  1.031665  0.0  0.135127  0.112626  -7.5e-05  1.038184  0.0
H  H25  1  0.82137292  0.37594900  0.68554266  1  0.108217  3.9e-05  0.970782  0.0  0.11505  5.2e-05  1.035475  0.0  0.118211  3.3e-05  1.031705  0.0  0.135143  0.11266  7.4e-05  1.038212  0.0
H  H26  1  0.67863220  0.87594928  0.31445984  1  0.108168  -4e-05  0.970871  0.0  0.115014  -5.2e-05  1.03554  0.0  0.118175  -3.3e-05  1.031769  0.0  0.135134  0.112622  -7.4e-05  1.038281  0.0
H  H27  1  0.32137340  0.62405929  0.81445737  1  0.107933  4.1e-05  0.970742  0.0  0.114821  5.3e-05  1.035407  0.0  0.117984  3.4e-05  1.031632  0.0  0.13504  0.112433  7.5e-05  1.03814  0.0
H  H28  1  0.12267130  0.72967964  0.04556308  1  0.114415  -3.6e-05  0.949292  0.0  0.125122  -0.000183  1.004744  0.0  0.127393  -0.000132  1.003904  0.0  0.120924  0.12339  -0.000225  1.005452  0.0
H  H29  1  0.87734619  0.77032438  0.54556023  1  0.114279  3.6e-05  0.948945  0.0  0.125008  0.000184  1.004406  0.0  0.12728  0.000132  1.003565  0.0  0.120863  0.123273  0.000226  1.005116  0.0
H  H30  1  0.62266497  0.27031506  0.45443958  1  0.114421  -3.5e-05  0.949342  0.0  0.125191  -0.000183  1.004705  0.0  0.12746  -0.000132  1.003873  0.0  0.120952  0.123457  -0.000225  1.005413  0.0
H  H31  1  0.37731749  0.22967640  0.95444297  1  0.114375  3.5e-05  0.949276  0.0  0.125094  0.000183  1.004709  0.0  0.127365  0.000132  1.00387  0.0  0.12092  0.12336  0.000224  1.005415  0.0
H  H32  1  0.87732734  0.27031105  0.95443803  1  0.11437  -3.6e-05  0.949225  0.0  0.125109  -0.000183  1.004647  0.0  0.127378  -0.000132  1.003813  0.0  0.120933  0.123377  -0.000224  1.005351  0.0
H  H33  1  0.12267659  0.22967600  0.45444742  1  0.114326  3.5e-05  0.949387  0.0  0.125105  0.000183  1.004751  0.0  0.127378  0.000132  1.00391  0.0  0.120925  0.123368  0.000225  1.005462  0.0
H  H34  1  0.37732695  0.72967562  0.54555500  1  0.114288  -3.6e-05  0.949413  0.0  0.125111  -0.000183  1.004717  0.0  0.127385  -0.000132  1.003872  0.0  0.120913  0.123374  -0.000224  1.005431  0.0
H  H35  1  0.62265700  0.77033016  0.04556468  1  0.114441  3.4e-05  0.949198  0.0  0.125147  0.000183  1.004648  0.0  0.12742  0.000132  1.003806  0.0  0.120925  0.123412  0.000225  1.005357  0.0
H  H36  1  0.01537089  0.55088399  0.92039612  1  0.125189  -0.000508  0.939471  -0.001  0.137971  -0.000427  0.993904  0.0  0.140719  -0.00034  0.992642  0.0  0.129013  0.135862  -0.000481  0.995165  -0.001
H  H37  1  0.98465515  0.94912045  0.42038075  1  0.125245  0.000507  0.939634  0.001  0.138045  0.000426  0.994028  0.0  0.140789  0.00034  0.992775  0.0  0.129  0.135945  0.00048  0.995263  0.001
H  H38  1  0.51537808  0.44911010  0.57961117  1  0.125203  -0.000508  0.93951  -0.001  0.13799  -0.000427  0.993927  0.0  0.140737  -0.00034  0.992666  0.0  0.129037  0.135879  -0.000481  0.99519  -0.001
H  H39  1  0.48463607  0.05088005  0.07961638  1  0.125213  0.000507  0.939543  0.001  0.138034  0.000427  0.993901  0.0  0.140771  0.00034  0.992665  0.0  0.129024  0.135933  0.000481  0.995135  0.001
H  H40  1  0.98462774  0.44911286  0.07960790  1  0.12525  -0.000509  0.939393  -0.001  0.138021  -0.000427  0.993832  0.0  0.140768  -0.00034  0.992571  0.0  0.129052  0.135914  -0.00048  0.995086  -0.001
H  H41  1  0.01536361  0.05087906  0.57961819  1  0.125191  0.000509  0.939519  0.001  0.137961  0.000427  0.993949  0.0  0.140696  0.00034  0.992719  0.0  0.129003  0.135859  0.000481  0.995182  0.001
H  H42  1  0.48462592  0.55088235  0.42038341  1  0.125194  -0.000508  0.93956  -0.001  0.137976  -0.000427  0.993983  0.0  0.140722  -0.00034  0.992724  0.0  0.129024  0.135878  -0.00048  0.995215  -0.001
H  H43  1  0.51536793  0.94912738  0.92038474  1  0.125207  0.000507  0.939547  0.001  0.138014  0.000427  0.993935  0.0  0.140753  0.00034  0.992696  0.0  0.12903  0.135914  0.00048  0.995168  0.001
C  C44  1  0.93875218  0.60275127  0.68162151  1  0.659195  -0.003896  3.873202  -0.008  0.617346  -7.7e-05  4.184946  -0.003  0.652579  -0.000647  4.179389  -0.003  0.202489  0.593614  0.000486  4.187608  -0.003
C  C45  1  0.06126877  0.89726821  0.18161199  1  0.659631  0.003898  3.872831  0.008  0.617873  7.9e-05  4.184454  0.003  0.653087  0.000646  4.178881  0.003  0.202736  0.594144  -0.000476  4.18713  0.003
C  C46  1  0.43872889  0.39725869  0.81838417  1  0.659592  -0.003897  3.872565  -0.008  0.617725  -7.8e-05  4.18431  -0.003  0.652971  -0.000647  4.178745  -0.003  0.20271  0.593997  0.000481  4.186979  -0.003
C  C47  1  0.56127425  0.10272612  0.31838021  1  0.659623  0.003896  3.87276  0.008  0.617852  7.9e-05  4.184394  0.003  0.653056  0.000644  4.178819  0.003  0.202653  0.594122  -0.000479  4.18707  0.003
C  C48  1  0.06125584  0.39726322  0.31838179  1  0.659422  -0.003893  3.873213  -0.008  0.617607  -7.7e-05  4.184895  -0.003  0.65283  -0.000647  4.179334  -0.003  0.20258  0.593878  0.000484  4.187559  -0.003
C  C49  1  0.93872449  0.10273922  0.81839058  1  0.659529  0.003895  3.87311  0.008  0.617629  7.9e-05  4.184905  0.003  0.652837  0.000645  4.179343  0.003  0.202669  0.593899  -0.000479  4.187575  0.003
C  C50  1  0.56126706  0.60274346  0.18161549  1  0.659501  -0.003894  3.872959  -0.008  0.617702  -7.9e-05  4.184584  -0.003  0.652917  -0.000647  4.179017  -0.003  0.202678  0.593974  0.000476  4.187252  -0.003
C  C51  1  0.43873109  0.89726545  0.68161074  1  0.659646  0.003898  3.872749  0.008  0.617778  7.9e-05  4.184566  0.003  0.652974  0.000645  4.178993  0.003  0.202614  0.594044  -0.000473  4.18724  0.003
C  C52  1  0.81010079  0.64075820  0.76255349  1  -0.173255  0.009225  3.614606  0.009  -0.229313  0.005433  3.853827  0.006  -0.231272  0.003744  3.860517  0.004  -0.058615  -0.227945  0.006727  3.849548  0.007
C  C53  1  0.18991070  0.85924536  0.26254227  1  -0.173015  -0.009218  3.614486  -0.009  -0.22916  -0.005431  3.853875  -0.006  -0.231028  -0.00374  3.860446  -0.004  -0.058545  -0.227796  -0.006723  3.849601  -0.007
C  C54  1  0.31009440  0.35924049  0.73744940  1  -0.173198  0.009221  3.614424  0.009  -0.229226  0.005431  3.853644  0.006  -0.231237  0.003743  3.860387  0.004  -0.058594  -0.227859  0.006727  3.849371  0.007
C  C55  1  0.68990881  0.14075230  0.23745272  1  -0.173265  -0.009218  3.614553  -0.009  -0.229375  -0.00543  3.85383  -0.006  -0.231212  -0.00374  3.860348  -0.004  -0.058598  -0.228009  -0.006722  3.849561  -0.007
C  C56  1  0.18990186  0.35924306  0.23745053  1  -0.173055  0.009226  3.614407  0.009  -0.229112  0.005432  3.853637  0.006  -0.231029  0.003744  3.860268  0.004  -0.058526  -0.227744  0.006727  3.849363  0.007
C  C57  1  0.81008257  0.14075502  0.73745376  1  -0.173264  -0.00922  3.614595  -0.009  -0.229207  -0.005431  3.853681  -0.006  -0.231062  -0.00374  3.860234  -0.004  -0.05854  -0.22784  -0.006723  3.849406  -0.007
C  C58  1  0.68991094  0.64075901  0.26254736  1  -0.173328  0.009224  3.614713  0.009  -0.229291  0.005433  3.853806  0.006  -0.231179  0.003743  3.860396  0.004  -0.05859  -0.227925  0.006726  3.849535  0.007
C  C59  1  0.31009250  0.85925160  0.76254404  1  -0.173157  -0.009221  3.614463  -0.009  -0.229246  -0.005432  3.853754  -0.006  -0.23106  -0.003741  3.86025  -0.004  -0.058546  -0.227875  -0.006725  3.849478  -0.007
C  C60  1  0.89327779  0.81518506  0.86091632  1  0.154078  0.006388  3.656635  0.006  0.098692  0.001402  3.923864  0.001  0.114164  0.001934  3.938322  0.002  0.13999  0.08901  0.001072  3.913699  0.001
C  C61  1  0.10672585  0.68481807  0.36090963  1  0.154217  -0.006386  3.656735  -0.006  0.098763  -0.001402  3.923921  -0.001  0.114234  -0.001932  3.938397  -0.002  0.140005  0.089075  -0.001072  3.913753  -0.001
C  C62  1  0.39328391  0.18481118  0.63908841  1  0.15413  0.006389  3.656383  0.006  0.098736  0.001401  3.923607  0.001  0.114207  0.001933  3.938061  0.002  0.139991  0.089051  0.001077  3.913441  0.001
C  C63  1  0.60671776  0.31517941  0.13908642  1  0.15417  -0.006386  3.65674  -0.006  0.098832  -0.001403  3.923931  -0.001  0.1143  -0.001932  3.938403  -0.002  0.140069  0.089143  -0.001069  3.913766  -0.001
C  C64  1  0.10671413  0.18481533  0.13909569  1  0.154155  0.006386  3.65648  0.006  0.098794  0.001402  3.923669  0.001  0.114262  0.001932  3.938134  0.002  0.140037  0.089106  0.001075  3.913508  0.001
C  C65  1  0.89327144  0.31518496  0.63909221  1  0.153935  -0.006388  3.656407  -0.006  0.098558  -0.001403  3.923633  -0.001  0.114026  -0.001933  3.938109  -0.002  0.139909  0.088874  -0.001073  3.913461  -0.001
C  C66  1  0.60673082  0.81518480  0.36090762  1  0.154061  0.006389  3.656325  0.006  0.098693  0.001405  3.923529  0.001  0.114164  0.001933  3.937995  0.002  0.139964  0.08901  0.00107  3.913367  0.001
C  C67  1  0.39327551  0.68482626  0.86091615  1  0.154288  -0.006386  3.656588  -0.006  0.098824  -0.001403  3.923837  -0.001  0.114296  -0.001932  3.938313  -0.002  0.140052  0.089143  -0.00108  3.913668  -0.001
C  C68  1  0.04123219  0.73406365  0.98057408  1  0.011551  0.001186  3.72158  0.001  -0.021765  -0.000999  3.995014  -0.001  -0.017359  -0.000415  4.015701  0.0  -0.002435  -0.024355  -0.001315  3.981042  -0.001
C  C69  1  0.95878808  0.76594209  0.48056073  1  0.011857  -0.001185  3.721477  -0.001  -0.021455  0.001  3.994943  0.001  -0.017048  0.000415  4.015623  0.0  -0.002321  -0.024047  0.001311  3.980959  0.001
C  C70  1  0.54123523  0.26593376  0.51943043  1  0.01148  0.001193  3.721615  0.001  -0.021886  -0.001  3.995074  -0.001  -0.017481  -0.000414  4.015755  0.0  -0.002502  -0.024476  -0.001305  3.981088  -0.001
C  C71  1  0.45876188  0.23405863  0.01943263  1  0.011655  -0.001184  3.721609  -0.001  -0.02168  0.001  3.995082  0.001  -0.017272  0.000416  4.015758  0.0  -0.002424  -0.024262  0.001302  3.981087  0.001
C  C72  1  0.95876644  0.26593497  0.01943576  1  0.011606  0.001189  3.721921  0.001  -0.021737  -0.001001  3.995381  -0.001  -0.017329  -0.000415  4.016066  0.0  -0.002474  -0.024326  -0.001313  3.981398  -0.001
C  C73  1  0.04123603  0.23405917  0.51943748  1  0.011655  -0.001186  3.72172  -0.001  -0.02171  0.001001  3.995186  0.001  -0.017301  0.000416  4.015867  0.0  -0.002453  -0.024299  0.001317  3.981196  0.001
C  C74  1  0.45876877  0.73405781  0.48056342  1  0.011706  0.001187  3.721878  0.001  -0.021693  -0.001001  3.995341  -0.001  -0.017285  -0.000417  4.016029  0.0  -0.0024  -0.024284  -0.001317  3.981356  -0.001
C  C75  1  0.54122736  0.76594705  0.98057139  1  0.011526  -0.001181  3.721486  -0.001  -0.021816  0.001  3.994955  0.001  -0.017408  0.000416  4.015634  0.0  -0.002396  -0.024411  0.001317  3.98098  0.001
C  C76  1  0.98887336  0.64473202  0.91954636  1  -0.054802  -0.005035  3.645455  -0.005  -0.095478  -0.002139  3.906364  -0.002  -0.094758  -0.001909  3.9237  -0.002  0.007382  -0.096182  -0.002287  3.895145  -0.002
C  C77  1  0.01113791  0.85527244  0.41953799  1  -0.054978  0.005035  3.645868  0.005  -0.0957  0.002139  3.906808  0.002  -0.094971  0.001909  3.924134  0.002  0.007231  -0.096406  0.002285  3.895593  0.002
C  C78  1  0.48887933  0.35526165  0.58046101  1  -0.054795  -0.005043  3.645599  -0.005  -0.095481  -0.002138  3.906532  -0.002  -0.094752  -0.001909  3.923856  -0.002  0.007319  -0.09619  -0.002277  3.895315  -0.002
C  C79  1  0.51112946  0.14473024  0.08046051  1  -0.054943  0.005039  3.645853  0.005  -0.095641  0.002139  3.906788  0.002  -0.094919  0.001909  3.924114  0.002  0.007259  -0.09635  0.002297  3.895573  0.002
C  C80  1  0.01112125  0.35525778  0.08045766  1  -0.054948  -0.005036  3.64598  -0.005  -0.09561  -0.002138  3.906913  -0.002  -0.094887  -0.001908  3.924246  -0.002  0.007296  -0.096307  -0.002289  3.89569  -0.002
C  C81  1  0.98887012  0.14473323  0.58046313  1  -0.05489  0.005037  3.645851  0.005  -0.09557  0.002138  3.906824  0.002  -0.094845  0.001909  3.924154  0.002  0.007273  -0.096278  0.002288  3.895605  0.002
C  C82  1  0.51112600  0.64472991  0.41953866  1  -0.054919  -0.005039  3.645778  -0.005  -0.095618  -0.002139  3.906748  -0.002  -0.094894  -0.001909  3.924086  -0.002  0.00723  -0.096319  -0.00228  3.895531  -0.002
C  C83  1  0.48886917  0.85527543  0.91954134  1  -0.054768  0.005037  3.645638  0.005  -0.095458  0.002139  3.906552  0.002  -0.094733  0.001908  3.923884  0.002  0.007313  -0.096162  0.002283  3.895332  0.002
N  N84  1  0.89599608  0.69780667  0.84452676  1  -0.027042  0.000589  3.605926  0.001  0.064744  -5.7e-05  3.819378  0.0  0.05085  -0.000158  3.84621  0.0  -0.242076  0.073926  0.000125  3.801126  0.0
N  N85  1  0.10401670  0.80219947  0.34451531  1  -0.02711  -0.000587  3.60587  -0.001  0.06473  5.7e-05  3.819309  0.0  0.0508  0.000158  3.846145  0.0  -0.24188  0.073921  -0.000115  3.801041  0.0
N  N86  1  0.39600424  0.30219131  0.65547944  1  -0.027094  0.00059  3.605877  0.001  0.064671  -5.7e-05  3.819336  0.0  0.050789  -0.000159  3.846177  0.0  -0.241967  0.073858  0.000111  3.801075  0.0
N  N87  1  0.60400573  0.19780156  0.15547637  1  -0.026933  -0.000589  3.606097  -0.001  0.064858  5.7e-05  3.819526  0.0  0.050929  0.000157  3.846335  0.0  -0.24196  0.074044  -0.000118  3.801261  0.0
N  N88  1  0.10398914  0.30218754  0.15547581  1  -0.027141  0.000592  3.606231  0.001  0.064606  -5.6e-05  3.819701  0.0  0.050701  -0.000157  3.846525  0.0  -0.242087  0.073789  0.000125  3.801446  0.0
N  N89  1  0.89598864  0.19779827  0.65548000  1  -0.026974  -0.000587  3.605864  -0.001  0.064824  5.8e-05  3.819235  0.0  0.050893  0.000158  3.846069  0.0  -0.241873  0.074013  -0.000115  3.800966  0.0
N  N90  1  0.60400647  0.69780291  0.34452095  1  -0.026982  0.000589  3.605784  0.001  0.0648  -5.8e-05  3.819157  0.0  0.050879  -0.000158  3.845987  0.0  -0.241953  0.073985  0.000118  3.800896  0.0
N  N91  1  0.39599022  0.80220676  0.84452184  1  -0.027155  -0.000591  3.6057  -0.001  0.064664  5.8e-05  3.819137  0.0  0.050716  0.000158  3.845967  0.0  -0.242023  0.073849  -0.00011  3.800872  0.0
N  N92  1  0.98069700  0.84025636  0.94311649  1  -0.371863  -0.069501  3.346678  -0.086  -0.331595  -0.049643  3.672829  -0.065  -0.363959  -0.042249  3.692547  -0.058  -0.381978  -0.311165  -0.052926  3.660862  -0.067
N  N93  1  0.01930793  0.65974581  0.44310977  1  -0.372089  0.069498  3.347026  0.086  -0.33183  0.049641  3.673251  0.065  -0.364182  0.042249  3.692947  0.058  -0.382071  -0.311388  0.052935  3.66129  0.067
N  N94  1  0.48070231  0.15973739  0.55688794  1  -0.372045  -0.069503  3.346458  -0.086  -0.331803  -0.049642  3.672669  -0.065  -0.364158  -0.042247  3.692385  -0.058  -0.38207  -0.311365  -0.052936  3.660711  -0.067
N  N95  1  0.51929270  0.34025592  0.05688513  1  -0.372026  0.069504  3.346584  0.086  -0.331757  0.049644  3.672776  0.065  -0.364107  0.042251  3.692479  0.058  -0.38203  -0.31132  0.052935  3.660822  0.067
N  N96  1  0.01928956  0.15973521  0.05688826  1  -0.371966  -0.069506  3.346335  -0.086  -0.331723  -0.049645  3.672519  -0.065  -0.364089  -0.04225  3.692231  -0.058  -0.382035  -0.311288  -0.052931  3.660559  -0.067
N  N97  1  0.98070411  0.34025545  0.55689062  1  -0.371863  0.069513  3.346477  0.086  -0.331604  0.049647  3.67268  0.065  -0.363956  0.042255  3.692378  0.058  -0.381985  -0.311161  0.052939  3.660714  0.067
N  N98  1  0.51929901  0.84025506  0.44311318  1  -0.371923  -0.069513  3.346502  -0.086  -0.331672  -0.049651  3.672704  -0.065  -0.364033  -0.042253  3.692425  -0.058  -0.382012  -0.311239  -0.052932  3.660746  -0.067
N  N99  1  0.48069386  0.65975151  0.94311599  1  -0.37196  0.069506  3.346724  0.086  -0.331615  0.049646  3.672877  0.065  -0.363966  0.042251  3.692589  0.058  -0.382029  -0.311179  0.052939  3.660913  0.067
O  O100  1  0.85160008  0.56272659  0.60755060  1  -0.602236  0.098096  2.05916  0.128  -0.575153  0.066209  2.347686  0.094  -0.618798  0.052516  2.340921  0.079  -0.330827  -0.545549  0.073962  2.352236  0.101
O  O101  1  0.14843447  0.93728045  0.10753579  1  -0.602507  -0.098079  2.058875  -0.128  -0.575469  -0.066209  2.347423  -0.094  -0.619124  -0.052514  2.340671  -0.079  -0.331095  -0.545878  -0.073962  2.351974  -0.101
O  O102  1  0.35156511  0.43728498  0.89245466  1  -0.602584  0.098087  2.058873  0.128  -0.575506  0.066206  2.347425  0.094  -0.619149  0.052513  2.34066  0.079  -0.331097  -0.545904  0.073959  2.351968  0.101
O  O103  1  0.64843382  0.06271492  0.39245901  1  -0.602566  -0.098067  2.059038  -0.128  -0.575522  -0.066201  2.347593  -0.094  -0.619175  -0.052507  2.340853  -0.079  -0.331067  -0.545926  -0.073952  2.352137  -0.101
O  O104  1  0.14841733  0.43727644  0.39245342  1  -0.602312  0.098081  2.059086  0.128  -0.575276  0.066207  2.347674  0.094  -0.618921  0.052514  2.340914  0.079  -0.33093  -0.545679  0.073966  2.352222  0.101
O  O105  1  0.85154807  0.06271641  0.89246243  1  -0.602492  -0.098091  2.058782  -0.128  -0.575491  -0.066211  2.347428  -0.094  -0.619147  -0.052516  2.340684  -0.079  -0.331067  -0.545896  -0.073963  2.351975  -0.101
O  O106  1  0.64842681  0.56272245  0.10754137  1  -0.602432  0.098095  2.058806  0.128  -0.575435  0.066212  2.347401  0.094  -0.619076  0.052518  2.340634  0.079  -0.331038  -0.545836  0.073969  2.351949  0.101
O  O107  1  0.35156750  0.93727489  0.60753412  1  -0.602495  -0.098085  2.058835  -0.128  -0.575491  -0.066209  2.347465  -0.094  -0.619141  -0.052514  2.340726  -0.079  -0.331052  -0.545894  -0.073964  2.35202  -0.101
O  O108  1  0.10522297  0.60962837  0.69012488  1  -0.615149  0.000785  1.917494  0.002  -0.580087  0.000165  2.149235  0.001  -0.603752  -0.000692  2.139388  0.0  -0.323293  -0.563586  0.001004  2.155439  0.002
O  O109  1  0.89479812  0.89041032  0.19011218  1  -0.615397  -0.000781  1.917604  -0.002  -0.580349  -0.000163  2.149312  -0.001  -0.604013  0.000693  2.139467  0.0  -0.323355  -0.563842  -0.001002  2.155511  -0.002
O  O110  1  0.60520136  0.39038878  0.80988864  1  -0.615305  0.000783  1.917321  0.002  -0.580227  0.000164  2.149054  0.001  -0.603883  -0.000693  2.139194  0.0  -0.323333  -0.563736  0.001001  2.155283  0.002
O  O111  1  0.39479360  0.10958211  0.30987580  1  -0.615312  -0.000781  1.917277  -0.002  -0.580266  -0.000164  2.148996  -0.001  -0.603931  0.000693  2.139158  0.0  -0.323268  -0.563764  -0.001005  2.155201  -0.002
O  O112  1  0.89478639  0.39040199  0.30987623  1  -0.615333  0.000783  1.917677  0.002  -0.580264  0.000165  2.149395  0.001  -0.603928  -0.000692  2.13955  0.0  -0.323319  -0.563774  0.001008  2.155626  0.002
O  O113  1  0.10518308  0.10960505  0.80989765  1  -0.615215  -0.00078  1.917919  -0.002  -0.580136  -0.000163  2.149707  -0.001  -0.603798  0.000694  2.13987  0.0  -0.323331  -0.563652  -0.001004  2.155944  -0.002
O  O114  1  0.39479996  0.60961072  0.19011538  1  -0.615238  0.000783  1.917517  0.002  -0.580194  0.000164  2.149252  0.001  -0.603855  -0.000693  2.139408  0.0  -0.323307  -0.563704  0.001008  2.155484  0.002
O  O115  1  0.60520772  0.89040417  0.69011443  1  -0.615381  -0.000783  1.917416  -0.002  -0.580293  -0.000166  2.149193  -0.001  -0.603958  0.000693  2.139357  0.0  -0.32329  -0.56379  -0.001005  2.155398  -0.002
