# generated using pymatgen
data_CoH24C28(SN3)2
_symmetry_space_group_name_H-M   'P 1'
_cell_length_a   7.65378546
_cell_length_b   8.26698799
_cell_length_c   11.05358406
_cell_angle_alpha   108.29271448
_cell_angle_beta   97.39386740
_cell_angle_gamma   107.41639757
_symmetry_Int_Tables_number   1
_chemical_formula_structural   CoH24C28(SN3)2
_chemical_formula_sum   'Co1 H24 C28 S2 N6'
_cell_volume   614.18265953
_cell_formula_units_Z   1
loop_
 _symmetry_equiv_pos_site_id
 _symmetry_equiv_pos_as_xyz
  1  'x, y, z'
loop_
 _atom_site_type_symbol
 _atom_site_label
 _atom_site_symmetry_multiplicity
 _atom_site_fract_x
 _atom_site_fract_y
 _atom_site_fract_z
 _atom_site_occupancy
 _atom_site_hle17_ddec_charge
 _atom_site_hle17_ddec_spin_density
 _atom_site_hle17_ddec_sum_bond_order
 _atom_site_hle17_magmom
 _atom_site_hse06_10hf_ddec_charge
 _atom_site_hse06_10hf_ddec_spin_density
 _atom_site_hse06_10hf_ddec_sum_bond_order
 _atom_site_hse06_10hf_magmom
 _atom_site_hse06_ddec_charge
 _atom_site_hse06_ddec_spin_density
 _atom_site_hse06_ddec_sum_bond_order
 _atom_site_hse06_magmom
 _atom_site_pbe_cm5_charge
 _atom_site_pbe_ddec_charge
 _atom_site_pbe_ddec_spin_density
 _atom_site_pbe_ddec_sum_bond_order
 _atom_site_pbe_magmom
Co  Co0  1  0.99999864  0.99999995  0.00000167  1  0.646281  -1.117478  2.718282  -0.998  0.609818  -1.027877  3.175334  -0.949  0.674809  -1.031166  3.102822  -0.962  0.70163  0.574287  -1.016608  3.216861  -0.926
H  H1  1  0.18183194  0.32351922  0.24700663  1  0.072029  0.000282  1.023835  0.0  0.078003  0.000159  1.09355  0.0  0.07856  0.000127  1.094217  0.0  0.116651  0.077493  0.000185  1.093463  0.0
H  H2  1  0.81818011  0.67649282  0.75299219  1  0.072117  0.000279  1.02373  0.0  0.077965  0.00016  1.093567  0.0  0.078525  0.000127  1.09423  0.0  0.116653  0.077438  0.000185  1.093528  0.0
H  H3  1  0.87169636  0.68184672  0.25052708  1  0.083932  7.5e-05  1.002048  0.0  0.090079  0.0001  1.07551  0.0  0.092227  6.1e-05  1.073722  0.0  0.095422  0.08839  0.000146  1.077006  0.0
H  H4  1  0.12830597  0.31815710  0.74947060  1  0.083872  7.4e-05  1.002071  0.0  0.090033  0.0001  1.075533  0.0  0.092185  6.1e-05  1.073727  0.0  0.095413  0.088332  0.000146  1.077037  0.0
H  H5  1  0.69282731  0.47019939  0.02249711  1  0.104851  0.000298  0.965381  0.0  0.108509  5.4e-05  1.033696  0.0  0.110793  5.3e-05  1.034152  0.0  0.101006  0.106919  4.6e-05  1.033436  0.0
H  H6  1  0.30716648  0.52979604  0.97750493  1  0.104876  0.000296  0.965309  0.0  0.108521  5.4e-05  1.033657  0.0  0.110806  5.4e-05  1.034111  0.0  0.101012  0.10693  4.7e-05  1.033398  0.0
H  H7  1  0.76062045  0.19196589  0.91899964  1  0.077917  0.000142  1.014389  0.0  0.078181  2.3e-05  1.090236  0.0  0.079502  3.8e-05  1.089808  0.0  0.110403  0.077184  -7e-06  1.090808  0.0
H  H8  1  0.23937278  0.80802812  0.08100381  1  0.077926  0.000138  1.014394  0.0  0.078202  2.3e-05  1.09024  0.0  0.07952  3.8e-05  1.089809  0.0  0.11044  0.077205  -7e-06  1.090809  0.0
H  H9  1  0.17610045  0.84403016  0.58569131  1  0.110016  4.2e-05  0.98806  0.0  0.126601  2.5e-05  1.056749  0.0  0.127857  1.8e-05  1.05737  0.0  0.085889  0.125516  2.6e-05  1.056589  0.0
H  H10  1  0.82389868  0.15596533  0.41430855  1  0.110028  5.3e-05  0.987981  0.0  0.126598  2.5e-05  1.056691  0.0  0.127855  1.9e-05  1.057311  0.0  0.085884  0.125513  2.6e-05  1.056531  0.0
H  H11  1  0.95652688  0.65477639  0.51577417  1  0.106613  0.000142  0.962413  0.0  0.127141  2.9e-05  1.027707  0.0  0.127542  3.4e-05  1.029659  0.0  0.088376  0.126732  4e-05  1.026625  0.0
H  H12  1  0.04347366  0.34521920  0.48422222  1  0.106634  0.000146  0.962487  0.0  0.127162  2.9e-05  1.027779  0.0  0.12756  3.4e-05  1.029734  0.0  0.088405  0.126752  4e-05  1.026697  0.0
H  H13  1  0.01401416  0.82273777  0.44673961  1  0.102994  9.9e-05  0.959684  0.0  0.127054  6e-06  1.02075  0.0  0.127696  1.6e-05  1.020854  0.0  0.091014  0.12659  1.7e-05  1.020541  0.0
H  H14  1  0.98598651  0.17726181  0.55326139  1  0.10299  0.000101  0.959661  0.0  0.127047  6e-06  1.020735  0.0  0.127687  1.6e-05  1.020839  0.0  0.091005  0.126583  1.7e-05  1.020525  0.0
H  H15  1  0.40431823  0.58027132  0.36014070  1  0.098069  0.000275  0.973993  0.0  0.108841  0.000107  1.040363  0.0  0.111471  8.3e-05  1.039568  0.0  0.094955  0.107069  0.000133  1.040781  0.0
H  H16  1  0.59568328  0.41973385  0.63985813  1  0.098078  0.000276  0.973997  0.0  0.10884  0.000107  1.040377  0.0  0.111463  8.2e-05  1.0396  0.0  0.094933  0.107069  0.000133  1.040794  0.0
H  H17  1  0.28751689  0.66485183  0.68512914  1  0.102609  -0.000144  0.971892  0.0  0.114596  -0.000209  1.029132  0.0  0.116499  -0.000151  1.030911  0.0  0.102637  0.113331  -0.000285  1.028034  0.0
H  H18  1  0.71248148  0.33514509  0.31486918  1  0.102643  -0.000144  0.971882  0.0  0.11462  -0.000209  1.029123  0.0  0.116524  -0.000151  1.0309  0.0  0.102641  0.113348  -0.000285  1.028049  0.0
H  H19  1  0.71062258  0.85177543  0.48699130  1  0.097427  -3.4e-05  0.986644  0.0  0.104198  -0.000147  1.055537  0.0  0.107418  -0.000101  1.054638  0.0  0.09466  0.102467  -0.000214  1.055433  0.0
H  H20  1  0.28938439  0.14823379  0.51300996  1  0.097462  -3.2e-05  0.986641  0.0  0.104241  -0.000147  1.055517  0.0  0.107462  -0.000101  1.054618  0.0  0.094688  0.102509  -0.000214  1.055415  0.0
H  H21  1  0.53651172  0.82465160  0.89416130  1  0.079697  -0.000268  0.947196  -0.001  0.087829  -0.000333  1.011429  -0.001  0.089005  -0.000207  1.011293  0.0  0.113384  0.08724  -0.000485  1.011291  -0.001
H  H22  1  0.46348402  0.17534533  0.10583677  1  0.079765  -0.000271  0.947277  -0.001  0.087848  -0.000333  1.011545  -0.001  0.089024  -0.000207  1.011409  0.0  0.113399  0.08726  -0.000485  1.011406  -0.001
H  H23  1  0.94401008  0.00574522  0.70680089  1  0.072773  -0.000227  0.961847  -0.001  0.082244  -0.000321  1.026424  -0.001  0.08328  -0.000196  1.026059  0.0  0.111505  0.081479  -0.000463  1.026865  -0.001
H  H24  1  0.05598760  0.99425922  0.29320355  1  0.072717  -0.000226  0.961903  -0.001  0.082208  -0.000321  1.026462  -0.001  0.083243  -0.000196  1.026098  0.0  0.111483  0.081443  -0.000463  1.026904  -0.001
C  C25  1  0.07674850  0.36151512  0.19933111  1  0.076672  0.008737  3.636185  0.006  0.037407  0.003685  3.889937  0.002  0.046976  0.002869  3.906498  0.002  0.048695  0.030594  0.004548  3.879657  0.003
C  C26  1  0.92325671  0.63849282  0.80066695  1  0.076634  0.008749  3.636128  0.006  0.037437  0.003685  3.889918  0.002  0.047005  0.002869  3.906478  0.002  0.048708  0.030617  0.004547  3.879633  0.003
C  C27  1  0.05006966  0.52362297  0.26705987  1  -0.008388  -0.00133  3.764557  -0.002  0.01333  1.7e-05  3.992503  0.0  0.007982  -0.000165  4.015676  0.0  -0.005883  0.016718  0.000142  3.977202  0.0
C  C28  1  0.94993262  0.47638079  0.73293960  1  -0.008442  -0.001335  3.764619  -0.002  0.013353  1.6e-05  3.992469  0.0  0.008004  -0.000165  4.015643  0.0  -0.005903  0.016742  0.000142  3.977165  0.0
C  C29  1  0.90634092  0.56250117  0.20320823  1  -0.050548  0.00755  3.696849  0.005  -0.07603  0.002911  3.941155  0.002  -0.072141  0.002039  3.958808  0.001  -0.069484  -0.078668  0.00395  3.929538  0.002
C  C30  1  0.09365820  0.43750121  0.79679151  1  -0.050485  0.007551  3.696853  0.005  -0.076009  0.00291  3.941137  0.002  -0.072117  0.002037  3.958792  0.001  -0.069469  -0.078638  0.003949  3.929531  0.002
C  C31  1  0.80380394  0.44394325  0.07652461  1  -0.107672  -0.001414  3.749673  -0.002  -0.117702  4.9e-05  4.001101  0.0  -0.125735  -0.000154  4.023783  0.0  -0.082756  -0.11221  0.000177  3.985645  0.0
C  C32  1  0.19619407  0.55605632  0.92347705  1  -0.10767  -0.001418  3.749525  -0.002  -0.117679  4.9e-05  4.000966  0.0  -0.125714  -0.000155  4.023648  0.0  -0.082751  -0.112188  0.000177  3.985508  0.0
C  C33  1  0.84080836  0.28693598  0.01705795  1  0.109083  0.008468  3.658863  0.006  0.077395  0.003285  3.914215  0.002  0.086076  0.002571  3.93299  0.002  0.043196  0.070674  0.003926  3.903194  0.002
C  C34  1  0.15918886  0.71306496  0.98294396  1  0.109131  0.0085  3.658897  0.006  0.077402  0.003284  3.914281  0.002  0.086086  0.002571  3.933058  0.002  0.043194  0.070681  0.003925  3.903255  0.002
C  C35  1  0.16496919  0.63915453  0.40255432  1  0.11548  0.004451  3.72875  0.003  0.136348  0.000593  3.966916  0.0  0.138339  0.000857  3.991227  0.001  -0.00447  0.134995  0.000768  3.950551  0.001
C  C36  1  0.83503469  0.36084649  0.59744463  1  0.115515  0.004479  3.728736  0.003  0.136346  0.000591  3.966917  0.0  0.138339  0.000857  3.991226  0.001  -0.004449  0.134993  0.000769  3.950549  0.001
C  C37  1  0.07470436  0.74579682  0.49348625  1  -0.336755  4e-05  3.72195  0.0  -0.416904  3.6e-05  3.953885  0.0  -0.419382  2.6e-05  3.964351  0.0  -0.243312  -0.414924  6.3e-05  3.946895  0.0
C  C38  1  0.92529770  0.25420284  0.50651219  1  -0.336784  2.4e-05  3.721919  0.0  -0.416909  3.6e-05  3.953853  0.0  -0.419386  2.5e-05  3.964321  0.0  -0.243325  -0.414928  6.3e-05  3.946862  0.0
C  C39  1  0.34468505  0.64699075  0.43725471  1  -0.184321  -0.002013  3.676646  -0.003  -0.211763  -0.000198  3.922821  0.0  -0.218091  -0.000347  3.943351  -0.001  -0.094982  -0.207703  -0.000163  3.90898  0.0
C  C40  1  0.65531802  0.35301162  0.56274540  1  -0.184396  -0.002023  3.676662  -0.003  -0.211826  -0.000197  3.922847  0.0  -0.21816  -0.000346  3.943384  -0.001  -0.094975  -0.207761  -0.000163  3.908991  0.0
C  C41  1  0.47747400  0.74505798  0.56653140  1  0.153078  0.006698  3.791436  0.005  0.16997  0.001358  4.017253  0.001  0.176546  0.001562  4.038417  0.001  0.00806  0.165597  0.001511  4.003004  0.001
C  C42  1  0.52252672  0.25494166  0.43346782  1  0.153164  0.006701  3.791395  0.005  0.170072  0.001357  4.01718  0.001  0.176646  0.001561  4.038344  0.001  0.008071  0.165701  0.001512  4.002929  0.001
C  C43  1  0.43031626  0.74103516  0.68451003  1  -0.164522  -0.003642  3.703324  -0.005  -0.178753  -0.001173  3.943689  -0.002  -0.186535  -0.001123  3.964562  -0.002  -0.083228  -0.173672  -0.001467  3.929671  -0.002
C  C44  1  0.56968972  0.25896445  0.31548969  1  -0.16455  -0.003652  3.703073  -0.005  -0.178759  -0.001173  3.943384  -0.002  -0.186541  -0.001123  3.964255  -0.002  -0.083217  -0.173682  -0.001468  3.929363  -0.002
C  C45  1  0.66695588  0.84352611  0.57568951  1  -0.161951  -0.003519  3.690592  -0.005  -0.174726  -0.001086  3.928663  -0.002  -0.182881  -0.001051  3.949817  -0.001  -0.0855  -0.169725  -0.001337  3.914436  -0.002
C  C46  1  0.33304641  0.15647766  0.42430997  1  -0.16203  -0.003525  3.690668  -0.005  -0.174826  -0.001086  3.928737  -0.002  -0.182983  -0.001053  3.949896  -0.001  -0.085523  -0.169826  -0.001337  3.914512  -0.002
C  C47  1  0.56944051  0.82966901  0.80199565  1  0.121818  0.006444  3.708312  0.004  0.091294  0.00106  3.971444  0.0  0.09854  0.001568  3.988291  0.001  0.04471  0.086207  0.000727  3.960088  0.0
C  C48  1  0.43055479  0.17032664  0.19799935  1  0.121733  0.006479  3.708192  0.004  0.091262  0.00106  3.971303  0.0  0.098509  0.001568  3.988152  0.001  0.044718  0.086174  0.000728  3.959951  0.0
C  C49  1  0.79586056  0.93050761  0.69728899  1  0.112503  0.006308  3.717256  0.004  0.085363  0.001039  3.974214  0.0  0.092181  0.001564  3.9923  0.001  0.03999  0.080695  0.00074  3.962201  0.0
C  C50  1  0.20413640  0.06949610  0.30271267  1  0.112635  0.006301  3.717219  0.004  0.085487  0.001039  3.974186  0.0  0.092304  0.001565  3.992274  0.001  0.04002  0.080817  0.000741  3.962175  0.0
C  C51  1  0.71185016  0.85824286  0.14218657  1  0.266964  0.023287  4.030671  0.017  0.261161  0.010307  4.333439  0.007  0.286842  0.008775  4.34187  0.006  0.137286  0.244564  0.010781  4.326705  0.007
C  C52  1  0.28814958  0.14174721  0.85781020  1  0.266787  0.023293  4.030928  0.017  0.260999  0.010306  4.333667  0.007  0.286678  0.008776  4.342104  0.006  0.137181  0.244401  0.010779  4.326932  0.007
S  S53  1  0.56775620  0.79209232  0.22734904  1  -0.3731  0.008627  2.060814  0.003  -0.357686  0.005067  2.362785  0.002  -0.368899  0.004195  2.35606  0.002  -0.166757  -0.349863  0.005548  2.366543  0.002
S  S54  1  0.43224066  0.20789363  0.77264736  1  -0.373005  0.008628  2.060827  0.003  -0.357594  0.005067  2.362801  0.002  -0.368807  0.004193  2.356081  0.002  -0.166719  -0.34977  0.005547  2.366557  0.002
N  N55  1  0.97408480  0.24322137  0.07857691  1  -0.206992  0.01567  3.330915  0.011  -0.154718  0.008492  3.608051  0.006  -0.183547  0.008231  3.629537  0.006  -0.309349  -0.136328  0.007464  3.593407  0.005
N  N56  1  0.02591589  0.75677824  0.92142320  1  -0.207068  0.015667  3.331022  0.011  -0.154769  0.008493  3.608139  0.006  -0.1836  0.008232  3.629625  0.006  -0.309386  -0.136372  0.007465  3.593486  0.005
N  N57  1  0.75075770  0.92223533  0.80968060  1  -0.302253  -0.030114  3.224654  -0.051  -0.253732  -0.025479  3.494709  -0.042  -0.272467  -0.020031  3.508717  -0.034  -0.311149  -0.24077  -0.031839  3.484801  -0.051
N  N58  1  0.24923689  0.07776563  0.19032107  1  -0.302301  -0.03012  3.224635  -0.051  -0.253834  -0.02548  3.494757  -0.042  -0.272562  -0.020032  3.508745  -0.034  -0.311207  -0.240873  -0.03184  3.484853  -0.051
N  N59  1  0.82028922  0.90548158  0.08143044  1  -0.491194  0.003783  3.238011  -0.002  -0.468453  0.004484  3.556036  0.002  -0.493066  0.004424  3.55472  0.002  -0.421801  -0.453735  0.003624  3.555413  0.002
N  N60  1  0.17970835  0.09451670  0.91856815  1  -0.491086  0.003778  3.238154  -0.002  -0.468335  0.004485  3.55615  0.002  -0.49295  0.004424  3.554842  0.002  -0.421718  -0.453615  0.003625  3.555526  0.002
