# generated using pymatgen
data_Cu2H16C15(SI)2
_symmetry_space_group_name_H-M   'P 1'
_cell_length_a   12.10699762
_cell_length_b   12.22310223
_cell_length_c   14.82580000
_cell_angle_alpha   97.96886360
_cell_angle_beta   111.22410366
_cell_angle_gamma   113.97972076
_symmetry_Int_Tables_number   1
_chemical_formula_structural   Cu2H16C15(SI)2
_chemical_formula_sum   'Cu8 H64 C60 S8 I8'
_cell_volume   1760.34350797
_cell_formula_units_Z   4
loop_
 _symmetry_equiv_pos_site_id
 _symmetry_equiv_pos_as_xyz
  1  'x, y, z'
loop_
 _atom_site_type_symbol
 _atom_site_label
 _atom_site_symmetry_multiplicity
 _atom_site_fract_x
 _atom_site_fract_y
 _atom_site_fract_z
 _atom_site_occupancy
 _atom_site_pbe_bader_charge
 _atom_site_pbe_bader_spin_density
 _atom_site_pbe_cm5_charge
 _atom_site_pbe_ddec_charge
 _atom_site_pbe_ddec_spin_density
 _atom_site_pbe_ddec_sum_bond_order
 _atom_site_pbe_magmom
Cu  Cu0  1  0.24495711  0.86839383  0.27066312  1  0.31973  0  0.181551  0.061923  0  2.872323  0
Cu  Cu1  1  0.09614156  0.97085890  0.22754929  1  0.317009  0  0.182437  0.062964  0  2.87623  0
Cu  Cu2  1  0.75503483  0.13160461  0.72933668  1  0.319628  0  0.181566  0.06195  0  2.872341  0
Cu  Cu3  1  0.90385683  0.02914334  0.77245285  1  0.317152  0  0.182438  0.062999  0  2.876215  0
Cu  Cu4  1  0.27438200  0.00537984  0.15401969  1  0.320843  0  0.186746  0.064025  0  2.836374  0
Cu  Cu5  1  0.35161289  0.11911311  0.34508626  1  0.317842  0  0.186866  0.063902  0  2.846778  0
Cu  Cu6  1  0.72561893  0.99462050  0.84598298  1  0.32072  0  0.186736  0.064021  0  2.836299  0
Cu  Cu7  1  0.64838412  0.88088153  0.65491393  1  0.317772  0  0.186889  0.063923  0  2.846712  0
H  H8  1  0.35303687  0.80241569  0.48111338  1  0.110325  0  0.086782  0.118238  0  1.054848  0
H  H9  1  0.81813978  0.87093167  0.01755593  1  0.1165  0  0.087507  0.119413  0  1.051217  0
H  H10  1  0.64696266  0.19758370  0.51888540  1  0.110307  0  0.086796  0.118252  0  1.054818  0
H  H11  1  0.18186151  0.12907437  0.98244885  1  0.116145  0  0.087499  0.119426  0  1.05122  0
H  H12  1  0.48299719  0.88375204  0.44676287  1  0.121562  0  0.086708  0.123568  0  1.040146  0
H  H13  1  0.93897513  0.03466481  0.05545057  1  0.12894  0  0.086997  0.124227  0  1.041047  0
H  H14  1  0.51700374  0.11624829  0.55323711  1  0.121561  0  0.086708  0.123558  0  1.040164  0
H  H15  1  0.06102490  0.96534218  0.94455057  1  0.128975  0  0.087003  0.124237  0  1.041001  0
H  H16  1  0.13696551  0.68010984  0.41971566  1  0.087532  0  0.091937  0.098365  0  1.036661  0
H  H17  1  0.75658858  0.71640761  0.07807047  1  0.08105  0  0.091686  0.098406  0  1.036908  0
H  H18  1  0.86303745  0.31988764  0.58028796  1  0.087579  0  0.091907  0.098299  0  1.036688  0
H  H19  1  0.24342093  0.28360223  0.92193516  1  0.080901  0  0.091697  0.098428  0  1.036897  0
H  H20  1  0.94891679  0.48681861  0.41069012  1  0.053607  0  0.097586  0.098305  0  1.031972  0
H  H21  1  0.57409955  0.53715909  0.08830916  1  0.032482  0  0.09701  0.09722  0  1.033532  0
H  H22  1  0.05108947  0.51317508  0.58931337  1  0.053646  0  0.097577  0.098321  0  1.032037  0
H  H23  1  0.42590706  0.46284695  0.91169314  1  0.032454  0  0.096997  0.097192  0  1.033516  0
H  H24  1  0.74093808  0.18789428  0.20011131  1  0.04419  0  0.083684  0.124108  0  1.040223  0
H  H25  1  0.49008886  0.54367003  0.29932507  1  0.042494  0  0.083822  0.123798  0  1.039758  0
H  H26  1  0.25906285  0.81210605  0.79989069  1  0.044173  0  0.083727  0.124209  0  1.04016  0
H  H27  1  0.50992079  0.45633506  0.70067938  1  0.042543  0  0.083793  0.12378  0  1.039775  0
H  H28  1  0.77352973  0.26860711  0.32408836  1  0.022124  0  0.07969  0.123095  0  1.028151  0
H  H29  1  0.44496791  0.44971006  0.17555556  1  0.029313  0  0.079907  0.122236  0  1.028345  0
H  H30  1  0.22647537  0.73139608  0.67591250  1  0.022014  0  0.079726  0.123148  0  1.028101  0
H  H31  1  0.55504224  0.55029598  0.82444847  1  0.029304  0  0.07989  0.122219  0  1.028365  0
H  H32  1  0.85910702  0.18368546  0.31047465  1  0.034268  0  0.081726  0.11629  0  1.041151  0
H  H33  1  0.37050981  0.54590561  0.18862554  1  0.029072  0  0.081567  0.115914  0  1.04245  0
H  H34  1  0.14089011  0.81631107  0.68952647  1  0.03429  0  0.081757  0.116365  0  1.041098  0
H  H35  1  0.62949845  0.45409853  0.81137973  1  0.028966  0  0.081537  0.115848  0  1.042441  0
H  H36  1  0.94347032  0.26589723  0.15498698  1  0.06506  0  0.086219  0.090637  0  1.045537  0
H  H37  1  0.61277976  0.79047453  0.34451984  1  0.072368  0  0.086835  0.091801  0  1.041871  0
H  H38  1  0.05653566  0.73410596  0.84501077  1  0.064877  0  0.086212  0.090641  0  1.045565  0
H  H39  1  0.38721964  0.20952961  0.65548146  1  0.072456  0  0.086858  0.091834  0  1.041825  0
H  H40  1  0.13907047  0.45636642  0.16846121  1  0.073423  0  0.092875  0.099576  0  1.02385  0
H  H41  1  0.78810818  0.97222287  0.33019378  1  0.04869  0  0.092957  0.099394  0  1.023054  0
H  H42  1  0.86092842  0.54363676  0.83153714  1  0.073471  0  0.092874  0.099506  0  1.023922  0
H  H43  1  0.21189184  0.02778412  0.66980938  1  0.048782  0  0.093008  0.099485  0  1.023056  0
H  H44  1  0.41606431  0.69133432  0.65653814  1  0.061736  0  0.080821  0.083618  0  1.083425  0
H  H45  1  0.53047707  0.75736189  0.84206342  1  0.081857  0  0.081918  0.085882  0  1.078024  0
H  H46  1  0.58393182  0.30866031  0.34345572  1  0.061647  0  0.080788  0.083649  0  1.083452  0
H  H47  1  0.46952234  0.24263559  0.15793848  1  0.081806  0  0.08193  0.085892  0  1.077925  0
H  H48  1  0.25094621  0.50065887  0.67242322  1  0.060141  0  0.097943  0.097635  0  1.031314  0
H  H49  1  0.32389772  0.57464119  0.82686470  1  0.064083  0  0.097757  0.096856  0  1.030715  0
H  H50  1  0.74905195  0.49933292  0.32757226  1  0.060102  0  0.097962  0.097664  0  1.031295  0
H  H51  1  0.67609815  0.42535630  0.17313211  1  0.064028  0  0.097773  0.096847  0  1.030745  0
H  H52  1  0.09145554  0.16888044  0.50262785  1  0.046866  0  0.082346  0.125131  0  1.02012  0
H  H53  1  0.16355700  0.58571264  0.99650802  1  0.043266  0  0.082302  0.125097  0  1.020423  0
H  H54  1  0.90853780  0.83111229  0.49736632  1  0.046633  0  0.082328  0.125158  0  1.02023  0
H  H55  1  0.83643885  0.41429150  0.00349156  1  0.043235  0  0.082326  0.125138  0  1.020403  0
H  H56  1  0.12035437  0.26525564  0.61939148  1  0.05571  0  0.085401  0.12832  0  1.02416  0
H  H57  1  0.14167518  0.49629606  0.87978263  1  0.046495  0  0.085471  0.128727  0  1.024597  0
H  H58  1  0.87964188  0.73474089  0.38060263  1  0.055599  0  0.085373  0.128277  0  1.024144  0
H  H59  1  0.85831866  0.50370427  0.12021795  1  0.046514  0  0.085504  0.128744  0  1.02453  0
H  H60  1  0.99638843  0.24782248  0.50046838  1  0.011873  0  0.083718  0.126387  0  1.010303  0
H  H61  1  0.24842507  0.49649947  0.99875109  1  0.03001  0  0.083949  0.127837  0  1.009329  0
H  H62  1  0.00360694  0.75217405  0.49952547  1  0.011938  0  0.083728  0.12644  0  1.010344  0
H  H63  1  0.75157078  0.50350467  0.00124917  1  0.029802  0  0.083975  0.127843  0  1.009321  0
H  H64  1  0.18313302  0.26728116  0.39139145  1  0.064682  0  0.085565  0.089471  0  1.05036  0
H  H65  1  0.37580340  0.79211510  0.10783432  1  0.06293  0  0.085173  0.089608  0  1.050507  0
H  H66  1  0.81686943  0.73271537  0.60860517  1  0.06476  0  0.08558  0.089474  0  1.050376  0
H  H67  1  0.62418905  0.20788429  0.89216304  1  0.062986  0  0.085193  0.089667  0  1.050457  0
H  H68  1  0.34899046  0.45541687  0.37629801  1  0.087538  0  0.090486  0.098587  0  1.040323  0
H  H69  1  0.57895874  0.97442613  0.12239622  1  0.07746  0  0.090003  0.097071  0  1.043121  0
H  H70  1  0.65100478  0.54457776  0.62369626  1  0.087238  0  0.090515  0.09861  0  1.040419  0
H  H71  1  0.42103713  0.02557136  0.87760328  1  0.077452  0  0.090026  0.097102  0  1.043223  0
C  C72  1  0.40768530  0.78933963  0.43935931  1  -0.235156  0  -0.15696  -0.244096  0  3.862744  0
C  C73  1  0.84903176  0.96765666  0.06041923  1  -0.243747  0  -0.157595  -0.245304  0  3.861061  0
C  C74  1  0.59231423  0.21065976  0.56063947  1  -0.235161  0  -0.156973  -0.244077  0  3.862742  0
C  C75  1  0.15097143  0.03235129  0.93958363  1  -0.243438  0  -0.157564  -0.245346  0  3.861133  0
C  C76  1  0.15259423  0.58006665  0.29632817  1  -0.151085  0  -0.021053  0.041628  0  4.011204  0
C  C77  1  0.78156304  0.85659810  0.20170232  1  -0.13749  0  -0.021071  0.042153  0  4.007999  0
C  C78  1  0.84740605  0.41993748  0.70367408  1  -0.151027  0  -0.021021  0.041667  0  4.011155  0
C  C79  1  0.21844053  0.14340889  0.79830122  1  -0.137025  0  -0.021068  0.042308  0  4.008006  0
C  C80  1  0.09707109  0.58899187  0.36312185  1  -0.089507  0  -0.095642  -0.117359  0  4.004507  0
C  C81  1  0.72296368  0.73358698  0.13489273  1  -0.081137  0  -0.095801  -0.118801  0  4.005483  0
C  C82  1  0.90293376  0.41100752  0.63687783  1  -0.089689  0  -0.095613  -0.117227  0  4.004447  0
C  C83  1  0.27704305  0.26642096  0.86511253  1  -0.080689  0  -0.095782  -0.118825  0  4.005244  0
C  C84  1  0.99019702  0.48002917  0.35712900  1  -0.016222  0  -0.09295  -0.13771  0  3.954634  0
C  C85  1  0.62097878  0.63271306  0.14152380  1  -0.014294  0  -0.09245  -0.135829  0  3.954571  0
C  C86  1  0.00980620  0.51996546  0.64287302  1  -0.016562  0  -0.092997  -0.137868  0  3.954875  0
C  C87  1  0.37902859  0.36729108  0.85847919  1  -0.014407  0  -0.092422  -0.135799  0  3.954524  0
C  C88  1  0.93379410  0.36187987  0.28335084  1  0.038606  0  -0.005677  0.17875  0  3.949162  0
C  C89  1  0.57805098  0.65078590  0.21572658  1  0.071026  0  -0.006455  0.177225  0  3.94906  0
C  C90  1  0.06621341  0.63811951  0.71665029  1  0.038994  0  -0.005655  0.178813  0  3.949019  0
C  C91  1  0.42195424  0.34921919  0.78427724  1  0.070606  0  -0.006459  0.177228  0  3.949175  0
C  C92  1  0.82070327  0.24488163  0.27943341  1  -0.044583  0  -0.24992  -0.426646  0  3.977851  0
C  C93  1  0.46544908  0.54145536  0.21996089  1  -0.053092  0  -0.249497  -0.425339  0  3.979384  0
C  C94  1  0.17929753  0.75511680  0.72056766  1  -0.044494  0  -0.249986  -0.426854  0  3.97793  0
C  C95  1  0.53455918  0.45854878  0.78004304  1  -0.052794  0  -0.249429  -0.425233  0  3.979373  0
C  C96  1  0.98721027  0.35609322  0.21435719  1  -0.061294  0  -0.092351  -0.122361  0  3.941957  0
C  C97  1  0.64207975  0.77405176  0.28466545  1  -0.08474  0  -0.092631  -0.123691  0  3.9462  0
C  C98  1  0.01279053  0.64390522  0.78564388  1  -0.061024  0  -0.092386  -0.122383  0  3.942068  0
C  C99  1  0.35792408  0.22595238  0.71533716  1  -0.084747  0  -0.092639  -0.123696  0  3.946159  0
C  C100  1  0.09656976  0.46349424  0.22112620  1  -0.056623  0  -0.094912  -0.123093  0  4.008296  0
C  C101  1  0.74191215  0.87653868  0.27744009  1  -0.033838  0  -0.094481  -0.121953  0  4.007308  0
C  C102  1  0.90343078  0.53650705  0.77887107  1  -0.056703  0  -0.094912  -0.123043  0  4.008695  0
C  C103  1  0.25808775  0.12346641  0.72256283  1  -0.034575  0  -0.094593  -0.122225  0  4.007694  0
C  C104  1  0.39030210  0.58584286  0.51421026  1  -0.130818  0  -0.023857  0.040126  0  3.992926  0
C  C105  1  0.56883102  0.87620316  0.98411007  1  -0.19404  0  -0.024712  0.038253  0  3.995388  0
C  C106  1  0.60969504  0.41415368  0.48578613  1  -0.130749  0  -0.023846  0.040164  0  3.992878  0
C  C107  1  0.43116636  0.12379718  0.01589088  1  -0.19412  0  -0.024723  0.03827  0  3.995355  0
C  C108  1  0.36387996  0.59814330  0.59833167  1  -0.051481  0  -0.099608  -0.121911  0  4.012016  0
C  C109  1  0.49612640  0.76404202  0.90019607  1  -0.040913  0  -0.098424  -0.120278  0  4.0073  0
C  C110  1  0.63612009  0.40185038  0.40166459  1  -0.051661  0  -0.099614  -0.122058  0  4.01209  0
C  C111  1  0.50387023  0.23595357  0.09980277  1  -0.040719  0  -0.098382  -0.120233  0  4.007067  0
C  C112  1  0.27103600  0.49107495  0.60661104  1  -0.052379  0  -0.093758  -0.13437  0  3.954666  0
C  C113  1  0.38099740  0.66207882  0.89232839  1  -0.036534  0  -0.093512  -0.135665  0  3.954991  0
C  C114  1  0.72896355  0.50891778  0.39338631  1  -0.052611  0  -0.093727  -0.134264  0  3.954711  0
C  C115  1  0.61900099  0.33792342  0.10767240  1  -0.036659  0  -0.093569  -0.135699  0  3.95478  0
C  C116  1  0.20270081  0.37076516  0.53210716  1  -0.043817  0  -0.003566  0.180809  0  3.9482  0
C  C117  1  0.33638241  0.66908782  0.96691475  1  -0.061436  0  -0.003036  0.183548  0  3.945641  0
C  C118  1  0.79729735  0.62922662  0.46789034  1  -0.043373  0  -0.003579  0.180759  0  3.948338  0
C  C119  1  0.66361181  0.33091157  0.03308111  1  -0.06133  0  -0.002984  0.183615  0  3.945657  0
C  C120  1  0.09809056  0.25728948  0.53942750  1  -0.044109  0  -0.245846  -0.417453  0  3.965341  0
C  C121  1  0.21582245  0.55640296  0.95973897  1  -0.053872  0  -0.247547  -0.420617  0  3.965256  0
C  C122  1  0.90190733  0.74270515  0.46056755  1  -0.043847  0  -0.245852  -0.417521  0  3.965492  0
C  C123  1  0.78417150  0.44359928  0.04026051  1  -0.05371  0  -0.247676  -0.420723  0  3.965293  0
C  C124  1  0.23300121  0.36005301  0.44969761  1  -0.018393  0  -0.094899  -0.131981  0  3.954465  0
C  C125  1  0.40906590  0.78321174  0.04923851  1  0.044332  0  -0.093729  -0.130954  0  3.951734  0
C  C126  1  0.76699719  0.63994258  0.55029703  1  -0.018505  0  -0.094906  -0.131999  0  3.954535  0
C  C127  1  0.59092755  0.21678954  0.95075801  1  0.04443  0  -0.093802  -0.131141  0  3.951741  0
C  C128  1  0.32642474  0.46604253  0.44074253  1  -0.03478  0  -0.09293  -0.111306  0  4.004754  0
C  C129  1  0.52387265  0.88638303  0.05785926  1  -0.05845  0  -0.093564  -0.112384  0  4.008339  0
C  C130  1  0.67357227  0.53395210  0.55925361  1  -0.034366  0  -0.092922  -0.11128  0  4.004734  0
C  C131  1  0.47611968  0.11361445  0.94213852  1  -0.058559  0  -0.093537  -0.112306  0  4.008211  0
S  S132  1  0.29414443  0.71277289  0.30250677  1  0.05485  0  -0.013417  0.101757  0  3.235089  0
S  S133  1  0.90925727  0.99167679  0.19667143  1  0.049246  0  -0.012709  0.103046  0  3.235266  0
S  S134  1  0.70585395  0.28722935  0.69749200  1  0.054917  0  -0.013416  0.101727  0  3.235084  0
S  S135  1  0.09074680  0.00833115  0.80333236  1  0.049296  0  -0.012739  0.102997  0  3.235206  0
S  S136  1  0.50912840  0.71977049  0.50076512  1  0.046848  0  -0.012014  0.09846  0  3.22354  0
S  S137  1  0.71819977  0.00840434  0.99886584  1  0.056654  0  -0.011542  0.097883  0  3.227396  0
S  S138  1  0.49086873  0.28022605  0.49923195  1  0.046687  0  -0.012015  0.09845  0  3.223594  0
S  S139  1  0.28179723  0.99159695  0.00113443  1  0.056574  0  -0.011547  0.097871  0  3.227444  0
I  I140  1  0.50082085  0.02909772  0.29690898  1  -0.375039  0  -0.125705  -0.203902  0  2.038652  0
I  I141  1  0.23431089  0.20218603  0.20422870  1  -0.375456  0  -0.126544  -0.207388  0  2.029529  0
I  I142  1  0.49917679  0.97089977  0.70308969  1  -0.37503  0  -0.125701  -0.203895  0  2.038638  0
I  I143  1  0.76569092  0.79781431  0.79577019  1  -0.375394  0  -0.126543  -0.20739  0  2.029544  0
I  I144  1  0.04238915  0.77511442  0.07982829  1  -0.376139  0  -0.146934  -0.213714  0  1.958585  0
I  I145  1  0.19318986  0.96128639  0.41675968  1  -0.374007  0  -0.148647  -0.217147  0  1.946203  0
I  I146  1  0.95760646  0.22488592  0.92017146  1  -0.37615  0  -0.146946  -0.213749  0  1.958668  0
I  I147  1  0.80680993  0.03871014  0.58324290  1  -0.373999  0  -0.148678  -0.217195  0  1.946228  0
