# generated using pymatgen
data_Cu3H8W2(C6N5)4
_symmetry_space_group_name_H-M   'P 1'
_cell_length_a   11.50489897
_cell_length_b   14.59915921
_cell_length_c   15.14366586
_cell_angle_alpha   118.82273641
_cell_angle_beta   106.07256974
_cell_angle_gamma   90.00125724
_symmetry_Int_Tables_number   1
_chemical_formula_structural   Cu3H8W2(C6N5)4
_chemical_formula_sum   'Cu6 H16 W4 C48 N40'
_cell_volume   2114.25215780
_cell_formula_units_Z   2
loop_
 _symmetry_equiv_pos_site_id
 _symmetry_equiv_pos_as_xyz
  1  'x, y, z'
loop_
 _atom_site_type_symbol
 _atom_site_label
 _atom_site_symmetry_multiplicity
 _atom_site_fract_x
 _atom_site_fract_y
 _atom_site_fract_z
 _atom_site_occupancy
 _atom_site_pbe_bader_charge
 _atom_site_pbe_bader_spin_density
 _atom_site_pbe_cm5_charge
 _atom_site_pbe_ddec_charge
 _atom_site_pbe_ddec_spin_density
 _atom_site_pbe_ddec_sum_bond_order
 _atom_site_pbe_magmom
Cu  Cu0  1  0.50019959  0.00029437  0.50015679  1  1.141957  0.608909  0.854694  0.783435  0.832234  2.502066  0.606
Cu  Cu1  1  0.50020948  0.49986311  0.50013295  1  1.142326  0.608729  0.854405  0.783016  0.83198  2.502202  0.606
Cu  Cu2  1  0.00005829  0.99986229  0.50037903  1  1.139335  0.619272  0.849583  0.788699  0.848621  2.464644  0.616
Cu  Cu3  1  0.00006774  0.50055162  0.50039250  1  1.139378  0.619416  0.849431  0.787909  0.848782  2.463167  0.616
Cu  Cu4  1  0.99976697  0.76573572  0.99967850  1  1.142719  0.59916  0.919363  0.891006  0.823539  2.465772  0.594
Cu  Cu5  1  0.99994636  0.23397051  0.99976720  1  1.142641  0.599049  0.919283  0.891022  0.823029  2.464407  0.594
H  H6  1  0.52088249  0.17962319  0.72577080  1  0.181939  0.003723  0.140691  0.116754  0.002133  0.959019  0.002
H  H7  1  0.36782050  0.25780419  0.82568817  1  0.155049  0.002624  0.139619  0.156218  0.001461  0.946981  0.002
H  H8  1  0.14510438  0.17431803  0.72794536  1  0.143026  0.003598  0.135738  0.108823  0.001864  0.972109  0.002
H  H9  1  0.23546252  0.97210956  0.45770453  1  0.166006  0.00269  0.139053  0.086585  0.001072  1.022226  0.002
H  H10  1  0.47931386  0.45379503  0.27463607  1  0.182934  0.003649  0.14068  0.116624  0.002073  0.9597  0.002
H  H11  1  0.63221181  0.43222980  0.17460018  1  0.14857  0.002657  0.139489  0.156256  0.001478  0.947115  0.002
H  H12  1  0.85501077  0.44660524  0.27225501  1  0.144582  0.003637  0.135708  0.108802  0.00189  0.972712  0.002
H  H13  1  0.76494639  0.51442051  0.54255927  1  0.156037  0.003103  0.139097  0.086487  0.001438  1.021836  0.002
H  H14  1  0.47927038  0.82081563  0.27465442  1  0.185352  0.003646  0.14076  0.117083  0.002071  0.95928  0.002
H  H15  1  0.63215395  0.74232215  0.17462070  1  0.158035  0.002639  0.139467  0.156022  0.001478  0.947415  0.002
H  H16  1  0.85496029  0.82560463  0.27224329  1  0.141569  0.003652  0.135681  0.108446  0.001892  0.972797  0.002
H  H17  1  0.76495142  0.02793569  0.54266047  1  0.164048  0.003085  0.139081  0.086666  0.001436  1.021819  0.002
H  H18  1  0.52084311  0.54616524  0.72574622  1  0.182408  0.003718  0.140679  0.116871  0.002132  0.958568  0.002
H  H19  1  0.36778784  0.56791743  0.82567028  1  0.145791  0.002641  0.139443  0.155904  0.001461  0.947461  0.002
H  H20  1  0.14506850  0.55363200  0.72790997  1  0.14451  0.003588  0.135825  0.109021  0.001863  0.972285  0.002
H  H21  1  0.23548193  0.48589526  0.45777617  1  0.15712  0.002696  0.139041  0.086396  0.00107  1.022152  0.002
W  W22  1  0.20301616  0.14908124  0.29819204  1  2.093203  -0.511383  1.056134  0.733422  -0.681918  5.743792  -0.49
W  W23  1  0.79625788  0.85064303  0.70125240  1  2.087693  0.571883  1.048622  0.717869  0.576428  5.759638  0.552
W  W24  1  0.13178776  0.63806768  0.27603394  1  2.059792  0.585253  1.050656  0.7258  0.588923  5.749771  0.565
W  W25  1  0.86794261  0.36187685  0.72384646  1  2.07928  0.593125  1.050241  0.724692  0.597701  5.749119  0.573
C  C26  1  0.33332289  0.07187045  0.35739795  1  0.753998  0.005076  0.043302  0.04842  0.007909  3.699008  0.027
C  C27  1  0.12588716  0.99266759  0.16855638  1  0.798122  0.003392  0.054467  0.068866  0.008033  3.710263  0.028
C  C28  1  0.08153039  0.07308528  0.33733600  1  0.688446  0.00497  0.009519  -0.010933  0.004728  3.779422  0.017
C  C29  1  0.07497418  0.69678326  0.16808686  1  0.74889  0.0019  0.05206  0.062085  -0.008161  3.683366  -0.009
C  C30  1  0.28099283  0.76628980  0.35488300  1  0.72307  -0.00828  0.01836  0.005877  -0.015605  3.780017  -0.019
C  C31  1  0.07867493  0.78185469  0.37902012  1  0.77546  -0.005174  0.048529  0.045279  -0.014081  3.705537  -0.012
C  C32  1  0.42277870  0.15028221  0.68997616  1  0.479698  -0.003769  0.1005  0.171443  -0.003475  3.830068  -0.003
C  C33  1  0.33903401  0.19196131  0.74440054  1  0.05244  0.015328  -0.043474  -0.128776  0.011119  3.856592  0.012
C  C34  1  0.21623852  0.14751626  0.69064285  1  0.496233  -0.003629  0.097245  0.172002  -0.003351  3.837149  -0.003
C  C35  1  0.26506738  0.03439058  0.54045314  1  1.099819  -0.005406  0.198727  0.251723  -0.00388  3.907543  -0.003
C  C36  1  0.66586595  0.71442677  0.64182248  1  0.75901  0.000294  0.041604  0.04866  -0.00916  3.706703  -0.01
C  C37  1  0.87393840  0.82385305  0.83080833  1  0.786099  0.005434  0.056284  0.073904  -0.004846  3.715861  -0.006
C  C38  1  0.91856678  0.73606145  0.66240240  1  0.69112  -0.008642  0.009421  -0.00899  -0.016021  3.782275  -0.02
C  C39  1  0.92366257  0.52875424  0.83132541  1  0.788746  0.001595  0.052485  0.063663  -0.008687  3.681686  -0.01
C  C40  1  0.71861622  0.41081948  0.64465872  1  0.728032  -0.008072  0.01846  0.006268  -0.015595  3.778031  -0.019
C  C41  1  0.92138611  0.40279275  0.62094161  1  0.766372  -0.005139  0.048849  0.044356  -0.014019  3.703497  -0.012
C  C42  1  0.57740499  0.46017264  0.31032869  1  0.444284  -0.003438  0.100461  0.170716  -0.003277  3.829554  -0.003
C  C43  1  0.66111179  0.44761440  0.25588246  1  0.104619  0.015601  -0.043004  -0.128309  0.011405  3.856551  0.012
C  C44  1  0.78393768  0.45704085  0.30959408  1  0.49076  -0.003648  0.097071  0.17166  -0.003396  3.837375  -0.003
C  C45  1  0.73523088  0.49390590  0.45979344  1  1.109254  -0.004911  0.197323  0.249083  -0.003468  3.908016  -0.003
C  C46  1  0.66574604  0.92746011  0.64195913  1  0.761101  0.000375  0.041524  0.047593  -0.009125  3.705648  -0.01
C  C47  1  0.87387876  0.00698325  0.83099049  1  0.798527  0.005024  0.05616  0.073744  -0.004873  3.713326  -0.006
C  C48  1  0.91857401  0.92653499  0.66257204  1  0.716758  -0.008737  0.009434  -0.007835  -0.015993  3.781732  -0.02
C  C49  1  0.92386347  0.30259995  0.83142107  1  0.752971  0.001523  0.052543  0.063287  -0.008693  3.680931  -0.01
C  C50  1  0.71860800  0.23366633  0.64463720  1  0.728307  -0.008048  0.019175  0.008256  -0.015588  3.778342  -0.019
C  C51  1  0.92134263  0.21808651  0.62092811  1  0.776391  -0.005051  0.048502  0.044887  -0.01404  3.703936  -0.012
C  C52  1  0.57738042  0.85007335  0.31037582  1  0.478003  -0.003535  0.10086  0.171608  -0.00327  3.828777  -0.003
C  C53  1  0.66107075  0.80820129  0.25593020  1  0.07117  0.015692  -0.043422  -0.128604  0.011409  3.856341  0.012
C  C54  1  0.78391685  0.85248452  0.30963449  1  0.483216  -0.003635  0.096972  0.172143  -0.003408  3.837448  -0.003
C  C55  1  0.73522602  0.96573093  0.45987394  1  1.094934  -0.004872  0.197507  0.249845  -0.003471  3.909631  -0.003
C  C56  1  0.33321056  0.28559811  0.35745965  1  0.755621  0.005115  0.043475  0.048297  0.007872  3.699776  0.027
C  C57  1  0.12580672  0.17591534  0.16866985  1  0.774107  0.003808  0.05527  0.070513  0.008069  3.711149  0.028
C  C58  1  0.08163585  0.26430201  0.33747056  1  0.691928  0.004875  0.009423  -0.012181  0.004733  3.781552  0.017
C  C59  1  0.07523057  0.47135241  0.16817045  1  0.787602  0.001933  0.052059  0.063003  -0.008183  3.683078  -0.009
C  C60  1  0.28103801  0.58887924  0.35496722  1  0.726716  -0.008268  0.018164  0.005615  -0.015627  3.779317  -0.019
C  C61  1  0.07863639  0.59717060  0.37895287  1  0.765102  -0.005298  0.048723  0.044511  -0.014071  3.704516  -0.012
C  C62  1  0.42275727  0.53979549  0.68997777  1  0.444645  -0.003685  0.100484  0.170508  -0.003483  3.829085  -0.003
C  C63  1  0.33900415  0.55251499  0.74440741  1  0.101899  0.015199  -0.04262  -0.127414  0.011111  3.856366  0.012
C  C64  1  0.21623419  0.54320510  0.69065455  1  0.48991  -0.00361  0.096554  0.17079  -0.003335  3.838279  -0.003
C  C65  1  0.26508500  0.50629644  0.54050584  1  1.107738  -0.005401  0.19807  0.25023  -0.003872  3.907519  -0.003
C  C66  1  0.32741205  0.10322136  0.20625123  1  0.687394  0.01206  -0.016121  -0.063571  0.010852  3.86931  0.013
C  C67  1  0.25074897  0.23457282  0.46922357  1  0.668352  0.00539  -0.003406  -0.037002  0.007603  3.823441  0.007
C  C68  1  0.67303023  0.89712262  0.79450916  1  0.685127  -0.006607  -0.017721  -0.063127  -0.010832  3.871951  -0.009
C  C69  1  0.74880095  0.76515746  0.53021748  1  0.673193  -0.007583  -0.003516  -0.033891  -0.012299  3.820543  -0.01
C  C70  1  0.25013462  0.58934617  0.17859218  1  0.669087  -0.010219  -0.013417  -0.059156  -0.013966  3.856068  -0.013
C  C71  1  0.93405845  0.61062569  0.22131396  1  0.668825  -0.009996  -0.009331  -0.072348  -0.013669  3.851566  -0.012
C  C72  1  0.74969977  0.41063171  0.82134585  1  0.67061  -0.010557  -0.013741  -0.059947  -0.014376  3.856653  -0.013
C  C73  1  0.06568193  0.38957180  0.77907103  1  0.643067  -0.009338  -0.009615  -0.073576  -0.013918  3.850515  -0.013
N  N74  1  0.40542403  0.03392041  0.39509818  1  -1.277498  0.015978  -0.375337  -0.319329  0.010318  3.422696  0.018
N  N75  1  0.09036281  0.90521128  0.09984233  1  -1.296968  0.033971  -0.374987  -0.328511  0.022296  3.404612  0.032
N  N76  1  0.02030121  0.02938799  0.36036860  1  -1.242206  -0.05828  -0.341898  -0.334292  -0.05022  3.075982  -0.04
N  N77  1  0.04054305  0.72721732  0.10831648  1  -1.255282  0.145485  -0.371859  -0.322788  0.10061  3.406242  0.116
N  N78  1  0.36332599  0.83587177  0.39960320  1  -1.271818  0.060121  -0.332834  -0.327345  0.039293  3.127961  0.044
N  N79  1  0.04974843  0.86223822  0.43114656  1  -1.292986  0.125771  -0.369108  -0.312226  0.088204  3.440489  0.101
N  N80  1  0.38459406  0.07110629  0.58836095  1  -1.208452  0.113345  -0.315168  -0.237348  0.080121  3.540516  0.098
N  N81  1  0.18023046  0.06908752  0.58865722  1  -1.189144  0.117534  -0.315182  -0.240684  0.082949  3.535007  0.102
N  N82  1  0.59299072  0.63913573  0.60359501  1  -1.28395  0.138248  -0.377822  -0.321837  0.095865  3.431207  0.108
N  N83  1  0.91429135  0.80829111  0.90118502  1  -1.284608  0.140735  -0.378544  -0.333126  0.097427  3.415847  0.112
N  N84  1  0.97982051  0.66935562  0.63942001  1  -1.253887  0.069588  -0.345454  -0.339404  0.045406  3.08412  0.051
N  N85  1  0.95737631  0.61912142  0.89078660  1  -1.296837  0.146807  -0.372095  -0.322513  0.101862  3.408224  0.117
N  N86  1  0.63626486  0.43572905  0.60001261  1  -1.276032  0.061048  -0.33343  -0.328342  0.039924  3.12727  0.044
N  N87  1  0.95067247  0.43139299  0.56920567  1  -1.281266  0.125996  -0.368955  -0.311784  0.088454  3.438642  0.101
N  N88  1  0.61566473  0.48238099  0.41185811  1  -1.188592  0.113304  -0.314231  -0.234774  0.080048  3.539912  0.098
N  N89  1  0.82002405  0.48064267  0.41159624  1  -1.213755  0.119014  -0.314682  -0.239056  0.083958  3.533898  0.103
N  N90  1  0.59280405  0.96445698  0.60368977  1  -1.286512  0.138363  -0.377773  -0.321191  0.095841  3.430275  0.108
N  N91  1  0.91436876  0.09292353  0.90135690  1  -1.297751  0.140898  -0.378556  -0.333319  0.097456  3.413372  0.112
N  N92  1  0.97986307  0.97015886  0.63953595  1  -1.2775  0.069619  -0.345642  -0.340524  0.045484  3.084653  0.051
N  N93  1  0.95757435  0.27168237  0.89086556  1  -1.258151  0.146957  -0.372059  -0.322343  0.10175  3.407688  0.117
N  N94  1  0.63625871  0.16410603  0.60002217  1  -1.277831  0.060944  -0.333925  -0.329907  0.039827  3.130411  0.044
N  N95  1  0.95059948  0.13773441  0.56917074  1  -1.294096  0.126307  -0.368749  -0.312027  0.08862  3.440196  0.101
N  N96  1  0.61565104  0.92935808  0.41192870  1  -1.205216  0.113301  -0.314411  -0.23628  0.07996  3.540898  0.098
N  N97  1  0.82000611  0.93083264  0.41165133  1  -1.193578  0.11901  -0.314736  -0.239846  0.084012  3.535766  0.103
N  N98  1  0.40527491  0.36127319  0.39515767  1  -1.279124  0.016067  -0.375548  -0.319076  0.010494  3.424361  0.018
N  N99  1  0.09044443  0.19465930  0.09995178  1  -1.271105  0.033352  -0.375731  -0.329645  0.022234  3.404791  0.032
N  N100  1  0.02039422  0.33102930  0.36035907  1  -1.249984  -0.058065  -0.341653  -0.333163  -0.050043  3.075939  -0.04
N  N101  1  0.04078783  0.38112947  0.10838826  1  -1.297655  0.14528  -0.371871  -0.323433  0.100605  3.40563  0.116
N  N102  1  0.36337587  0.56401796  0.39968103  1  -1.274018  0.06037  -0.332811  -0.32743  0.039475  3.125108  0.044
N  N103  1  0.04970651  0.56890605  0.43106658  1  -1.279549  0.12546  -0.368882  -0.311225  0.088044  3.438203  0.1
N  N104  1  0.38459474  0.51742365  0.58838620  1  -1.184859  0.113269  -0.314679  -0.236059  0.08012  3.541128  0.098
N  N105  1  0.18023773  0.51973543  0.58869295  1  -1.211401  0.117571  -0.314713  -0.239082  0.082913  3.533871  0.102
N  N106  1  0.39612960  0.07879810  0.15727612  1  -1.18231  -0.031985  -0.343126  -0.276481  -0.027526  2.791693  -0.021
N  N107  1  0.27775169  0.28098673  0.56208510  1  -1.190708  -0.013445  -0.339119  -0.295712  -0.011907  2.873586  -0.009
N  N108  1  0.60436833  0.92158094  0.84354122  1  -1.186909  0.027146  -0.346357  -0.282058  0.017531  2.7969  0.018
N  N109  1  0.72199940  0.71869448  0.43736804  1  -1.199736  0.02013  -0.340454  -0.299033  0.013244  2.872137  0.014
N  N110  1  0.31743704  0.56403149  0.12818263  1  -1.17883  0.044795  -0.342382  -0.286621  0.028919  2.810065  0.03
N  N111  1  0.82667378  0.59587341  0.19189525  1  -1.159443  0.036967  -0.323262  -0.280327  0.024043  2.876424  0.025
N  N112  1  0.68244012  0.43595237  0.87179687  1  -1.179852  0.045904  -0.34153  -0.285338  0.029627  2.809311  0.031
N  N113  1  0.17306130  0.40418458  0.80823516  1  -1.15267  0.038322  -0.323086  -0.279526  0.024902  2.876242  0.026
