# generated using pymatgen
data_ZnH6(CO)3
_symmetry_space_group_name_H-M   'P 1'
_cell_length_a   6.42898974
_cell_length_b   8.04136537
_cell_length_c   8.67574771
_cell_angle_alpha   93.73522656
_cell_angle_beta   90.00004845
_cell_angle_gamma   89.99993546
_symmetry_Int_Tables_number   1
_chemical_formula_structural   ZnH6(CO)3
_chemical_formula_sum   'Zn4 H24 C12 O12'
_cell_volume   447.56478958
_cell_formula_units_Z   4
loop_
 _symmetry_equiv_pos_site_id
 _symmetry_equiv_pos_as_xyz
  1  'x, y, z'
loop_
 _atom_site_type_symbol
 _atom_site_label
 _atom_site_symmetry_multiplicity
 _atom_site_fract_x
 _atom_site_fract_y
 _atom_site_fract_z
 _atom_site_occupancy
 _atom_site_hle17_bader_spin_density
 _atom_site_hle17_ddec_charge
 _atom_site_hle17_ddec_spin_density
 _atom_site_hle17_ddec_sum_bond_order
 _atom_site_hle17_magmom
 _atom_site_hse06_10hf_bader_spin_density
 _atom_site_hse06_10hf_ddec_charge
 _atom_site_hse06_10hf_ddec_spin_density
 _atom_site_hse06_10hf_ddec_sum_bond_order
 _atom_site_hse06_10hf_magmom
 _atom_site_hse06_bader_spin_density
 _atom_site_hse06_ddec_charge
 _atom_site_hse06_ddec_spin_density
 _atom_site_hse06_ddec_sum_bond_order
 _atom_site_hse06_magmom
 _atom_site_pbe_bader_spin_density
 _atom_site_pbe_cm5_charge
 _atom_site_pbe_ddec_charge
 _atom_site_pbe_ddec_spin_density
 _atom_site_pbe_ddec_sum_bond_order
 _atom_site_pbe_magmom
Zn  Zn0  1  0.92463682  0.55256216  0.83734719  1  0  1.093584  0  1.803555  0  0  0.925658  0  2.254999  0  0  0.974011  0  2.195273  0  0  0.655041  0.891601  0  2.295613  0
Zn  Zn1  1  0.42463599  0.44743955  0.66265243  1  0  1.093563  0  1.803577  0  0  0.92564  0  2.255016  0  0  0.973999  0  2.195291  0  0  0.655036  0.891584  0  2.29563  0
Zn  Zn2  1  0.07536310  0.44743945  0.16265243  1  0  1.093591  0  1.803544  0  0  0.925666  0  2.254982  0  0  0.974023  0  2.195253  0  0  0.655043  0.891611  0  2.295599  0
Zn  Zn3  1  0.57536392  0.55256082  0.33734942  1  0  1.093567  0  1.803582  0  0  0.925644  0  2.255023  0  0  0.974003  0  2.195298  0  0  0.655033  0.891588  0  2.295636  0
H  H4  1  0.84330194  0.13617274  0.03554887  1  0  0.043846  0  0.936995  0  0  0.062352  0  1.001994  0  0  0.061944  0  1.002266  0  0  0.092907  0.062496  0  1.002116  0
H  H5  1  0.34330088  0.86382979  0.46445212  1  0  0.04385  0  0.937052  0  0  0.062387  0  1.002  0  0  0.06198  0  1.002268  0  0  0.092916  0.062529  0  1.002121  0
H  H6  1  0.15670264  0.86382388  0.96444815  1  0  0.043848  0  0.937031  0  0  0.062378  0  1.001988  0  0  0.061969  0  1.002263  0  0  0.092917  0.06252  0  1.002107  0
H  H7  1  0.65670059  0.13617058  0.53554973  1  0  0.043878  0  0.93705  0  0  0.062399  0  1.00201  0  0  0.061992  0  1.00228  0  0  0.092923  0.062542  0  1.002128  0
H  H8  1  0.88405842  0.13022325  0.83181920  1  0  0.040609  0  0.947461  0  0  0.056991  0  1.016776  0  0  0.05684  0  1.016361  0  0  0.091866  0.05693  0  1.017323  0
H  H9  1  0.38405856  0.86977850  0.66818156  1  0  0.040625  0  0.947519  0  0  0.056999  0  1.016827  0  0  0.056848  0  1.016411  0  0  0.091868  0.05694  0  1.01737  0
H  H10  1  0.11594150  0.86978210  0.16817833  1  0  0.040628  0  0.947339  0  0  0.056981  0  1.016692  0  0  0.056831  0  1.016275  0  0  0.091827  0.05692  0  1.017241  0
H  H11  1  0.61594291  0.13022187  0.33181914  1  0  0.040621  0  0.947455  0  0  0.056997  0  1.016766  0  0  0.056847  0  1.016349  0  0  0.091857  0.056937  0  1.017313  0
H  H12  1  0.58975494  0.36052766  0.02411215  1  0  0.02381  0  0.930444  0  0  0.035167  0  0.998011  0  0  0.035703  0  0.996325  0  0  0.090947  0.034373  0  0.999635  0
H  H13  1  0.08975421  0.63947509  0.47588639  1  0  0.023772  0  0.930474  0  0  0.035157  0  0.998049  0  0  0.035696  0  0.996356  0  0  0.090927  0.034364  0  0.99967  0
H  H14  1  0.41024653  0.63947022  0.97588840  1  0  0.023785  0  0.930451  0  0  0.035147  0  0.998028  0  0  0.035685  0  0.996337  0  0  0.090928  0.034352  0  0.999652  0
H  H15  1  0.91024571  0.36052528  0.52411315  1  0  0.023793  0  0.930451  0  0  0.035175  0  0.998025  0  0  0.035714  0  0.996332  0  0  0.090942  0.034381  0  0.999648  0
H  H16  1  0.42108686  0.10291691  0.95516093  1  0  0.050355  0  0.943136  0  0  0.068438  0  1.006799  0  0  0.068258  0  1.006942  0  0  0.099412  0.068348  0  1.007073  0
H  H17  1  0.92108375  0.89708604  0.54483761  1  0  0.050338  0  0.943164  0  0  0.068431  0  1.006808  0  0  0.06824  0  1.006962  0  0  0.09941  0.068334  0  1.007091  0
H  H18  1  0.57891150  0.89708470  0.04483984  1  0  0.050306  0  0.943162  0  0  0.068394  0  1.00683  0  0  0.068219  0  1.006968  0  0  0.099415  0.068316  0  1.007094  0
H  H19  1  0.07891461  0.10291432  0.45516078  1  0  0.05034  0  0.943129  0  0  0.068436  0  1.006782  0  0  0.068246  0  1.006936  0  0  0.09942  0.068344  0  1.00706  0
H  H20  1  0.55424455  0.07610411  0.77434820  1  0  0.045352  0  0.953833  0  0  0.057317  0  1.027663  0  0  0.058185  0  1.026102  0  0  0.09315  0.056378  0  1.029315  0
H  H21  1  0.05424002  0.92389418  0.72564984  1  0  0.045285  0  0.953882  0  0  0.057258  0  1.027706  0  0  0.058128  0  1.026142  0  0  0.093129  0.056322  0  1.029354  0
H  H22  1  0.44575537  0.92389128  0.22565336  1  0  0.045268  0  0.953782  0  0  0.057213  0  1.027654  0  0  0.058081  0  1.026095  0  0  0.093075  0.056287  0  1.029297  0
H  H23  1  0.94575523  0.07610369  0.27434841  1  0  0.045334  0  0.953826  0  0  0.057304  0  1.027657  0  0  0.058171  0  1.026097  0  0  0.093156  0.056377  0  1.029297  0
H  H24  1  0.19238667  0.27636376  0.85562178  1  0  0.3682  0  0.947642  0  0  0.33905  0  1.020847  0  0  0.350538  0  1.010035  0  0  0.284764  0.331224  0  1.027812  0
H  H25  1  0.69238392  0.72363691  0.64437764  1  0  0.368225  0  0.947587  0  0  0.339065  0  1.020815  0  0  0.350556  0  1.010002  0  0  0.284775  0.331241  0  1.027779  0
H  H26  1  0.80761480  0.72363786  0.14437899  1  0  0.368204  0  0.94761  0  0  0.339052  0  1.020823  0  0  0.350541  0  1.010011  0  0  0.284768  0.331227  0  1.027787  0
H  H27  1  0.30761288  0.27636345  0.35562076  1  0  0.368218  0  0.947598  0  0  0.339072  0  1.020803  0  0  0.350561  0  1.009991  0  0  0.284772  0.331247  0  1.027766  0
C  C28  1  0.85161320  0.21359816  0.93522208  1  0  0.087005  0  3.687199  0  0  0.01766  0  3.958575  0  0  0.025307  0  3.967235  0  0  -0.093246  0.012801  0  3.951979  0
C  C29  1  0.35161178  0.78640486  0.56477758  1  0  0.086923  0  3.687299  0  0  0.017602  0  3.958674  0  0  0.025255  0  3.96734  0  0  -0.093269  0.012745  0  3.952076  0
C  C30  1  0.14838983  0.78640344  0.06477524  1  0  0.087008  0  3.687057  0  0  0.017676  0  3.958439  0  0  0.025328  0  3.967099  0  0  -0.093235  0.01282  0  3.951839  0
C  C31  1  0.64838813  0.21359551  0.43522312  1  0  0.086846  0  3.687289  0  0  0.017539  0  3.958663  0  0  0.02519  0  3.967324  0  0  -0.093288  0.012683  0  3.952062  0
C  C32  1  0.64182122  0.29938192  0.91254372  1  0  0.174328  0  3.700962  0  0  0.151312  0  3.95446  0  0  0.157144  0  3.967204  0  0  -0.035718  0.14719  0  3.945959  0
C  C33  1  0.14181995  0.70062128  0.58745581  1  0  0.174338  0  3.700922  0  0  0.151205  0  3.954584  0  0  0.157039  0  3.967322  0  0  -0.035746  0.147085  0  3.946079  0
C  C34  1  0.35818025  0.70061969  0.08745705  1  0  0.174234  0  3.701024  0  0  0.151192  0  3.954578  0  0  0.157025  0  3.96732  0  0  -0.035747  0.147071  0  3.946081  0
C  C35  1  0.85817996  0.29937909  0.41254489  1  0  0.174352  0  3.700897  0  0  0.151227  0  3.954545  0  0  0.157061  0  3.967285  0  0  -0.035742  0.147106  0  3.946046  0
C  C36  1  0.48001359  0.16821858  0.85646261  1  0  0.072224  0  3.644531  0  0  0.004647  0  3.921758  0  0  0.011302  0  3.927923  0  0  -0.085815  0.000126  0  3.917698  0
C  C37  1  0.98000913  0.83178308  0.64353359  1  0  0.072365  0  3.644525  0  0  0.004802  0  3.921765  0  0  0.011466  0  3.927928  0  0  -0.085766  0.000286  0  3.917701  0
C  C38  1  0.51998789  0.83177929  0.14353564  1  0  0.072517  0  3.644341  0  0  0.004946  0  3.921602  0  0  0.011597  0  3.927767  0  0  -0.085685  0.000408  0  3.917538  0
C  C39  1  0.01998768  0.16821728  0.35646365  1  0  0.072311  0  3.64447  0  0  0.004741  0  3.921723  0  0  0.011405  0  3.927888  0  0  -0.085811  0.000213  0  3.91766  0
O  O40  1  0.01637614  0.33198502  0.95295184  1  0  -0.690564  0  2.153383  0  0  -0.582393  0  2.430618  0  0  -0.612249  0  2.417622  0  0  -0.387638  -0.561104  0  2.437915  0
O  O41  1  0.51637180  0.66801705  0.54704755  1  0  -0.690557  0  2.153331  0  0  -0.582381  0  2.430556  0  0  -0.61226  0  2.417588  0  0  -0.387656  -0.561094  0  2.437857  0
O  O42  1  0.98362689  0.66801660  0.04704778  1  0  -0.69057  0  2.153306  0  0  -0.582383  0  2.430525  0  0  -0.612254  0  2.417548  0  0  -0.387618  -0.561095  0  2.437824  0
O  O43  1  0.48362656  0.33198457  0.45295322  1  0  -0.690483  0  2.153346  0  0  -0.582333  0  2.430587  0  0  -0.612203  0  2.417606  0  0  -0.387623  -0.561044  0  2.437882  0
O  O44  1  0.66509845  0.42193530  0.80277556  1  0  -0.736518  0  2.103982  0  0  -0.637491  0  2.421701  0  0  -0.666732  0  2.402159  0  0  -0.401894  -0.617094  0  2.434792  0
O  O45  1  0.16509748  0.57806788  0.69722399  1  0  -0.736509  0  2.103907  0  0  -0.637445  0  2.421634  0  0  -0.666686  0  2.402093  0  0  -0.401869  -0.617059  0  2.434749  0
O  O46  1  0.33490147  0.57806631  0.19722637  1  0  -0.736529  0  2.103964  0  0  -0.63749  0  2.421678  0  0  -0.666732  0  2.402135  0  0  -0.401887  -0.6171  0  2.434782  0
O  O47  1  0.83490244  0.42193374  0.30277678  1  0  -0.736528  0  2.103889  0  0  -0.637464  0  2.42162  0  0  -0.666705  0  2.402078  0  0  -0.401889  -0.617075  0  2.434725  0
O  O48  1  0.30985612  0.23928232  0.77727910  1  0  -0.572213  0  2.148678  0  0  -0.498701  0  2.405938  0  0  -0.520243  0  2.392498  0  0  -0.403763  -0.48326  0  2.41389  0
O  O49  1  0.80985341  0.76071949  0.72272161  1  0  -0.572243  0  2.148589  0  0  -0.498735  0  2.405864  0  0  -0.520276  0  2.392415  0  0  -0.403766  -0.483296  0  2.41381  0
O  O50  1  0.69014691  0.76071805  0.22272390  1  0  -0.572278  0  2.14855  0  0  -0.498762  0  2.405811  0  0  -0.520303  0  2.39237  0  0  -0.40379  -0.483323  0  2.413769  0
O  O51  1  0.19014495  0.23928087  0.27727794  1  0  -0.572253  0  2.148632  0  0  -0.498742  0  2.405887  0  0  -0.520283  0  2.39244  0  0  -0.403761  -0.483303  0  2.413841  0
