# generated using pymatgen
data_CdH11C10NO5
_symmetry_space_group_name_H-M   'P 1'
_cell_length_a   8.58930244
_cell_length_b   9.81582450
_cell_length_c   13.64683702
_cell_angle_alpha   89.99997747
_cell_angle_beta   105.20389525
_cell_angle_gamma   90.00037394
_symmetry_Int_Tables_number   1
_chemical_formula_structural   CdH11C10NO5
_chemical_formula_sum   'Cd4 H44 C40 N4 O20'
_cell_volume   1110.30781951
_cell_formula_units_Z   4
loop_
 _symmetry_equiv_pos_site_id
 _symmetry_equiv_pos_as_xyz
  1  'x, y, z'
loop_
 _atom_site_type_symbol
 _atom_site_label
 _atom_site_symmetry_multiplicity
 _atom_site_fract_x
 _atom_site_fract_y
 _atom_site_fract_z
 _atom_site_occupancy
 _atom_site_hle17_bader_spin_density
 _atom_site_hle17_ddec_charge
 _atom_site_hle17_ddec_spin_density
 _atom_site_hle17_ddec_sum_bond_order
 _atom_site_hle17_magmom
 _atom_site_hse06_10hf_bader_spin_density
 _atom_site_hse06_10hf_ddec_charge
 _atom_site_hse06_10hf_ddec_spin_density
 _atom_site_hse06_10hf_ddec_sum_bond_order
 _atom_site_hse06_10hf_magmom
 _atom_site_hse06_bader_spin_density
 _atom_site_hse06_ddec_charge
 _atom_site_hse06_ddec_spin_density
 _atom_site_hse06_ddec_sum_bond_order
 _atom_site_hse06_magmom
 _atom_site_pbe_bader_spin_density
 _atom_site_pbe_cm5_charge
 _atom_site_pbe_ddec_charge
 _atom_site_pbe_ddec_spin_density
 _atom_site_pbe_ddec_sum_bond_order
 _atom_site_pbe_magmom
Cd  Cd0  1  0.76605699  0.40462326  0.10493709  1  0  1.207835  0  1.608901  0  0  1.02613  0  2.050025  0  0  1.08434  0  1.993306  0  0  0.772197  0.984225  0  2.089243  0
Cd  Cd1  1  0.73394943  0.90462271  0.89505295  1  0  1.207825  0  1.60897  0  0  1.026123  0  2.050071  0  0  1.084322  0  1.99335  0  0  0.772219  0.984216  0  2.089284  0
Cd  Cd2  1  0.23394436  0.59537474  0.89506295  1  0  1.207799  0  1.608912  0  0  1.026092  0  2.05005  0  0  1.084299  0  1.993331  0  0  0.772194  0.984188  0  2.089266  0
Cd  Cd3  1  0.26604832  0.09537427  0.10494798  1  0  1.207901  0  1.608925  0  0  1.026207  0  2.050019  0  0  1.084406  0  1.993294  0  0  0.772268  0.984298  0  2.08923  0
H  H4  1  0.08448284  0.59962686  0.10440648  1  0  0.122995  0  0.912122  0  0  0.137641  0  0.970616  0  0  0.13985  0  0.969522  0  0  0.122343  0.135898  0  0.971731  0
H  H5  1  0.41551451  0.09961455  0.89559054  1  0  0.122944  0  0.912202  0  0  0.13766  0  0.970632  0  0  0.139828  0  0.969601  0  0  0.122335  0.135914  0  0.971754  0
H  H6  1  0.91552333  0.40036909  0.89559359  1  0  0.123028  0  0.912103  0  0  0.137666  0  0.970602  0  0  0.139878  0  0.969507  0  0  0.12237  0.135925  0  0.971714  0
H  H7  1  0.58448688  0.90038140  0.10441244  1  0  0.122929  0  0.912199  0  0  0.137633  0  0.970617  0  0  0.139816  0  0.969562  0  0  0.122315  0.135887  0  0.971737  0
H  H8  1  0.09370530  0.73524155  0.19043794  1  0  0.098348  0  0.93647  0  0  0.110174  0  1.000042  0  0  0.111813  0  0.999899  0  0  0.107264  0.108997  0  1.000327  0
H  H9  1  0.40628220  0.23522720  0.80955161  1  0  0.098295  0  0.936551  0  0  0.110261  0  0.999926  0  0  0.11188  0  0.999839  0  0  0.107251  0.109083  0  1.00021  0
H  H10  1  0.90630205  0.26475746  0.80956013  1  0  0.098315  0  0.93651  0  0  0.110155  0  1.000036  0  0  0.111772  0  0.999946  0  0  0.107268  0.108977  0  1.000323  0
H  H11  1  0.59371797  0.76476875  0.19044970  1  0  0.098277  0  0.936654  0  0  0.110212  0  1.000042  0  0  0.111827  0  0.99996  0  0  0.107268  0.109034  0  1.000326  0
H  H12  1  0.10643471  0.40701747  0.32988252  1  0  0.10678  0  0.937557  0  0  0.12236  0  0.99945  0  0  0.123643  0  0.999139  0  0  0.118882  0.121533  0  0.9996  0
H  H13  1  0.39357966  0.90699146  0.67012302  1  0  0.106749  0  0.937685  0  0  0.122287  0  0.999628  0  0  0.12355  0  0.999319  0  0  0.118844  0.121463  0  0.999776  0
H  H14  1  0.89356428  0.59298358  0.67012007  1  0  0.106792  0  0.937529  0  0  0.122387  0  0.999416  0  0  0.123668  0  0.999113  0  0  0.118901  0.12156  0  0.999567  0
H  H15  1  0.60641568  0.09300755  0.32987752  1  0  0.106773  0  0.937719  0  0  0.122325  0  0.999646  0  0  0.123587  0  0.999334  0  0  0.118876  0.121508  0  0.999795  0
H  H16  1  0.23522328  0.51421108  0.28234192  1  0  0.097988  0  0.936079  0  0  0.11331  0  0.997783  0  0  0.115087  0  0.996566  0  0  0.108949  0.11207  0  0.998646  0
H  H17  1  0.26477935  0.01418478  0.71765084  1  0  0.097968  0  0.936036  0  0  0.113279  0  0.997765  0  0  0.115041  0  0.996539  0  0  0.108927  0.112042  0  0.99863  0
H  H18  1  0.76478051  0.48578691  0.71766071  1  0  0.098001  0  0.936053  0  0  0.113307  0  0.997804  0  0  0.115091  0  0.996581  0  0  0.108964  0.112068  0  0.998668  0
H  H19  1  0.73521841  0.98581627  0.28235009  1  0  0.098005  0  0.936016  0  0  0.113318  0  0.997739  0  0  0.115086  0  0.996508  0  0  0.108956  0.112082  0  0.998604  0
H  H20  1  0.98456898  0.81825896  0.28704452  1  0  0.10667  0  0.967935  0  0  0.118442  0  1.027896  0  0  0.121684  0  1.026426  0  0  0.103831  0.115896  0  1.029353  0
H  H21  1  0.51542610  0.31825164  0.71295910  1  0  0.106629  0  0.967899  0  0  0.118381  0  1.027886  0  0  0.121618  0  1.02642  0  0  0.103817  0.11582  0  1.029348  0
H  H22  1  0.01543354  0.18174412  0.71295277  1  0  0.106604  0  0.967917  0  0  0.118371  0  1.027883  0  0  0.121616  0  1.026411  0  0  0.103832  0.115835  0  1.029319  0
H  H23  1  0.48457288  0.68174534  0.28704275  1  0  0.106684  0  0.967929  0  0  0.118444  0  1.027906  0  0  0.121678  0  1.026444  0  0  0.103845  0.115891  0  1.029361  0
H  H24  1  0.76332809  0.73861443  0.52964146  1  0  0.090593  0  0.95091  0  0  0.104652  0  1.00601  0  0  0.107318  0  1.005172  0  0  0.100492  0.102718  0  1.006723  0
H  H25  1  0.73667358  0.23862580  0.47036251  1  0  0.090547  0  0.950973  0  0  0.104607  0  1.006083  0  0  0.107286  0  1.005221  0  0  0.100494  0.102673  0  1.006795  0
H  H26  1  0.23667568  0.26139579  0.47035897  1  0  0.090596  0  0.950893  0  0  0.104669  0  1.005977  0  0  0.107341  0  1.005131  0  0  0.100476  0.102733  0  1.006691  0
H  H27  1  0.26332416  0.76137219  0.52963768  1  0  0.090614  0  0.950975  0  0  0.10468  0  1.006065  0  0  0.107358  0  1.005204  0  0  0.100526  0.102747  0  1.006775  0
H  H28  1  0.74326215  0.49162138  0.48340124  1  0  0.077994  0  0.975407  0  0  0.09058  0  1.035308  0  0  0.092533  0  1.034925  0  0  0.097373  0.089178  0  1.035636  0
H  H29  1  0.75674024  0.99163136  0.51659545  1  0  0.078035  0  0.975369  0  0  0.090595  0  1.035309  0  0  0.092558  0  1.034894  0  0  0.097354  0.089191  0  1.035642  0
H  H30  1  0.25673679  0.50838884  0.51659767  1  0  0.078035  0  0.975433  0  0  0.09062  0  1.035336  0  0  0.09258  0  1.034931  0  0  0.097416  0.089214  0  1.035672  0
H  H31  1  0.24325509  0.00836663  0.48340435  1  0  0.077969  0  0.975314  0  0  0.090529  0  1.03527  0  0  0.092491  0  1.034861  0  0  0.097329  0.089125  0  1.035603  0
H  H32  1  0.84119248  0.40826140  0.33965257  1  0  0.105009  0  0.962094  0  0  0.115248  0  1.02518  0  0  0.118646  0  1.023118  0  0  0.103174  0.112778  0  1.026736  0
H  H33  1  0.65880557  0.90825751  0.66033905  1  0  0.10501  0  0.962067  0  0  0.115288  0  1.025116  0  0  0.118712  0  1.023026  0  0  0.103221  0.112795  0  1.026696  0
H  H34  1  0.15880404  0.59174372  0.66034596  1  0  0.104949  0  0.962126  0  0  0.115213  0  1.025177  0  0  0.118609  0  1.023117  0  0  0.103182  0.112727  0  1.026752  0
H  H35  1  0.34119218  0.09173946  0.33966114  1  0  0.105029  0  0.962115  0  0  0.115275  0  1.025183  0  0  0.11868  0  1.023115  0  0  0.103212  0.11278  0  1.026763  0
H  H36  1  0.88932062  0.89874196  0.43022694  1  0  0.076138  0  0.965141  0  0  0.089963  0  1.022473  0  0  0.092536  0  1.020849  0  0  0.097507  0.088169  0  1.023571  0
H  H37  1  0.61067997  0.39874238  0.56978122  1  0  0.076171  0  0.965213  0  0  0.090027  0  1.022487  0  0  0.092601  0  1.020862  0  0  0.097541  0.088231  0  1.023587  0
H  H38  1  0.11068551  0.10126622  0.56977020  1  0  0.075995  0  0.96518  0  0  0.089889  0  1.022434  0  0  0.092458  0  1.02081  0  0  0.097486  0.088094  0  1.023534  0
H  H39  1  0.38931779  0.60125459  0.43022045  1  0  0.07623  0  0.965205  0  0  0.090066  0  1.022494  0  0  0.092642  0  1.020869  0  0  0.097553  0.088269  0  1.023598  0
H  H40  1  0.47851277  0.54818247  0.11671158  1  0  0.426703  0  0.880316  0  0  0.393127  0  0.947901  0  0  0.404702  0  0.931326  0  0  0.285313  0.384805  0  0.959842  0
H  H41  1  0.02151436  0.04816795  0.88329242  1  0  0.426681  0  0.880325  0  0  0.393091  0  0.947939  0  0  0.404658  0  0.931374  0  0  0.285301  0.384767  0  0.959881  0
H  H42  1  0.52148857  0.45181756  0.88328772  1  0  0.426698  0  0.880315  0  0  0.393121  0  0.947902  0  0  0.404695  0  0.931326  0  0  0.285315  0.384799  0  0.959841  0
H  H43  1  0.97848458  0.95183208  0.11670723  1  0  0.426711  0  0.880295  0  0  0.393133  0  0.947887  0  0  0.404699  0  0.931325  0  0  0.285332  0.38481  0  0.959829  0
H  H44  1  0.46649963  0.39136320  0.13958871  1  0  0.429414  0  0.84484  0  0  0.399349  0  0.920356  0  0  0.408975  0  0.906332  0  0  0.298459  0.392285  0  0.930673  0
H  H45  1  0.03351833  0.89134728  0.86042473  1  0  0.42923  0  0.84505  0  0  0.399184  0  0.92057  0  0  0.408809  0  0.906549  0  0  0.29836  0.392122  0  0.930885  0
H  H46  1  0.53350170  0.60863581  0.86040912  1  0  0.429406  0  0.844843  0  0  0.399342  0  0.92036  0  0  0.408967  0  0.906337  0  0  0.298467  0.392279  0  0.930676  0
H  H47  1  0.96648419  0.10865479  0.13957256  1  0  0.429286  0  0.845011  0  0  0.399226  0  0.92054  0  0  0.408851  0  0.906516  0  0  0.298384  0.392162  0  0.930857  0
C  C48  1  0.92217933  0.60618592  0.30398974  1  0  0.169893  0  3.763521  0  0  0.171356  0  4.005613  0  0  0.176094  0  4.029687  0  0  0.079235  0.167933  0  3.989416  0
C  C49  1  0.57781875  0.10618201  0.69600489  1  0  0.169627  0  3.763518  0  0  0.171205  0  4.005509  0  0  0.175944  0  4.029591  0  0  0.07916  0.167781  0  3.989306  0
C  C50  1  0.07782202  0.39381615  0.69600956  1  0  0.169913  0  3.763562  0  0  0.171354  0  4.005606  0  0  0.176092  0  4.029676  0  0  0.079289  0.16793  0  3.98941  0
C  C51  1  0.42217655  0.89381496  0.30399272  1  0  0.169652  0  3.763668  0  0  0.171205  0  4.005661  0  0  0.175943  0  4.02974  0  0  0.079197  0.167781  0  3.989458  0
C  C52  1  0.13595335  0.34579094  0.18684518  1  0  0.686904  0  3.86002  0  0  0.638664  0  4.155295  0  0  0.672894  0  4.149129  0  0  0.206546  0.615528  0  4.158433  0
C  C53  1  0.36406289  0.84577182  0.81315701  1  0  0.686848  0  3.859678  0  0  0.638485  0  4.15517  0  0  0.672697  0  4.149001  0  0  0.206418  0.615351  0  4.158311  0
C  C54  1  0.86404566  0.65420399  0.81315962  1  0  0.686899  0  3.860016  0  0  0.638647  0  4.155319  0  0  0.67288  0  4.149154  0  0  0.206546  0.615511  0  4.158461  0
C  C55  1  0.63593244  0.15422617  0.18684279  1  0  0.686913  0  3.859829  0  0  0.638585  0  4.155265  0  0  0.672797  0  4.149097  0  0  0.206415  0.615449  0  4.158407  0
C  C56  1  0.01697997  0.65115570  0.15198488  1  0  -0.181096  0  3.649079  0  0  -0.236459  0  3.899029  0  0  -0.237921  0  3.90624  0  0  -0.072008  -0.235477  0  3.894217  0
C  C57  1  0.48301172  0.15114277  0.84800829  1  0  -0.181132  0  3.649069  0  0  -0.236652  0  3.899066  0  0  -0.238114  0  3.906311  0  0  -0.072016  -0.235668  0  3.894252  0
C  C58  1  0.98302620  0.34884230  0.84801520  1  0  -0.181094  0  3.648995  0  0  -0.236497  0  3.898974  0  0  -0.237964  0  3.906182  0  0  -0.072033  -0.235515  0  3.894164  0
C  C59  1  0.51698846  0.84885420  0.15199375  1  0  -0.181141  0  3.649212  0  0  -0.236567  0  3.899098  0  0  -0.238027  0  3.906324  0  0  -0.072007  -0.235581  0  3.894279  0
C  C60  1  0.86388881  0.70493963  0.07747655  1  0  0.707081  0  3.828691  0  0  0.649753  0  4.138587  0  0  0.684299  0  4.131452  0  0  0.216073  0.626202  0  4.142632  0
C  C61  1  0.63610283  0.20493184  0.92251776  1  0  0.707271  0  3.828591  0  0  0.650023  0  4.13836  0  0  0.684593  0  4.131195  0  0  0.216164  0.626476  0  4.142404  0
C  C62  1  0.13611736  0.29505837  0.92252353  1  0  0.707104  0  3.828642  0  0  0.649769  0  4.138533  0  0  0.684318  0  4.131394  0  0  0.216084  0.626218  0  4.14258  0
C  C63  1  0.36389970  0.79506615  0.07748027  1  0  0.707252  0  3.828573  0  0  0.649975  0  4.138347  0  0  0.684538  0  4.131191  0  0  0.216172  0.626428  0  4.14239  0
C  C64  1  0.12046570  0.45785992  0.26107686  1  0  -0.167551  0  3.650232  0  0  -0.227511  0  3.903923  0  0  -0.227991  0  3.910617  0  0  -0.070058  -0.227129  0  3.899015  0
C  C65  1  0.37953938  0.95783787  0.73892352  1  0  -0.167386  0  3.650088  0  0  -0.22729  0  3.903889  0  0  -0.227695  0  3.910501  0  0  -0.069899  -0.226896  0  3.898947  0
C  C66  1  0.87953690  0.54213909  0.73892631  1  0  -0.167523  0  3.650217  0  0  -0.22756  0  3.904006  0  0  -0.228053  0  3.910704  0  0  -0.070063  -0.227173  0  3.89909  0
C  C67  1  0.62045838  0.04216216  0.26107741  1  0  -0.167545  0  3.650136  0  0  -0.227469  0  3.90392  0  0  -0.227884  0  3.910546  0  0  -0.069979  -0.227076  0  3.89897  0
C  C68  1  0.93161719  0.74485998  0.32871717  1  0  -0.15897  0  3.737921  0  0  -0.179551  0  3.986779  0  0  -0.183533  0  4.008086  0  0  -0.100622  -0.176766  0  3.972619  0
C  C69  1  0.56837963  0.24485807  0.67128016  1  0  -0.158818  0  3.737784  0  0  -0.179412  0  3.986589  0  0  -0.183381  0  4.007882  0  0  -0.10059  -0.176606  0  3.972448  0
C  C70  1  0.06837929  0.25514413  0.67127843  1  0  -0.158925  0  3.73791  0  0  -0.179506  0  3.986786  0  0  -0.183489  0  4.008083  0  0  -0.100711  -0.176717  0  3.972628  0
C  C71  1  0.43161689  0.75513891  0.32871837  1  0  -0.158892  0  3.737905  0  0  -0.179495  0  3.986721  0  0  -0.183465  0  4.008024  0  0  -0.100638  -0.176696  0  3.97257  0
C  C72  1  0.80918365  0.70134109  0.46725260  1  0  -0.095715  0  3.799073  0  0  -0.112971  0  4.053635  0  0  -0.115585  0  4.075811  0  0  -0.102006  -0.111313  0  4.038809  0
C  C73  1  0.69081768  0.20134810  0.53274766  1  0  -0.095781  0  3.798991  0  0  -0.113056  0  4.053581  0  0  -0.115674  0  4.075754  0  0  -0.102104  -0.111399  0  4.03876  0
C  C74  1  0.19081648  0.29866811  0.53274578  1  0  -0.095694  0  3.799111  0  0  -0.112964  0  4.05368  0  0  -0.115586  0  4.075858  0  0  -0.101957  -0.111302  0  4.038849  0
C  C75  1  0.30917644  0.79865092  0.46725122  1  0  -0.095818  0  3.798948  0  0  -0.113087  0  4.053515  0  0  -0.115707  0  4.075694  0  0  -0.102054  -0.111429  0  4.03869  0
C  C76  1  0.79698602  0.56335062  0.44093775  1  0  -0.05163  0  3.789406  0  0  -0.063816  0  4.038162  0  0  -0.064988  0  4.060439  0  0  -0.092904  -0.062942  0  4.02318  0
C  C77  1  0.70300930  0.06335564  0.55905572  1  0  -0.051562  0  3.789374  0  0  -0.063728  0  4.038111  0  0  -0.064897  0  4.060403  0  0  -0.0928  -0.062857  0  4.023134  0
C  C78  1  0.20301046  0.43665655  0.55905785  1  0  -0.05176  0  3.789589  0  0  -0.063974  0  4.038351  0  0  -0.065146  0  4.060639  0  0  -0.092975  -0.063094  0  4.023357  0
C  C79  1  0.29698841  0.93664337  0.44094154  1  0  -0.051416  0  3.789137  0  0  -0.063592  0  4.037862  0  0  -0.064761  0  4.060148  0  0  -0.092783  -0.06272  0  4.02288  0
C  C80  1  0.85281282  0.51589375  0.36036434  1  0  -0.150746  0  3.741622  0  0  -0.171642  0  3.991455  0  0  -0.175239  0  4.011995  0  0  -0.094578  -0.169252  0  3.977842  0
C  C81  1  0.64718451  0.01589129  0.63962799  1  0  -0.150721  0  3.741603  0  0  -0.171674  0  3.991371  0  0  -0.175299  0  4.011907  0  0  -0.094591  -0.169266  0  3.977771  0
C  C82  1  0.14718734  0.48411137  0.63963624  1  0  -0.150679  0  3.741552  0  0  -0.171573  0  3.991354  0  0  -0.175171  0  4.011895  0  0  -0.094608  -0.169171  0  3.977754  0
C  C83  1  0.35281439  0.98410467  0.36036872  1  0  -0.150824  0  3.741835  0  0  -0.171732  0  3.991588  0  0  -0.175341  0  4.012131  0  0  -0.094638  -0.169321  0  3.977981  0
C  C84  1  0.87689334  0.79082741  0.41076576  1  0  -0.063235  0  3.806182  0  0  -0.077468  0  4.061545  0  0  -0.078708  0  4.083171  0  0  -0.095578  -0.076583  0  4.046827  0
C  C85  1  0.62309784  0.29082789  0.58923285  1  0  -0.063238  0  3.806071  0  0  -0.077491  0  4.061401  0  0  -0.078731  0  4.083025  0  0  -0.095579  -0.076605  0  4.046679  0
C  C86  1  0.12310800  0.20917873  0.58923354  1  0  -0.06306  0  3.806076  0  0  -0.077346  0  4.061452  0  0  -0.07858  0  4.083077  0  0  -0.095508  -0.076462  0  4.046736  0
C  C87  1  0.37689749  0.70917112  0.41076696  1  0  -0.063348  0  3.806295  0  0  -0.077591  0  4.061637  0  0  -0.078837  0  4.08327  0  0  -0.095609  -0.076704  0  4.046914  0
N  N88  1  0.98280605  0.55070631  0.22333223  1  0  -0.222088  0  3.355116  0  0  -0.133033  0  3.585196  0  0  -0.150973  0  3.607374  0  0  -0.315164  -0.120455  0  3.569513  0
N  N89  1  0.51719398  0.05069285  0.77666126  1  0  -0.221998  0  3.354847  0  0  -0.133088  0  3.585083  0  0  -0.151033  0  3.607232  0  0  -0.31522  -0.120507  0  3.56941  0
N  N90  1  0.01719893  0.44929474  0.77666839  1  0  -0.222101  0  3.354971  0  0  -0.132951  0  3.584977  0  0  -0.150883  0  3.607153  0  0  -0.31518  -0.12038  0  3.569314  0
N  N91  1  0.48280616  0.94930413  0.22333785  1  0  -0.221883  0  3.354863  0  0  -0.132968  0  3.585081  0  0  -0.150913  0  3.607232  0  0  -0.315233  -0.120388  0  3.569404  0
O  O92  1  0.75214720  0.62288508  0.03808749  1  0  -0.623067  0  1.988026  0  0  -0.557956  0  2.239793  0  0  -0.586448  0  2.229208  0  0  -0.315899  -0.537824  0  2.246436  0
O  O93  1  0.74785806  0.12288911  0.96189363  1  0  -0.623081  0  1.987983  0  0  -0.557938  0  2.239634  0  0  -0.586425  0  2.229035  0  0  -0.315844  -0.537803  0  2.246274  0
O  O94  1  0.24785898  0.37711495  0.96191332  1  0  -0.623089  0  1.987995  0  0  -0.557985  0  2.239781  0  0  -0.586477  0  2.229195  0  0  -0.315947  -0.537851  0  2.246424  0
O  O95  1  0.25214210  0.87710888  0.03810695  1  0  -0.623105  0  1.988048  0  0  -0.557964  0  2.239718  0  0  -0.586455  0  2.229126  0  0  -0.315845  -0.537831  0  2.246359  0
O  O96  1  0.53915534  0.46982039  0.15638728  1  0  -0.837574  0  1.848791  0  0  -0.777224  0  2.054049  0  0  -0.800579  0  2.021411  0  0  -0.590101  -0.760582  0  2.077321  0
O  O97  1  0.96086865  0.96980485  0.84361728  1  0  -0.83731  0  1.848899  0  0  -0.776984  0  2.0542  0  0  -0.80034  0  2.021576  0  0  -0.589985  -0.760351  0  2.077485  0
O  O98  1  0.46084480  0.53017964  0.84361183  1  0  -0.837545  0  1.848805  0  0  -0.777201  0  2.054082  0  0  -0.800555  0  2.021438  0  0  -0.59011  -0.760553  0  2.077335  0
O  O99  1  0.03912909  0.03019519  0.15638218  1  0  -0.837418  0  1.848844  0  0  -0.777079  0  2.054093  0  0  -0.800436  0  2.021469  0  0  -0.590031  -0.760444  0  2.07738  0
O  O100  1  0.02132353  0.32205041  0.10884640  1  0  -0.65498  0  2.049178  0  0  -0.58569  0  2.299799  0  0  -0.614964  0  2.289295  0  0  -0.318938  -0.564732  0  2.306355  0
O  O101  1  0.47868422  0.82205939  0.89116469  1  0  -0.654937  0  2.049068  0  0  -0.58553  0  2.29961  0  0  -0.614804  0  2.28911  0  0  -0.318846  -0.564575  0  2.306163  0
O  O102  1  0.97867429  0.67794351  0.89115893  1  0  -0.65502  0  2.04921  0  0  -0.585688  0  2.299785  0  0  -0.614961  0  2.289278  0  0  -0.318961  -0.56473  0  2.306344  0
O  O103  1  0.52131112  0.17793758  0.10883511  1  0  -0.654961  0  2.049105  0  0  -0.58556  0  2.299626  0  0  -0.61483  0  2.289125  0  0  -0.318861  -0.564605  0  2.306179  0
O  O104  1  0.26784305  0.27933433  0.21141072  1  0  -0.645331  0  1.960961  0  0  -0.579345  0  2.202689  0  0  -0.609045  0  2.191643  0  0  -0.33219  -0.558235  0  2.209242  0
O  O105  1  0.23216799  0.77931754  0.78860237  1  0  -0.645305  0  1.960807  0  0  -0.57926  0  2.202598  0  0  -0.608968  0  2.191575  0  0  -0.332172  -0.558162  0  2.209174  0
O  O106  1  0.73215716  0.72066264  0.78859353  1  0  -0.645334  0  1.960981  0  0  -0.579334  0  2.20271  0  0  -0.609033  0  2.191665  0  0  -0.332187  -0.558225  0  2.209267  0
O  O107  1  0.76782615  0.22068249  0.21139871  1  0  -0.645361  0  1.960885  0  0  -0.579342  0  2.202676  0  0  -0.609057  0  2.191667  0  0  -0.332183  -0.558248  0  2.209261  0
O  O108  1  0.86055176  0.83197123  0.05564553  1  0  -0.658382  0  2.069445  0  0  -0.578146  0  2.320584  0  0  -0.608471  0  2.307067  0  0  -0.317638  -0.556984  0  2.329509  0
O  O109  1  0.63942885  0.33196447  0.94434845  1  0  -0.658511  0  2.069454  0  0  -0.578307  0  2.320534  0  0  -0.608665  0  2.307038  0  0  -0.317721  -0.55716  0  2.329472  0
O  O110  1  0.13945200  0.16802676  0.94435416  1  0  -0.658415  0  2.069491  0  0  -0.578135  0  2.320578  0  0  -0.608457  0  2.307055  0  0  -0.317607  -0.556975  0  2.329506  0
O  O111  1  0.36057370  0.66803352  0.05565105  1  0  -0.658438  0  2.069362  0  0  -0.578276  0  2.320524  0  0  -0.608634  0  2.307031  0  0  -0.317723  -0.55713  0  2.329463  0
