# generated using pymatgen
data_CuH13C17N3O4
_symmetry_space_group_name_H-M   'P 1'
_cell_length_a   14.64139128
_cell_length_b   17.79297959
_cell_length_c   17.80112188
_cell_angle_alpha   80.26234425
_cell_angle_beta   65.71892323
_cell_angle_gamma   65.71410344
_symmetry_Int_Tables_number   1
_chemical_formula_structural   CuH13C17N3O4
_chemical_formula_sum   'Cu8 H104 C136 N24 O32'
_cell_volume   3853.12022148
_cell_formula_units_Z   8
loop_
 _symmetry_equiv_pos_site_id
 _symmetry_equiv_pos_as_xyz
  1  'x, y, z'
loop_
 _atom_site_type_symbol
 _atom_site_label
 _atom_site_symmetry_multiplicity
 _atom_site_fract_x
 _atom_site_fract_y
 _atom_site_fract_z
 _atom_site_occupancy
 _atom_site_pbe_bader_charge
 _atom_site_pbe_bader_spin_density
 _atom_site_pbe_cm5_charge
 _atom_site_pbe_ddec_charge
 _atom_site_pbe_ddec_spin_density
 _atom_site_pbe_ddec_sum_bond_order
 _atom_site_pbe_magmom
Cu  Cu0  1  0.66969148  0.76631586  0.55614046  1  1.095197  0.545226  0.737016  0.827577  0.706503  2.277566  0.545
Cu  Cu1  1  0.49204503  0.73375326  0.94395499  1  1.095258  0.54548  0.737338  0.828216  0.707593  2.276505  0.545
Cu  Cu2  1  0.22591918  0.44392329  0.26623865  1  1.092957  0.545279  0.736409  0.826831  0.706851  2.277288  0.545
Cu  Cu3  1  0.43601557  0.05616097  0.23363926  1  1.094887  0.545234  0.736709  0.827588  0.707134  2.275703  0.545
Cu  Cu4  1  0.33030918  0.23368281  0.44385903  1  1.095194  0.545223  0.737012  0.827556  0.706499  2.27757  0.545
Cu  Cu5  1  0.50795508  0.26624541  0.05604506  1  1.095253  0.545478  0.737324  0.82818  0.707592  2.276577  0.545
Cu  Cu6  1  0.77408186  0.55607662  0.73376135  1  1.092919  0.545275  0.736441  0.826851  0.706847  2.277257  0.545
Cu  Cu7  1  0.56398263  0.94383955  0.76636028  1  1.094903  0.545238  0.73673  0.827629  0.70714  2.27567  0.545
H  H8  1  0.45219547  0.71005029  0.46787215  1  0.102654  0.000715  0.104178  0.10331  0.000603  1.055279  0.0
H  H9  1  0.13002035  0.79002208  0.03211872  1  0.086484  0.000715  0.103662  0.102405  0.000601  1.056303  0.0
H  H10  1  0.92033483  0.53232719  0.20978456  1  0.0856  0.000725  0.103976  0.102774  0.000606  1.055696  0.0
H  H11  1  0.16230587  0.96780030  0.28989005  1  0.084451  0.000709  0.103947  0.103337  0.000602  1.055039  0.0
H  H12  1  0.54780534  0.28994838  0.53213168  1  0.102649  0.000715  0.104183  0.103293  0.000603  1.055237  0.0
H  H13  1  0.86997799  0.20997844  0.96788516  1  0.086683  0.000715  0.103606  0.102314  0.000601  1.056394  0.0
H  H14  1  0.07966621  0.46767272  0.79021544  1  0.085605  0.000725  0.103944  0.102699  0.000606  1.055736  0.0
H  H15  1  0.83769591  0.03219713  0.71010970  1  0.08449  0.000709  0.103986  0.103382  0.000602  1.05501  0.0
H  H16  1  0.53996533  0.52328171  0.68883736  1  0.108828  0.000337  0.108427  0.11537  0.000324  1.005362  0.0
H  H17  1  0.25213330  0.97673939  0.81124079  1  0.130401  0.000331  0.108242  0.114822  0.000328  1.00736  0.0
H  H18  1  0.22892076  0.31104757  0.02332759  1  0.098971  0.000347  0.108268  0.11487  0.000327  1.007195  0.0
H  H19  1  0.06335921  0.18874448  0.47668019  1  0.107659  0.000335  0.108386  0.115402  0.000325  1.00604  0.0
H  H20  1  0.46004045  0.47671449  0.31115902  1  0.108845  0.000337  0.108445  0.115356  0.000324  1.005326  0.0
H  H21  1  0.74786207  0.02326113  0.18876155  1  0.130325  0.000332  0.108232  0.114799  0.000328  1.007345  0.0
H  H22  1  0.77108062  0.68895603  0.97667098  1  0.098826  0.000347  0.108271  0.114865  0.000327  1.007211  0.0
H  H23  1  0.93663774  0.81125542  0.52331940  1  0.108109  0.000335  0.108429  0.11551  0.000325  1.005992  0.0
H  H24  1  0.79862979  0.05432166  0.50847295  1  0.039762  1.4e-05  0.094511  0.087929  1e-06  1.024553  0.0
H  H25  1  0.86117800  0.44559822  0.99165900  1  0.037732  1.4e-05  0.094802  0.088505  1e-06  1.023548  0.0
H  H26  1  0.30673412  0.49168644  0.55432373  1  0.03834  1.4e-05  0.095524  0.089112  1e-06  1.02463  0.0
H  H27  1  0.85272374  0.00847490  0.94580691  1  0.052157  1.4e-05  0.095602  0.090248  1e-06  1.024333  0.0
H  H28  1  0.20136965  0.94567947  0.49152654  1  0.039744  1.4e-05  0.094502  0.087914  1e-06  1.024572  0.0
H  H29  1  0.13881992  0.55440045  0.00834248  1  0.037489  1.4e-05  0.094804  0.088517  1e-06  1.023528  0.0
H  H30  1  0.69326930  0.50831223  0.44567377  1  0.038374  1.4e-05  0.095548  0.089172  1e-06  1.024537  0.0
H  H31  1  0.14727807  0.99152685  0.05419141  1  0.052205  1.4e-05  0.095603  0.090268  1e-06  1.024311  0.0
H  H32  1  0.71742124  0.95787169  0.50750672  1  0.134341  0.000404  0.102431  0.122585  0.000345  1.054119  0.0
H  H33  1  0.68258972  0.54220255  0.99275274  1  0.104549  0.000432  0.101867  0.121835  0.000347  1.056141  0.0
H  H34  1  0.22473321  0.49265164  0.45778049  1  0.100555  0.000435  0.101879  0.122424  0.000346  1.054837  0.0
H  H35  1  0.67517196  0.00741489  0.04230267  1  0.1411  0.000403  0.101869  0.122455  0.000346  1.054898  0.0
H  H36  1  0.28257676  0.04213006  0.49249389  1  0.134311  0.000404  0.102422  0.122551  0.000345  1.054172  0.0
H  H37  1  0.31740839  0.45779489  0.00724766  1  0.104506  0.000432  0.101854  0.12181  0.000347  1.056091  0.0
H  H38  1  0.77526942  0.50735073  0.54221671  1  0.100586  0.000435  0.101897  0.122482  0.000346  1.054758  0.0
H  H39  1  0.32483242  0.99258439  0.95769805  1  0.14107  0.000403  0.101878  0.122477  0.000346  1.054931  0.0
H  H40  1  0.60826002  0.10288361  0.31881450  1  0.106977  7.5e-05  0.106754  0.121532  1.7e-05  1.031883  0.0
H  H41  1  0.52962323  0.39693643  0.18100586  1  0.102803  7.5e-05  0.10677  0.122146  1.6e-05  1.032729  0.0
H  H42  1  0.92640347  0.68085160  0.60308398  1  0.101986  7.3e-05  0.106986  0.122663  1.3e-05  1.031113  0.0
H  H43  1  0.71034330  0.81934355  0.89680084  1  0.116287  7.2e-05  0.107121  0.122897  1.1e-05  1.030957  0.0
H  H44  1  0.39173916  0.89711691  0.68118554  1  0.106934  7.5e-05  0.106752  0.121556  1.7e-05  1.03183  0.0
H  H45  1  0.47037638  0.60306223  0.81899393  1  0.102835  7.5e-05  0.10677  0.122145  1.6e-05  1.032758  0.0
H  H46  1  0.07359988  0.31915015  0.39691428  1  0.101966  7.3e-05  0.106973  0.122628  1.3e-05  1.03114  0.0
H  H47  1  0.28965916  0.18065759  0.10319936  1  0.116216  7.2e-05  0.107145  0.122921  1.1e-05  1.030949  0.0
H  H48  1  0.38482006  0.59706900  0.51386929  1  0.086705  0.001045  0.100304  0.096112  0.000524  1.017544  0.001
H  H49  1  0.99572651  0.90299270  0.98597622  1  0.090368  0.001042  0.100078  0.094821  0.000524  1.019298  0.001
H  H50  1  0.89891966  0.48616165  0.09692007  1  0.101198  0.001039  0.099759  0.095797  0.000526  1.019407  0.001
H  H51  1  0.98194437  0.01385460  0.40276297  1  0.086596  0.001044  0.100095  0.095764  0.000524  1.019198  0.001
H  H52  1  0.61517590  0.40293275  0.48613112  1  0.086634  0.001045  0.100329  0.096009  0.000524  1.01744  0.001
H  H53  1  0.00427225  0.09700782  0.01402873  1  0.090176  0.001042  0.100099  0.094822  0.000524  1.019295  0.001
H  H54  1  0.10108166  0.51384010  0.90307799  1  0.101189  0.001039  0.099739  0.095759  0.000525  1.019437  0.001
H  H55  1  0.01805591  0.98614160  0.59723739  1  0.087088  0.001044  0.100106  0.095803  0.000524  1.019179  0.001
H  H56  1  0.78801632  0.17594051  0.41300977  1  0.051074  5.4e-05  0.097646  0.096283  1.7e-05  1.009019  0.0
H  H57  1  0.87660885  0.32383547  0.08693422  1  0.075455  5.4e-05  0.097279  0.095413  1.6e-05  1.009235  0.0
H  H58  1  0.20035738  0.58695379  0.67605807  1  0.06775  5.4e-05  0.09657  0.094248  1.6e-05  1.009564  0.0
H  H59  1  0.96337498  0.91325113  0.82399544  1  0.065575  5.4e-05  0.096682  0.095139  1.7e-05  1.008832  0.0
H  H60  1  0.21198455  0.82406000  0.58698859  1  0.051081  5.4e-05  0.097643  0.096261  1.7e-05  1.009034  0.0
H  H61  1  0.12338974  0.67616381  0.91306777  1  0.075439  5.4e-05  0.097275  0.095406  1.6e-05  1.009235  0.0
H  H62  1  0.79964616  0.41304550  0.32394051  1  0.067753  5.4e-05  0.09658  0.094258  1.6e-05  1.009601  0.0
H  H63  1  0.03662635  0.08675185  0.17600124  1  0.065682  5.4e-05  0.096707  0.095127  1.7e-05  1.00884  0.0
H  H64  1  0.42771184  0.50185123  0.62673742  1  0.059369  -2e-05  0.100909  0.098938  -2.8e-05  0.998671  0.0
H  H65  1  0.05643687  0.99820836  0.87319623  1  0.05815  -2e-05  0.102012  0.100464  -2.9e-05  0.998456  0.0
H  H66  1  0.05457832  0.37319736  0.00190494  1  0.054231  -2e-05  0.100654  0.098641  -2.8e-05  0.999546  0.0
H  H67  1  0.92972010  0.12665214  0.49801042  1  0.062485  -2.1e-05  0.101245  0.10019  -2.9e-05  0.999107  0.0
H  H68  1  0.57228838  0.49814620  0.37326237  1  0.059435  -2e-05  0.100952  0.098993  -2.8e-05  0.998637  0.0
H  H69  1  0.94355855  0.00179278  0.12680800  1  0.057801  -2e-05  0.102018  0.10048  -2.9e-05  0.998474  0.0
H  H70  1  0.94542482  0.62680624  0.99809113  1  0.054327  -2e-05  0.100673  0.09864  -2.8e-05  0.99957  0.0
H  H71  1  0.07027778  0.87334592  0.50198916  1  0.062494  -2.1e-05  0.101251  0.100199  -2.9e-05  0.999116  0.0
H  H72  1  0.69101883  0.19966550  0.31887933  1  0.061063  4.5e-05  0.099925  0.0969  2.8e-05  0.996606  0.0
H  H73  1  0.70922078  0.30003254  0.18091860  1  0.06051  4.5e-05  0.099611  0.096674  2.8e-05  0.996694  0.0
H  H74  1  0.00915602  0.68078749  0.69988885  1  0.065921  4.5e-05  0.099518  0.096921  2.8e-05  0.99596  0.0
H  H75  1  0.88982920  0.81941469  0.80007503  1  0.032965  4.6e-05  0.099599  0.097415  2.7e-05  0.996467  0.0
H  H76  1  0.30898148  0.80033501  0.68111959  1  0.061093  4.5e-05  0.099907  0.096881  2.8e-05  0.996666  0.0
H  H77  1  0.29077777  0.69996798  0.81908283  1  0.060529  4.5e-05  0.099622  0.096671  2.8e-05  0.996731  0.0
H  H78  1  0.99084770  0.31921241  0.30010998  1  0.06574  4.5e-05  0.099533  0.096979  2.8e-05  0.995955  0.0
H  H79  1  0.11017124  0.18058767  0.19992359  1  0.033033  4.6e-05  0.099598  0.097402  2.7e-05  0.996471  0.0
H  H80  1  0.39022933  0.83620051  0.39172835  1  0.067297  0.000207  0.100212  0.150875  0.000121  1.006589  0.0
H  H81  1  0.11814563  0.66375608  0.10849259  1  0.064412  0.000207  0.100295  0.151545  0.000119  1.005687  0.0
H  H82  1  0.78198371  0.60843930  0.33612172  1  0.070145  0.000205  0.100447  0.151707  0.000119  1.005404  0.0
H  H83  1  0.22668025  0.89136955  0.16395253  1  0.069152  0.000206  0.09997  0.151049  0.00012  1.00623  0.0
H  H84  1  0.60976988  0.16380247  0.60827491  1  0.067347  0.000207  0.100227  0.150881  0.000121  1.006607  0.0
H  H85  1  0.88185410  0.33624321  0.89150827  1  0.064654  0.000207  0.10031  0.151572  0.000119  1.005667  0.0
H  H86  1  0.21801553  0.39155999  0.66387889  1  0.070131  0.000205  0.100458  0.151737  0.000119  1.005365  0.0
H  H87  1  0.77331949  0.10863097  0.83604696  1  0.069187  0.000206  0.099973  0.151061  0.00012  1.006186  0.0
H  H88  1  0.52031188  0.76780608  0.33102859  1  0.0732  0.000416  0.099653  0.148732  0.000291  0.993234  0.0
H  H89  1  0.11898633  0.73225321  0.16917076  1  0.057046  0.000421  0.099722  0.149097  0.000289  0.992408  0.0
H  H90  1  0.85128372  0.66916752  0.26770464  1  0.056745  0.000424  0.099666  0.14854  0.000291  0.993543  0.0
H  H91  1  0.28847702  0.83073417  0.23230574  1  0.058421  0.000428  0.10023  0.149987  0.000291  0.992136  0.0
H  H92  1  0.47968587  0.23219506  0.66897258  1  0.073103  0.000416  0.099677  0.148772  0.000291  0.993368  0.0
H  H93  1  0.88101210  0.26774669  0.83082959  1  0.057019  0.000421  0.099706  0.149067  0.000289  0.992421  0.0
H  H94  1  0.14871587  0.33083177  0.73229786  1  0.056704  0.000424  0.099658  0.148545  0.000291  0.993527  0.0
H  H95  1  0.71152429  0.16926758  0.76769232  1  0.058375  0.000428  0.100264  0.150048  0.000291  0.992126  0.0
H  H96  1  0.44911393  0.85794857  0.28454471  1  0.052163  0.000259  0.092142  0.140739  3.1e-05  1.035609  0.0
H  H97  1  0.09163235  0.64206096  0.21566112  1  0.055071  0.000254  0.091866  0.140098  2.9e-05  1.037717  0.0
H  H98  1  0.73366628  0.71567918  0.35783825  1  0.052022  0.000256  0.091727  0.140585  2.9e-05  1.037406  0.0
H  H99  1  0.30744940  0.78416349  0.14223031  1  0.055875  0.000255  0.091823  0.140877  2.8e-05  1.036673  0.0
H  H100  1  0.55088127  0.14205442  0.71545732  1  0.052007  0.000259  0.092131  0.140762  3.1e-05  1.035613  0.0
H  H101  1  0.90836632  0.35793833  0.78434005  1  0.055116  0.000254  0.091888  0.140123  2.9e-05  1.037698  0.0
H  H102  1  0.26633277  0.28431949  0.64216210  1  0.052011  0.000256  0.091718  0.14059  2.9e-05  1.037318  0.0
H  H103  1  0.69255042  0.21583702  0.85776836  1  0.055863  0.000255  0.091809  0.140857  2.8e-05  1.036734  0.0
H  H104  1  0.57505821  0.98585132  0.36347802  1  0.535439  0.000586  0.310884  0.285024  0.000409  0.990202  0.0
H  H105  1  0.42418947  0.51426885  0.13665480  1  0.530116  0.00059  0.311895  0.286846  0.000407  0.990032  0.0
H  H106  1  0.93832478  0.63656038  0.48569267  1  0.542339  0.000583  0.31149  0.286247  0.000408  0.990431  0.0
H  H107  1  0.56068375  0.86349586  0.01419843  1  0.52785  0.000586  0.311902  0.287154  0.000407  0.987796  0.0
H  H108  1  0.42494227  0.01414858  0.63652254  1  0.535421  0.000586  0.310872  0.285024  0.000409  0.990194  0.0
H  H109  1  0.57580901  0.48572982  0.86334612  1  0.530145  0.00059  0.311913  0.286824  0.000407  0.99001  0.0
H  H110  1  0.06167384  0.36344014  0.51430794  1  0.542354  0.000583  0.311502  0.286254  0.000408  0.990425  0.0
H  H111  1  0.43931891  0.13650405  0.98580070  1  0.528055  0.000586  0.311905  0.287156  0.000407  0.987774  0.0
C  C112  1  0.53483287  0.68102539  0.55071644  1  0.318932  0.009709  0.096488  0.183567  0.007856  3.986706  0.009
C  C113  1  0.26651398  0.81902413  0.94933646  1  0.321676  0.009761  0.096052  0.182115  0.007841  3.985917  0.009
C  C114  1  0.08575628  0.44936361  0.18088491  1  0.298687  0.0098  0.095126  0.179491  0.007848  3.984377  0.009
C  C115  1  0.21596184  0.05064062  0.31895623  1  0.334699  0.009725  0.095853  0.183069  0.007846  3.985538  0.009
C  C116  1  0.46516942  0.31897328  0.44928218  1  0.319152  0.00971  0.0965  0.18355  0.007857  3.986976  0.009
C  C117  1  0.73348375  0.18097577  0.05066609  1  0.321562  0.009761  0.096034  0.182027  0.007841  3.985803  0.009
C  C118  1  0.91424414  0.55063752  0.81911509  1  0.298517  0.009801  0.095108  0.179477  0.007849  3.984434  0.009
C  C119  1  0.78403574  0.94936113  0.68104331  1  0.334809  0.009724  0.095871  0.183038  0.007846  3.985437  0.009
C  C120  1  0.65822200  0.02357052  0.41252515  1  0.315897  0.000416  0.095815  0.245215  0.000263  4.002251  0.0
C  C121  1  0.59409948  0.47637692  0.08751839  1  0.30039  0.000422  0.095447  0.248402  0.000263  3.999087  0.0
C  C122  1  0.07039718  0.58747100  0.52353514  1  0.297247  0.000421  0.095448  0.247144  0.000263  4.002766  0.0
C  C123  1  0.68138025  0.91273336  0.97636775  1  0.341225  0.000412  0.095263  0.246115  0.000262  4.002306  0.0
C  C124  1  0.34177613  0.97643000  0.58747520  1  0.315889  0.000416  0.095897  0.245293  0.000263  4.00223  0.0
C  C125  1  0.40589858  0.52362175  0.91248145  1  0.300244  0.000422  0.095444  0.248355  0.000263  3.999093  0.0
C  C126  1  0.92960350  0.41253075  0.47646430  1  0.297195  0.000421  0.095362  0.247039  0.000263  4.002895  0.0
C  C127  1  0.31862248  0.08726654  0.02363057  1  0.341042  0.000413  0.095328  0.246272  0.000262  4.002244  0.0
C  C128  1  0.55686776  0.85595073  0.42522884  1  0.517736  3.8e-05  0.072739  -0.153397  -0.000432  4.015955  0.002
C  C129  1  0.33794277  0.64422591  0.07500317  1  0.48754  9.3e-05  0.07142  -0.154985  -0.000421  4.015394  0.002
C  C130  1  0.98215015  0.57495555  0.35574547  1  0.517469  -1.5e-05  0.072668  -0.153512  -0.000431  4.016481  0.002
C  C131  1  0.41291469  0.92507828  0.14414491  1  0.53308  -3.9e-05  0.073194  -0.153565  -0.000422  4.015244  0.002
C  C132  1  0.44313531  0.14404793  0.57477275  1  0.517852  3.6e-05  0.072694  -0.15349  -0.000433  4.016016  0.002
C  C133  1  0.66205472  0.35577460  0.92499856  1  0.487329  9.3e-05  0.071457  -0.154967  -0.000421  4.015414  0.002
C  C134  1  0.01784821  0.42504435  0.64425570  1  0.517288  -1.6e-05  0.072639  -0.153554  -0.000431  4.016509  0.002
C  C135  1  0.58708618  0.07492224  0.85585346  1  0.533188  -3.9e-05  0.073122  -0.153696  -0.000421  4.015397  0.002
C  C136  1  0.51447862  0.88375207  0.35954662  1  0.873893  0.000111  0.153807  0.448489  -0.000356  3.96429  0.001
C  C137  1  0.25773634  0.61639649  0.14071052  1  0.882652  8.5e-05  0.154702  0.45015  -0.000377  3.964643  0.001
C  C138  1  0.87409914  0.64069052  0.38353337  1  0.862295  9.2e-05  0.153779  0.449747  -0.00037  3.965799  0.001
C  C139  1  0.39842369  0.85930906  0.11640062  1  0.864085  9e-05  0.153626  0.449118  -0.000374  3.964441  0.001
C  C140  1  0.48552055  0.11624721  0.64045481  1  0.873952  0.00011  0.153897  0.44865  -0.000356  3.964253  0.001
C  C141  1  0.74226195  0.38360342  0.85929147  1  0.882621  8.5e-05  0.154741  0.450178  -0.000377  3.964636  0.001
C  C142  1  0.12589871  0.35930815  0.61646892  1  0.8623  9.3e-05  0.153768  0.449716  -0.000369  3.965872  0.001
C  C143  1  0.60157718  0.14069146  0.88359775  1  0.864012  9e-05  0.153635  0.449138  -0.000374  3.964411  0.001
C  C144  1  0.55890333  0.62755639  0.61460256  1  -0.015591  0.00611  -0.019839  -0.129722  0.003969  3.928069  0.005
C  C145  1  0.30108783  0.87245118  0.88542701  1  -0.058483  0.006112  -0.020191  -0.130467  0.003964  3.931077  0.005
C  C146  1  0.17369025  0.38539109  0.12749762  1  0.028259  0.006106  -0.020835  -0.131152  0.003991  3.930108  0.005
C  C147  1  0.18658389  0.11452802  0.37241677  1  -0.026041  0.006155  -0.019767  -0.130953  0.00398  3.928955  0.005
C  C148  1  0.44110026  0.37243981  0.38539525  1  -0.01606  0.00611  -0.019795  -0.129733  0.003969  3.928318  0.005
C  C149  1  0.69890719  0.12755119  0.11457477  1  -0.05839  0.006112  -0.020214  -0.130463  0.003964  3.931067  0.005
C  C150  1  0.82631068  0.61461127  0.87250126  1  0.02845  0.006105  -0.020855  -0.131176  0.003991  3.930117  0.005
C  C151  1  0.81341269  0.88547065  0.62758231  1  -0.026075  0.006156  -0.019742  -0.130935  0.00398  3.928835  0.005
C  C152  1  0.47130762  0.66817943  0.51606413  1  -0.043418  0.007159  -0.096878  -0.173117  0.004926  3.986509  0.005
C  C153  1  0.15547577  0.83186533  0.98390470  1  0.019744  0.007092  -0.097626  -0.174474  0.004933  3.989094  0.005
C  C154  1  0.98759048  0.48404061  0.16801069  1  -0.050863  0.007142  -0.097323  -0.172743  0.004942  3.986897  0.005
C  C155  1  0.13955901  0.01601419  0.33173463  1  -0.03064  0.007117  -0.097565  -0.174995  0.00494  3.988789  0.005
C  C156  1  0.52869336  0.33181863  0.48393535  1  -0.043417  0.00716  -0.096948  -0.173229  0.004926  3.98644  0.005
C  C157  1  0.84452412  0.16813519  0.01609912  1  0.019298  0.007091  -0.097589  -0.174378  0.004932  3.989129  0.005
C  C158  1  0.01240797  0.51596052  0.83198829  1  -0.050852  0.007141  -0.097276  -0.172636  0.004941  3.986803  0.005
C  C159  1  0.86044086  0.98398510  0.66826460  1  -0.030713  0.007117  -0.097567  -0.174973  0.00494  3.988743  0.005
C  C160  1  0.62889884  0.62930409  0.65547637  1  1.542198  -0.001886  0.210271  0.577633  -0.001853  4.166128  -0.004
C  C161  1  0.41371072  0.87065580  0.84448620  1  1.541618  -0.001863  0.210416  0.577374  -0.001875  4.166056  -0.004
C  C162  1  0.28453942  0.34444979  0.12928944  1  1.535352  -0.001823  0.210476  0.578065  -0.001848  4.166499  -0.004
C  C163  1  0.25827533  0.15548455  0.37065332  1  1.551201  -0.001894  0.210674  0.579733  -0.001861  4.166022  -0.004
C  C164  1  0.37110469  0.37069211  0.34452226  1  1.54222  -0.001886  0.210181  0.577582  -0.001853  4.16617  -0.004
C  C165  1  0.58628821  0.12934411  0.15551441  1  1.541581  -0.001864  0.210435  0.577423  -0.001876  4.166023  -0.004
C  C166  1  0.71546256  0.65554950  0.87070918  1  1.535267  -0.001824  0.210506  0.578118  -0.001848  4.166301  -0.004
C  C167  1  0.74172010  0.84451474  0.62934959  1  1.550818  -0.001895  0.210616  0.579737  -0.001861  4.165897  -0.004
C  C168  1  0.51882010  0.56388652  0.64046653  1  -0.039447  0.000255  -0.082361  -0.07867  6.7e-05  3.985674  0.0
C  C169  1  0.22321082  0.93613091  0.85957684  1  -0.039519  0.000257  -0.083154  -0.078673  6.9e-05  3.988909  0.0
C  C170  1  0.15946011  0.35947515  0.06387954  1  -0.028874  0.000264  -0.082137  -0.077403  7.2e-05  3.987513  0.0
C  C171  1  0.08283663  0.14036874  0.43607144  1  -0.055701  0.00026  -0.081912  -0.077521  6.6e-05  3.987006  0.0
C  C172  1  0.48118536  0.43610721  0.35952989  1  -0.039318  0.000255  -0.082429  -0.078634  6.7e-05  3.98561  0.0
C  C173  1  0.77678809  0.06386776  0.14042515  1  -0.039557  0.000257  -0.083127  -0.078614  6.9e-05  3.988956  0.0
C  C174  1  0.84054188  0.64052722  0.93611903  1  -0.028644  0.000264  -0.082131  -0.077411  7.2e-05  3.987513  0.0
C  C175  1  0.91716232  0.85963055  0.56392646  1  -0.056058  0.00026  -0.081961  -0.077672  6.6e-05  3.986936  0.0
C  C176  1  0.75738809  0.06561664  0.46622324  1  -0.004167  0.000466  -0.098478  -0.08081  0.000274  4.059644  0.0
C  C177  1  0.78896951  0.43428265  0.03387334  1  -0.032804  0.000474  -0.099157  -0.081909  0.000276  4.062268  0.0
C  C178  1  0.22323283  0.53390777  0.56558578  1  -0.071487  0.000473  -0.099187  -0.080934  0.000276  4.062437  0.0
C  C179  1  0.82269655  0.96629038  0.93444016  1  -0.038588  0.000473  -0.098412  -0.082304  0.000276  4.0585  0.0
C  C180  1  0.24261078  0.93438450  0.53377681  1  -0.004236  0.000465  -0.098512  -0.080898  0.000274  4.059663  0.0
C  C181  1  0.21102886  0.56571540  0.96612650  1  -0.032718  0.000474  -0.099209  -0.081991  0.000276  4.062251  0.0
C  C182  1  0.77677211  0.46609337  0.43440973  1  -0.071454  0.000473  -0.099276  -0.081038  0.000276  4.062457  0.0
C  C183  1  0.17730446  0.03371199  0.06555790  1  -0.038437  0.000473  -0.098429  -0.082367  0.000276  4.058498  0.0
C  C184  1  0.60870527  0.90010611  0.44671566  1  1.319378  0.001631  0.234498  0.460646  0.000877  4.102379  0.0
C  C185  1  0.45539723  0.60007862  0.05352136  1  1.348166  0.001593  0.235049  0.461348  0.000848  4.105398  0.0
C  C186  1  0.05538700  0.55339540  0.39994766  1  1.310258  0.001663  0.236022  0.464011  0.000858  4.105618  0.0
C  C187  1  0.50875521  0.94669290  0.09994532  1  1.327083  0.001692  0.236785  0.463442  0.000854  4.103623  0.0
C  C188  1  0.39129819  0.09989318  0.55328373  1  1.319031  0.001632  0.234504  0.460696  0.000877  4.102152  0.0
C  C189  1  0.54460057  0.39992128  0.94648037  1  1.348451  0.001593  0.234994  0.461243  0.000848  4.105526  0.0
C  C190  1  0.94461262  0.44660635  0.60005209  1  1.310084  0.001664  0.236051  0.46407  0.000858  4.105554  0.0
C  C191  1  0.49124533  0.05330700  0.90005442  1  1.327114  0.001691  0.236795  0.463466  0.000855  4.103708  0.0
C  C192  1  0.71170272  0.01049727  0.46640693  1  -0.04081  0.000392  -0.104008  -0.185117  0.000126  3.946834  0.0
C  C193  1  0.68839579  0.48949119  0.03375130  1  -0.00752  0.000355  -0.10353  -0.185353  0.000119  3.950577  0.0
C  C194  1  0.17783501  0.53374054  0.51041754  1  -0.008943  0.000357  -0.103708  -0.186646  0.000123  3.950596  0.0
C  C195  1  0.72195671  0.96644382  0.98957583  1  -0.050529  0.000398  -0.105132  -0.187926  0.000127  3.947339  0.0
C  C196  1  0.28829728  0.98950386  0.53359200  1  -0.040792  0.000392  -0.103963  -0.184978  0.000126  3.94669  0.0
C  C197  1  0.31160440  0.51050562  0.96624660  1  -0.007325  0.000355  -0.103553  -0.185356  0.000119  3.950433  0.0
C  C198  1  0.82216942  0.46626244  0.48957904  1  -0.008926  0.000357  -0.103625  -0.1866  0.000123  3.950674  0.0
C  C199  1  0.27804668  0.03355547  0.01042438  1  -0.050372  0.000397  -0.105161  -0.187998  0.000126  3.947448  0.0
C  C200  1  0.65066874  0.09263753  0.35994414  1  -0.045471  -3.9e-05  -0.09741  -0.188494  -0.000234  3.955622  0.0
C  C201  1  0.60294334  0.40718050  0.13993806  1  -0.004941  -6e-05  -0.096424  -0.190482  -0.000246  3.955828  0.0
C  C202  1  0.01002277  0.63985567  0.59274067  1  -0.023246  -5.7e-05  -0.097746  -0.19089  -0.000242  3.955102  0.0
C  C203  1  0.74257562  0.86039622  0.90714109  1  -0.063881  -4.4e-05  -0.097473  -0.189857  -0.000239  3.956073  0.0
C  C204  1  0.34933069  0.90736360  0.64005535  1  -0.045409  -3.9e-05  -0.097463  -0.188589  -0.000234  3.955708  0.0
C  C205  1  0.39705608  0.59281755  0.86006147  1  -0.004892  -6e-05  -0.096354  -0.190368  -0.000246  3.955773  0.0
C  C206  1  0.98997896  0.36014608  0.40725846  1  -0.023257  -5.7e-05  -0.097707  -0.190789  -0.000243  3.955037  0.0
C  C207  1  0.25742611  0.13960553  0.09285805  1  -0.063794  -4.4e-05  -0.097451  -0.189839  -0.000239  3.956001  0.0
C  C208  1  0.43329790  0.60494259  0.54252872  1  -0.058941  -0.000636  -0.087853  -0.060911  -0.000877  4.031986  -0.001
C  C209  1  0.08074404  0.89507665  0.95738479  1  -0.070679  -0.000621  -0.086582  -0.056486  -0.000875  4.034965  -0.001
C  C210  1  0.97602135  0.45750210  0.10486133  1  -0.06484  -0.00064  -0.086126  -0.0586  -0.000877  4.037321  -0.001
C  C211  1  0.03832624  0.04249079  0.39489792  1  -0.008922  -0.000652  -0.086705  -0.058188  -0.000879  4.035149  -0.001
C  C212  1  0.56670135  0.39505793  0.45747051  1  -0.058851  -0.000636  -0.087865  -0.060618  -0.000877  4.031743  -0.001
C  C213  1  0.91925235  0.10492634  0.04262128  1  -0.070064  -0.000622  -0.086571  -0.056459  -0.000874  4.035001  -0.001
C  C214  1  0.02398102  0.54249965  0.89513643  1  -0.06479  -0.00064  -0.086162  -0.058629  -0.000877  4.037226  -0.001
C  C215  1  0.96167342  0.95750664  0.60510243  1  -0.009338  -0.000652  -0.086706  -0.058216  -0.000879  4.035213  -0.001
C  C216  1  0.75127531  0.13354796  0.41325353  1  -0.077408  -0.000712  -0.103492  -0.113081  -0.000837  4.04238  0.0
C  C217  1  0.79774464  0.36625656  0.08670977  1  -0.078562  -0.000725  -0.102831  -0.111657  -0.000851  4.042106  0.0
C  C218  1  0.16395737  0.58674138  0.63361019  1  -0.017495  -0.00072  -0.102372  -0.110124  -0.000845  4.040337  0.0
C  C219  1  0.88427446  0.91350565  0.86637712  1  -0.079934  -0.000716  -0.101869  -0.108615  -0.000841  4.038622  0.0
C  C220  1  0.24872451  0.86645256  0.58674514  1  -0.077386  -0.000712  -0.103508  -0.113051  -0.000837  4.042407  0.0
C  C221  1  0.20225309  0.63374334  0.91329278  1  -0.078576  -0.000725  -0.102776  -0.111573  -0.000851  4.042109  0.0
C  C222  1  0.83604567  0.41325791  0.36638813  1  -0.017499  -0.00072  -0.102343  -0.11009  -0.000844  4.040431  0.0
C  C223  1  0.11572711  0.08649672  0.13362038  1  -0.080086  -0.000716  -0.101865  -0.108531  -0.000841  4.03857  0.0
C  C224  1  0.45676467  0.55204881  0.60560035  1  -0.04416  0.001439  -0.09703  -0.101587  0.000886  4.040127  0.001
C  C225  1  0.11446840  0.94798817  0.89437873  1  -0.060805  0.001434  -0.097473  -0.103885  0.000882  4.042572  0.001
C  C226  1  0.06254407  0.39435962  0.05204895  1  -0.044654  0.001446  -0.097739  -0.102938  0.00089  4.04267  0.001
C  C227  1  0.00894901  0.10552787  0.44784352  1  -0.082849  0.00146  -0.098639  -0.105302  0.000896  4.043189  0.001
C  C228  1  0.54323810  0.44794677  0.39439857  1  -0.044135  0.001439  -0.09707  -0.101718  0.000886  4.040105  0.001
C  C229  1  0.88552768  0.05201234  0.10562738  1  -0.060464  0.001434  -0.097504  -0.103939  0.000882  4.042644  0.001
C  C230  1  0.93745748  0.60564152  0.94794993  1  -0.044789  0.001446  -0.097717  -0.102888  0.00089  4.042651  0.001
C  C231  1  0.99105110  0.89447079  0.55215652  1  -0.082959  0.00146  -0.098674  -0.105334  0.000896  4.043229  0.001
C  C232  1  0.69755174  0.14654659  0.36014168  1  -0.045695  0.000299  -0.094536  -0.063929  0.000176  4.043118  0.0
C  C233  1  0.70388811  0.35319902  0.13970287  1  -0.061839  0.000307  -0.095032  -0.063996  0.000181  4.040687  0.0
C  C234  1  0.05702658  0.63964931  0.64668024  1  -0.057067  0.000305  -0.094617  -0.065052  0.000181  4.040431  0.0
C  C235  1  0.84331423  0.86061340  0.85324098  1  -0.015863  0.000305  -0.095661  -0.068009  0.00018  4.043854  0.0
C  C236  1  0.30244857  0.85345392  0.63985725  1  -0.045663  0.0003  -0.094508  -0.063904  0.000176  4.043164  0.0
C  C237  1  0.29610881  0.64680150  0.86029942  1  -0.06179  0.000307  -0.095065  -0.064047  0.000181  4.040675  0.0
C  C238  1  0.94297615  0.36035059  0.35331808  1  -0.056894  0.000305  -0.09466  -0.065171  0.000181  4.040538  0.0
C  C239  1  0.15668738  0.13938959  0.14675841  1  -0.015987  0.000304  -0.095722  -0.068099  0.00018  4.043852  0.0
C  C240  1  0.46603289  0.83299500  0.33999367  1  -0.097025  0.001664  -0.246215  -0.485901  0.001457  3.922338  0.001
C  C241  1  0.13898669  0.66703773  0.16022694  1  -0.068586  0.001638  -0.245425  -0.485625  0.001455  3.92474  0.001
C  C242  1  0.80602321  0.66022977  0.33287390  1  -0.065743  0.001633  -0.244993  -0.4853  0.001454  3.926259  0.001
C  C243  1  0.29932018  0.83966508  0.16717541  1  -0.072285  0.001639  -0.245852  -0.487314  0.001459  3.923224  0.001
C  C244  1  0.53396441  0.16700675  0.66000913  1  -0.096855  0.001664  -0.246239  -0.485974  0.001457  3.922455  0.001
C  C245  1  0.86101180  0.33296094  0.83977397  1  -0.068883  0.001638  -0.245436  -0.485639  0.001455  3.924733  0.001
C  C246  1  0.19397572  0.33977013  0.66712671  1  -0.065673  0.001633  -0.244972  -0.485326  0.001454  3.926128  0.001
C  C247  1  0.70068007  0.16033667  0.83282296  1  -0.072027  0.001639  -0.245887  -0.487405  0.001458  3.923286  0.001
N  N248  1  0.54138522  0.78842925  0.46301707  1  -0.629166  0.053525  -0.158762  -0.045916  0.032976  3.573156  0.037
N  N249  1  0.29268059  0.71170102  0.03717095  1  -0.610152  0.053304  -0.159869  -0.048152  0.032882  3.570725  0.037
N  N250  1  0.00450364  0.53716216  0.28822114  1  -0.620236  0.053521  -0.158518  -0.046584  0.03299  3.572299  0.037
N  N251  1  0.32993283  0.96284273  0.21166570  1  -0.630356  0.053526  -0.158306  -0.044611  0.032991  3.568335  0.037
N  N252  1  0.45861719  0.21157003  0.53698262  1  -0.629025  0.053529  -0.158762  -0.045914  0.032978  3.573124  0.037
N  N253  1  0.70731819  0.28829888  0.96283129  1  -0.610122  0.053302  -0.159872  -0.048127  0.032881  3.570617  0.037
N  N254  1  0.99549505  0.46283836  0.71177865  1  -0.620042  0.053525  -0.158489  -0.046527  0.032992  3.572298  0.037
N  N255  1  0.67006798  0.03715779  0.78833348  1  -0.630441  0.053524  -0.158237  -0.044482  0.03299  3.56833  0.037
N  N256  1  0.57077824  0.74761695  0.52173409  1  -0.574694  0.110946  -0.240718  -0.231783  0.074283  3.621294  0.096
N  N257  1  0.33999112  0.75249423  0.97840787  1  -0.577314  0.11085  -0.239509  -0.228754  0.074201  3.617545  0.096
N  N258  1  0.09264893  0.47842381  0.24744521  1  -0.579424  0.110957  -0.239804  -0.228053  0.074315  3.617636  0.096
N  N259  1  0.31847575  0.02163222  0.25242812  1  -0.582577  0.111044  -0.240291  -0.231196  0.074331  3.617612  0.096
N  N260  1  0.42922261  0.25238233  0.47826565  1  -0.5748  0.110955  -0.240677  -0.231738  0.074288  3.621293  0.096
N  N261  1  0.66000637  0.24750629  0.02159386  1  -0.577188  0.110847  -0.23951  -0.228754  0.074198  3.617529  0.096
N  N262  1  0.90735149  0.52157732  0.75255479  1  -0.579518  0.11096  -0.239806  -0.228069  0.074316  3.617666  0.096
N  N263  1  0.68152221  0.97836892  0.74757060  1  -0.582624  0.111043  -0.24033  -0.231217  0.07433  3.617569  0.096
N  N264  1  0.61105011  0.97137737  0.40639036  1  -1.271022  0.006994  -0.38602  -0.348777  0.004207  3.562875  0.007
N  N265  1  0.48864853  0.52871068  0.09371712  1  -1.296463  0.006929  -0.386248  -0.350416  0.004166  3.562089  0.007
N  N266  1  0.01723292  0.59363030  0.47127491  1  -1.274604  0.006971  -0.385408  -0.349731  0.004187  3.565675  0.007
N  N267  1  0.58219238  0.90645504  0.02864055  1  -1.293649  0.006972  -0.385619  -0.349173  0.004195  3.561804  0.007
N  N268  1  0.38894963  0.02862315  0.59360913  1  -1.270979  0.006994  -0.386  -0.348798  0.004207  3.562833  0.007
N  N269  1  0.51134866  0.47128860  0.90628329  1  -1.296435  0.006929  -0.386274  -0.35036  0.004166  3.562119  0.007
N  N270  1  0.98276783  0.40637145  0.52872371  1  -1.274443  0.006972  -0.385405  -0.34973  0.004188  3.565695  0.007
N  N271  1  0.41781082  0.09354363  0.97135940  1  -1.294032  0.006972  -0.385662  -0.349263  0.004194  3.561802  0.007
O  O272  1  0.63877465  0.57804010  0.71375504  1  -1.120617  0.07976  -0.311838  -0.495677  0.052061  2.32291  0.071
O  O273  1  0.43056515  0.92201362  0.78629576  1  -1.118218  0.079784  -0.312406  -0.49565  0.051927  2.320919  0.071
O  O274  1  0.35267315  0.28618998  0.07799440  1  -1.121455  0.079931  -0.312016  -0.495712  0.052178  2.321308  0.071
O  O275  1  0.21688559  0.21371857  0.42198460  1  -1.117403  0.079837  -0.311508  -0.495914  0.051969  2.322246  0.071
O  O276  1  0.36122838  0.42195610  0.28624332  1  -1.120594  0.07976  -0.311778  -0.495652  0.052061  2.322915  0.071
O  O277  1  0.56943370  0.07798628  0.21370566  1  -1.118244  0.079785  -0.312418  -0.495673  0.051927  2.320853  0.071
O  O278  1  0.64732697  0.71380992  0.92200427  1  -1.121428  0.079934  -0.312075  -0.4958  0.052181  2.321241  0.071
O  O279  1  0.78311103  0.78628072  0.57801637  1  -1.117342  0.079845  -0.311548  -0.495964  0.051974  2.322081  0.071
O  O280  1  0.51770453  0.94825799  0.31935996  1  -1.132027  -0.003317  -0.27007  -0.454722  -0.00383  2.262875  -0.002
O  O281  1  0.28531303  0.55197853  0.18100109  1  -1.130465  -0.003313  -0.270257  -0.455372  -0.003825  2.262993  -0.002
O  O282  1  0.83716893  0.68093577  0.44798761  1  -1.130472  -0.003329  -0.270176  -0.456275  -0.003848  2.263102  -0.002
O  O283  1  0.46613082  0.81910490  0.05191995  1  -1.13025  -0.003334  -0.270303  -0.455905  -0.003844  2.263133  -0.002
O  O284  1  0.48229557  0.05174252  0.68064141  1  -1.132082  -0.003317  -0.270128  -0.454835  -0.003831  2.262964  -0.002
O  O285  1  0.71468550  0.44802075  0.81900172  1  -1.130464  -0.003313  -0.270328  -0.455406  -0.003825  2.262969  -0.002
O  O286  1  0.16282947  0.31906166  0.55201550  1  -1.13044  -0.003329  -0.270174  -0.456261  -0.003848  2.263144  -0.002
O  O287  1  0.53386781  0.18089685  0.94807928  1  -1.130421  -0.003334  -0.270298  -0.455873  -0.003844  2.263129  -0.002
O  O288  1  0.68169516  0.67661947  0.63198727  1  -1.107752  0.098557  -0.325972  -0.542545  0.063722  2.454515  0.091
O  O289  1  0.49042043  0.82315073  0.86778840  1  -1.115736  0.09852  -0.324958  -0.54139  0.063665  2.453578  0.091
O  O290  1  0.31378395  0.36786351  0.17668462  1  -1.104778  0.098506  -0.324428  -0.540921  0.063628  2.45416  0.091
O  O291  1  0.35828982  0.13215736  0.32321095  1  -1.113806  0.09849  -0.325722  -0.543097  0.063658  2.453338  0.091
O  O292  1  0.31830574  0.32337858  0.36801303  1  -1.10777  0.098554  -0.325901  -0.542443  0.06372  2.454469  0.091
O  O293  1  0.50957874  0.17684670  0.13221170  1  -1.115785  0.098522  -0.324942  -0.54137  0.063667  2.453525  0.091
O  O294  1  0.68621827  0.63213516  0.82331481  1  -1.104752  0.098505  -0.324399  -0.540868  0.063628  2.454089  0.091
O  O295  1  0.64170742  0.86784069  0.67679001  1  -1.113575  0.098486  -0.325676  -0.54307  0.063654  2.453358  0.091
O  O296  1  0.64944271  0.87291782  0.50111841  1  -1.113303  0.077689  -0.297321  -0.473364  0.050754  2.448749  0.072
O  O297  1  0.52338179  0.62728654  0.99917283  1  -1.119158  0.077748  -0.298465  -0.475366  0.050739  2.452057  0.072
O  O298  1  0.15055091  0.49900446  0.37280768  1  -1.114799  0.0778  -0.299162  -0.476958  0.050787  2.451231  0.072
O  O299  1  0.52229891  0.00116692  0.12705651  1  -1.113257  0.077702  -0.299159  -0.476009  0.050711  2.450239  0.072
O  O300  1  0.35056244  0.12708147  0.49887930  1  -1.11312  0.07769  -0.297346  -0.473381  0.050753  2.448558  0.072
O  O301  1  0.47661563  0.37271397  0.00082971  1  -1.119199  0.077752  -0.298427  -0.475311  0.050741  2.452106  0.072
O  O302  1  0.84944933  0.50099606  0.62719206  1  -1.114823  0.077797  -0.299176  -0.476996  0.050785  2.451261  0.072
O  O303  1  0.47770542  0.99883175  0.87294232  1  -1.11313  0.077703  -0.299123  -0.475979  0.050711  2.450326  0.072
