# generated using pymatgen
data_CuH14C14S2(NO3)2
_symmetry_space_group_name_H-M   'P 1'
_cell_length_a   8.66008312
_cell_length_b   10.30932379
_cell_length_c   12.17424839
_cell_angle_alpha   80.41513170
_cell_angle_beta   69.14054217
_cell_angle_gamma   62.14005664
_symmetry_Int_Tables_number   1
_chemical_formula_structural   CuH14C14S2(NO3)2
_chemical_formula_sum   'Cu2 H28 C28 S4 N4 O12'
_cell_volume   897.94822034
_cell_formula_units_Z   2
loop_
 _symmetry_equiv_pos_site_id
 _symmetry_equiv_pos_as_xyz
  1  'x, y, z'
loop_
 _atom_site_type_symbol
 _atom_site_label
 _atom_site_symmetry_multiplicity
 _atom_site_fract_x
 _atom_site_fract_y
 _atom_site_fract_z
 _atom_site_occupancy
 _atom_site_hle17_ddec_charge
 _atom_site_hle17_ddec_spin_density
 _atom_site_hle17_ddec_sum_bond_order
 _atom_site_hle17_magmom
 _atom_site_hse06_10hf_ddec_charge
 _atom_site_hse06_10hf_ddec_spin_density
 _atom_site_hse06_10hf_ddec_sum_bond_order
 _atom_site_hse06_10hf_magmom
 _atom_site_hse06_ddec_charge
 _atom_site_hse06_ddec_spin_density
 _atom_site_hse06_ddec_sum_bond_order
 _atom_site_hse06_magmom
 _atom_site_pbe_cm5_charge
 _atom_site_pbe_ddec_charge
 _atom_site_pbe_ddec_spin_density
 _atom_site_pbe_ddec_sum_bond_order
 _atom_site_pbe_magmom
Cu  Cu0  1  0.79275085  0.24992386  0.41457139  1  0.832398  -0.705723  1.865402  -0.525  0.810048  -0.790068  2.243745  -0.641  0.896578  -0.854564  2.184008  -0.726  0.739343  0.755526  -0.74321  2.28645  -0.584
Cu  Cu1  1  0.20725380  0.75007854  0.58542662  1  0.8323  -0.705714  1.865575  -0.525  0.809912  -0.790062  2.243955  -0.641  0.89646  -0.854566  2.184217  -0.726  0.739303  0.755461  -0.743212  2.286549  -0.584
H  H2  1  0.12235188  0.08401150  0.46340778  1  0.376812  -0.000147  0.908811  0.0  0.353059  -0.000229  0.983  0.0  0.364857  -0.000132  0.969604  0.0  0.293952  0.344848  -0.000309  0.992345  0.0
H  H3  1  0.41401794  0.41577249  0.46364072  1  0.377306  -0.000148  0.908706  0.0  0.353709  -0.00023  0.982535  0.0  0.365584  -0.000133  0.969011  0.0  0.294687  0.345469  -0.000311  0.991878  0.0
H  H4  1  0.87763260  0.91597955  0.53659985  1  0.376628  -0.000147  0.908948  0.0  0.352908  -0.000229  0.983063  0.0  0.364699  -0.000132  0.969689  0.0  0.293879  0.344702  -0.000309  0.992392  0.0
H  H5  1  0.58598043  0.58422034  0.53636218  1  0.37738  -0.000148  0.908605  0.0  0.353808  -0.00023  0.982379  0.0  0.365662  -0.000133  0.968882  0.0  0.294732  0.345568  -0.000311  0.991726  0.0
H  H6  1  0.08056015  0.32428672  0.55850103  1  0.073819  2e-06  0.926421  0.0  0.089713  -1.8e-05  0.98582  0.0  0.090844  -7e-06  0.984499  0.0  0.102912  0.088949  -2.5e-05  0.986841  0.0
H  H7  1  0.36073360  0.17578231  0.55963319  1  0.074349  -0.0  0.926643  0.0  0.090087  -1.7e-05  0.986055  0.0  0.091258  -8e-06  0.984698  0.0  0.10319  0.089294  -2.6e-05  0.987121  0.0
H  H8  1  0.91944608  0.67571798  0.44148457  1  0.073793  1e-06  0.926346  0.0  0.089672  -1.8e-05  0.985813  0.0  0.090802  -8e-06  0.984492  0.0  0.102894  0.088903  -2.5e-05  0.986837  0.0
H  H9  1  0.63925212  0.82422470  0.44038456  1  0.074294  1e-06  0.926617  0.0  0.090093  -1.7e-05  0.985992  0.0  0.091263  -8e-06  0.984631  0.0  0.103188  0.089297  -2.5e-05  0.987058  0.0
H  H10  1  0.03498865  0.17809868  0.63557618  1  0.069597  0.000133  0.984866  0.0  0.081473  0.000125  1.052982  0.0  0.081887  0.000138  1.05479  0.0  0.099497  0.081336  9.5e-05  1.05173  0.0
H  H11  1  0.32988580  0.32214200  0.63610820  1  0.069205  0.00013  0.984327  0.0  0.081373  0.000124  1.052396  0.0  0.08179  0.000136  1.054235  0.0  0.0995  0.081231  9.5e-05  1.051156  0.0
H  H12  1  0.96502907  0.82190225  0.36441954  1  0.069518  0.000131  0.984862  0.0  0.081472  0.000125  1.052949  0.0  0.081885  0.000137  1.054761  0.0  0.099487  0.081334  9.5e-05  1.0517  0.0
H  H13  1  0.67012777  0.67785992  0.36390075  1  0.069236  0.00013  0.984356  0.0  0.08144  0.000124  1.052384  0.0  0.081858  0.000136  1.054224  0.0  0.099569  0.081298  9.5e-05  1.05115  0.0
H  H14  1  0.05499651  0.37460835  0.32023081  1  0.104653  -0.001024  0.934163  -0.002  0.114551  -0.000886  0.990056  -0.001  0.116537  -0.000621  0.987727  -0.001  0.125655  0.11272  -0.00105  0.992094  -0.002
H  H15  1  0.62448323  0.12525666  0.32044482  1  0.105212  -0.001025  0.934066  -0.002  0.115078  -0.000888  0.989729  -0.001  0.117082  -0.000623  0.987401  -0.001  0.12611  0.113232  -0.001052  0.991802  -0.002
H  H16  1  0.94501355  0.62538106  0.67976001  1  0.104671  -0.001023  0.934137  -0.002  0.114505  -0.000886  0.990092  -0.001  0.116489  -0.000621  0.987769  -0.001  0.125659  0.11268  -0.00105  0.992133  -0.002
H  H17  1  0.37552063  0.87474899  0.67955351  1  0.105224  -0.001025  0.933929  -0.002  0.115075  -0.000889  0.989624  -0.001  0.117079  -0.000623  0.987297  -0.001  0.126117  0.113226  -0.001052  0.991703  -0.002
H  H18  1  0.10036072  0.56374058  0.17664670  1  0.121836  -0.000532  0.99112  0.0  0.1247  -0.000469  1.061855  0.0  0.129157  -0.000314  1.059533  0.0  0.10066  0.12105  -0.000627  1.064438  -0.001
H  H19  1  0.72285427  0.93608145  0.17676856  1  0.12178  -0.000543  0.99238  0.0  0.125103  -0.000482  1.062629  0.0  0.129604  -0.000321  1.060227  0.0  0.100707  0.12143  -0.000639  1.065257  -0.001
H  H20  1  0.89965402  0.43624653  0.82334315  1  0.121776  -0.000533  0.991193  0.0  0.124661  -0.00047  1.061916  0.0  0.129121  -0.000314  1.059597  0.0  0.10064  0.121034  -0.000627  1.06448  -0.001
H  H21  1  0.27713964  0.06392453  0.82322961  1  0.121765  -0.000544  0.992395  0.0  0.125102  -0.000482  1.062617  0.0  0.129596  -0.000321  1.060225  0.0  0.100707  0.121429  -0.000639  1.065242  -0.001
H  H22  1  0.61244667  0.63039289  0.10202572  1  0.121112  -0.000502  0.92329  0.0  0.135604  -0.000509  0.97342  0.0  0.139078  -0.000366  0.97209  0.0  0.114596  0.132896  -0.000612  0.974785  -0.001
H  H23  1  0.28545203  0.86935465  0.10219072  1  0.120357  -0.000508  0.923125  0.0  0.134645  -0.000514  0.973376  0.0  0.138121  -0.000369  0.972051  0.0  0.114176  0.131921  -0.000616  0.974746  -0.001
H  H24  1  0.38755538  0.36960211  0.89796886  1  0.121065  -0.000503  0.923364  0.0  0.135565  -0.000508  0.973488  0.0  0.139038  -0.000366  0.972158  0.0  0.114571  0.13285  -0.000612  0.974854  -0.001
H  H25  1  0.71454496  0.13065671  0.89780174  1  0.120358  -0.000508  0.923142  0.0  0.134665  -0.000514  0.973367  0.0  0.138143  -0.000369  0.972038  0.0  0.114147  0.13194  -0.000616  0.974736  -0.001
H  H26  1  0.58240282  0.44479181  0.25348677  1  0.103264  -0.000821  0.943898  -0.002  0.107241  -0.000727  1.012173  -0.001  0.110485  -0.000506  1.007948  -0.001  0.121714  0.104504  -0.00094  1.015703  -0.002
H  H27  1  0.16397825  0.05488966  0.25367122  1  0.103859  -0.000828  0.944384  -0.002  0.107397  -0.000732  1.012985  -0.001  0.110755  -0.000509  1.008649  -0.001  0.12175  0.104558  -0.000945  1.016621  -0.002
H  H28  1  0.41759976  0.55520421  0.74651041  1  0.103294  -0.00082  0.943849  -0.002  0.107267  -0.000727  1.012113  -0.001  0.110511  -0.000506  1.007889  -0.001  0.121705  0.104527  -0.00094  1.015643  -0.002
H  H29  1  0.83602123  0.94512052  0.74632303  1  0.103755  -0.000828  0.944497  -0.002  0.107399  -0.000732  1.012979  -0.001  0.110756  -0.000509  1.008643  -0.001  0.121754  0.104563  -0.000945  1.016618  -0.002
C  C30  1  0.80093743  0.36891946  0.61013301  1  0.64173  0.006882  3.860485  0.006  0.600692  0.001219  4.169823  0.001  0.634558  0.001207  4.165067  0.001  0.19567  0.57731  0.001199  4.17204  0.002
C  C31  1  0.58919224  0.13119151  0.61056514  1  0.642449  0.006826  3.860669  0.006  0.602428  0.001203  4.168404  0.001  0.636312  0.001192  4.163605  0.001  0.196318  0.579044  0.001197  4.170628  0.002
C  C32  1  0.19907336  0.63106881  0.38986009  1  0.641764  0.006878  3.860697  0.006  0.600776  0.001219  4.17001  0.001  0.63464  0.001206  4.165256  0.001  0.19574  0.577403  0.001198  4.17222  0.002
C  C33  1  0.41081293  0.86880424  0.38944298  1  0.642482  0.006835  3.86029  0.006  0.602424  0.001204  4.16808  0.001  0.63631  0.001193  4.163281  0.001  0.196312  0.579036  0.001198  4.17031  0.002
C  C34  1  0.00472455  0.26009361  0.56656616  1  -0.0185  0.000474  3.6794  0.0  -0.075752  0.000181  3.951622  0.0  -0.07225  0.000299  3.952384  0.0  -0.085247  -0.078304  0.000125  3.950868  0.0
C  C35  1  0.42880706  0.23996582  0.56719016  1  -0.017833  0.000483  3.678176  0.0  -0.075751  0.00018  3.950258  0.0  -0.072329  0.000303  3.951094  0.0  -0.08522  -0.078301  0.00013  3.949569  0.0
C  C36  1  0.99527998  0.73990672  0.43342695  1  -0.018332  0.00048  3.679157  0.0  -0.075708  0.00018  3.951478  0.0  -0.072205  0.0003  3.952236  0.0  -0.085243  -0.078258  0.000125  3.950728  0.0
C  C37  1  0.57119213  0.76003445  0.43281666  1  -0.017883  0.000479  3.678282  0.0  -0.075887  0.000181  3.950468  0.0  -0.072462  0.000303  3.951296  0.0  -0.085307  -0.078434  0.00013  3.949779  0.0
C  C38  1  0.96070780  0.43420051  0.26951369  1  0.13306  0.011452  3.687955  0.008  0.104089  0.00321  3.948141  0.002  0.114162  0.004822  3.964767  0.003  0.047703  0.097104  0.001969  3.938131  0.001
C  C39  1  0.76952471  0.06566217  0.26966267  1  0.131678  0.011341  3.689354  0.008  0.103616  0.003181  3.949289  0.002  0.113643  0.004795  3.965999  0.003  0.047754  0.096653  0.001952  3.939273  0.001
C  C40  1  0.03928783  0.56579451  0.73049199  1  0.132963  0.011426  3.688135  0.008  0.104018  0.003209  3.948319  0.002  0.114093  0.004819  3.964946  0.003  0.047694  0.097024  0.001967  3.938331  0.001
C  C41  1  0.23047399  0.93433824  0.73033729  1  0.131686  0.011347  3.689222  0.008  0.103605  0.003181  3.949167  0.002  0.113632  0.004797  3.965882  0.003  0.047727  0.096644  0.001953  3.939152  0.001
C  C42  1  0.98629843  0.53907929  0.18729458  1  -0.179585  -0.008961  3.748264  -0.01  -0.196203  -0.003756  3.997291  -0.005  -0.204991  -0.00342  4.016805  -0.004  -0.093142  -0.191064  -0.003969  3.986044  -0.005
C  C43  1  0.82620533  0.96080138  0.18744047  1  -0.18165  -0.008897  3.752102  -0.01  -0.198937  -0.003755  4.000663  -0.005  -0.207769  -0.003415  4.020177  -0.004  -0.094173  -0.19379  -0.003975  3.989463  -0.005
C  C44  1  0.01369455  0.46092231  0.81270913  1  -0.179473  -0.008947  3.74847  -0.01  -0.196091  -0.003756  3.997459  -0.005  -0.204884  -0.003418  4.016975  -0.004  -0.093135  -0.190975  -0.003968  3.986191  -0.005
C  C45  1  0.17379026  0.03920783  0.81255443  1  -0.181595  -0.0089  3.751965  -0.01  -0.198867  -0.003756  4.000519  -0.005  -0.207691  -0.003416  4.020039  -0.004  -0.094122  -0.193726  -0.003975  3.989309  -0.005
C  C46  1  0.86306359  0.61006774  0.12323465  1  0.081409  0.011733  3.78575  0.008  0.095561  0.004379  4.042404  0.003  0.103099  0.004969  4.06214  0.003  0.00414  0.090321  0.003924  4.02955  0.002
C  C47  1  0.01358584  0.88983384  0.12336574  1  0.083554  0.011656  3.785659  0.008  0.097798  0.004378  4.042212  0.003  0.105358  0.004959  4.061963  0.003  0.004449  0.092542  0.00396  4.029342  0.003
C  C48  1  0.13693740  0.38993364  0.87676744  1  0.081515  0.011716  3.785813  0.008  0.095652  0.00438  4.04248  0.003  0.103193  0.004966  4.062215  0.003  0.004211  0.090416  0.003924  4.029618  0.002
C  C49  1  0.98640752  0.11016997  0.87663406  1  0.083509  0.011658  3.785588  0.008  0.09774  0.004376  4.042147  0.003  0.105297  0.004962  4.0619  0.003  0.004424  0.0925  0.003959  4.029246  0.003
C  C50  1  0.71533640  0.57591186  0.14703889  1  -0.158132  -0.009224  3.709344  -0.01  -0.176577  -0.003897  3.961066  -0.005  -0.18402  -0.003587  3.978661  -0.004  -0.086195  -0.171452  -0.004157  3.949408  -0.005
C  C51  1  0.13751107  0.92390014  0.14721875  1  -0.157943  -0.009157  3.708867  -0.01  -0.176343  -0.003879  3.960187  -0.005  -0.183771  -0.003568  3.977735  -0.004  -0.085667  -0.171181  -0.004165  3.948515  -0.005
C  C52  1  0.28465949  0.42409191  0.85295846  1  -0.158169  -0.009206  3.709782  -0.01  -0.176621  -0.003896  3.961494  -0.005  -0.184066  -0.003584  3.979091  -0.004  -0.086262  -0.17149  -0.004155  3.949816  -0.005
C  C53  1  0.86248468  0.07610903  0.85277844  1  -0.157952  -0.00916  3.708918  -0.01  -0.176367  -0.003878  3.960281  -0.005  -0.183796  -0.00357  3.977829  -0.004  -0.085659  -0.171201  -0.004164  3.948588  -0.005
C  C54  1  0.69886551  0.47035157  0.23156929  1  0.133972  0.010089  3.675242  0.007  0.102724  0.002135  3.944682  0.001  0.113359  0.003867  3.959427  0.003  0.047957  0.095641  0.000865  3.935777  0.0
C  C55  1  0.06937396  0.02940258  0.23177452  1  0.132067  0.010011  3.678242  0.007  0.101676  0.002105  3.947397  0.001  0.112219  0.003836  3.96218  0.003  0.046863  0.094645  0.000867  3.938464  0.0
C  C56  1  0.30113086  0.52964672  0.76843279  1  0.133903  0.010064  3.675542  0.007  0.10266  0.002136  3.944945  0.001  0.113298  0.003864  3.959692  0.003  0.047951  0.095579  0.000865  3.936035  0.0
C  C57  1  0.93062104  0.97060332  0.76822626  1  0.132206  0.010018  3.678211  0.007  0.101699  0.002104  3.9474  0.001  0.112248  0.003839  3.962182  0.003  0.046901  0.09466  0.000867  3.938483  0.0
S  S58  1  0.88330099  0.74015536  0.01148419  1  0.04375  0.001718  2.473062  0.0  0.04341  0.000889  2.820609  0.0  0.039712  0.001182  2.822978  0.0  0.070249  0.046546  0.000699  2.820302  0.0
S  S59  1  0.10521196  0.75986578  0.01153580  1  0.042957  0.001718  2.472545  0.0  0.042717  0.000895  2.819868  0.0  0.039027  0.001186  2.822225  0.0  0.069959  0.04586  0.0007  2.819592  0.0
S  S60  1  0.11670379  0.25984491  0.98851235  1  0.043717  0.001717  2.473081  0.0  0.043376  0.000889  2.820632  0.0  0.039679  0.001182  2.823  0.0  0.070236  0.046508  0.000699  2.820333  0.0
S  S61  1  0.89478091  0.24013911  0.98846514  1  0.042995  0.001718  2.472412  0.0  0.042756  0.000895  2.819741  0.0  0.039066  0.001187  2.8221  0.0  0.069974  0.045891  0.0007  2.81947  0.0
N  N62  1  0.82045957  0.39976032  0.29124709  1  -0.312471  -0.076324  3.357814  -0.099  -0.271631  -0.054187  3.665704  -0.076  -0.302069  -0.044153  3.687665  -0.066  -0.355688  -0.253349  -0.059636  3.65383  -0.079
N  N63  1  0.88805046  0.10008190  0.29137862  1  -0.309058  -0.076359  3.359311  -0.099  -0.269699  -0.054263  3.667906  -0.076  -0.300198  -0.044215  3.69003  -0.066  -0.355094  -0.251363  -0.059746  3.655915  -0.079
N  N64  1  0.17953263  0.60024128  0.70875859  1  -0.312454  -0.076305  3.357775  -0.099  -0.271555  -0.054184  3.665578  -0.076  -0.302002  -0.04415  3.687549  -0.066  -0.355649  -0.25329  -0.059632  3.653706  -0.079
N  N65  1  0.11194304  0.89992514  0.70862183  1  -0.309114  -0.076363  3.359356  -0.099  -0.269693  -0.054264  3.667933  -0.076  -0.300202  -0.044217  3.690065  -0.066  -0.355119  -0.251372  -0.059748  3.655943  -0.079
O  O66  1  0.70319482  0.39829618  0.54088920  1  -0.618466  -0.074735  2.07793  -0.104  -0.58101  -0.045764  2.341408  -0.069  -0.623519  -0.033809  2.336529  -0.055  -0.331907  -0.552075  -0.053928  2.344688  -0.077
O  O67  1  0.75616949  0.10168011  0.54110952  1  -0.620032  -0.074501  2.080307  -0.104  -0.582676  -0.045657  2.343145  -0.069  -0.625114  -0.033749  2.338213  -0.055  -0.333167  -0.553725  -0.053871  2.34643  -0.077
O  O68  1  0.29680994  0.60169873  0.45910521  1  -0.618443  -0.074732  2.077907  -0.104  -0.581043  -0.045761  2.341458  -0.069  -0.623565  -0.033805  2.336583  -0.055  -0.331922  -0.55212  -0.053925  2.344723  -0.077
O  O69  1  0.24383116  0.89831694  0.45889387  1  -0.620015  -0.074511  2.080359  -0.104  -0.582629  -0.045665  2.343222  -0.069  -0.625074  -0.033754  2.338286  -0.055  -0.333136  -0.553689  -0.053876  2.346507  -0.077
O  O70  1  0.73994071  0.43031710  0.70652801  1  -0.584172  -0.018408  1.86882  -0.024  -0.551267  -0.007998  2.082436  -0.011  -0.576273  -0.004126  2.075735  -0.006  -0.327828  -0.531763  -0.012751  2.085579  -0.017
O  O71  1  0.55379538  0.07001962  0.70709619  1  -0.584328  -0.018284  1.86973  -0.024  -0.551608  -0.007968  2.082806  -0.011  -0.576549  -0.004106  2.076061  -0.006  -0.327749  -0.532116  -0.01274  2.08596  -0.017
O  O72  1  0.26006086  0.56967130  0.29347522  1  -0.584241  -0.0184  1.869177  -0.024  -0.55133  -0.007997  2.082791  -0.011  -0.576331  -0.004125  2.076086  -0.006  -0.327878  -0.531831  -0.012747  2.08593  -0.017
O  O73  1  0.44620765  0.92998699  0.29291095  1  -0.584368  -0.018294  1.869356  -0.024  -0.551601  -0.007969  2.082425  -0.011  -0.576545  -0.004108  2.07568  -0.006  -0.327757  -0.532111  -0.012743  2.085585  -0.017
O  O74  1  0.06202829  0.19332394  0.45667702  1  -0.549667  0.001  2.169757  -0.001  -0.505171  0.001339  2.414801  0.0  -0.522758  0.001864  2.397883  0.0  -0.414035  -0.492724  0.000756  2.42652  -0.001
O  O75  1  0.48117438  0.30645735  0.45707873  1  -0.550324  0.001009  2.17048  -0.001  -0.505881  0.001346  2.415762  0.0  -0.523463  0.001868  2.398706  0.0  -0.414387  -0.493427  0.000765  2.427607  -0.001
O  O76  1  0.93797698  0.80666337  0.54331951  1  -0.549466  0.000999  2.169845  -0.001  -0.504948  0.00134  2.414949  0.0  -0.522533  0.001864  2.398037  0.0  -0.413941  -0.492521  0.000757  2.426658  -0.001
O  O77  1  0.51882614  0.69353323  0.54292564  1  -0.550313  0.00101  2.170434  -0.001  -0.505894  0.001345  2.415754  0.0  -0.523459  0.001868  2.398728  0.0  -0.414405  -0.493448  0.000765  2.427599  -0.001
