# generated using pymatgen
data_CdH13C18N3O4
_symmetry_space_group_name_H-M   'P 1'
_cell_length_a   11.79656608
_cell_length_b   13.75282958
_cell_length_c   21.29304718
_cell_angle_alpha   90.00002250
_cell_angle_beta   90.00008842
_cell_angle_gamma   90.00009453
_symmetry_Int_Tables_number   1
_chemical_formula_structural   CdH13C18N3O4
_chemical_formula_sum   'Cd4 H52 C72 N12 O16'
_cell_volume   3454.50226956
_cell_formula_units_Z   4
loop_
 _symmetry_equiv_pos_site_id
 _symmetry_equiv_pos_as_xyz
  1  'x, y, z'
loop_
 _atom_site_type_symbol
 _atom_site_label
 _atom_site_symmetry_multiplicity
 _atom_site_fract_x
 _atom_site_fract_y
 _atom_site_fract_z
 _atom_site_occupancy
 _atom_site_pbe_bader_charge
 _atom_site_pbe_bader_spin_density
 _atom_site_pbe_cm5_charge
 _atom_site_pbe_ddec_charge
 _atom_site_pbe_ddec_spin_density
 _atom_site_pbe_ddec_sum_bond_order
 _atom_site_pbe_magmom
Cd  Cd0  1  0.00000033  0.60302949  0.43317951  1  1.287456  0  0.767164  0.87567  0  2.202553  0
Cd  Cd1  1  0.99999981  0.39697082  0.56682072  1  1.287449  0  0.767193  0.875683  0  2.202519  0
Cd  Cd2  1  0.99999995  0.89696985  0.93317934  1  1.28746  0  0.767194  0.875691  0  2.202558  0
Cd  Cd3  1  0.00000019  0.10302973  0.06682042  1  1.287486  0  0.767188  0.8757  0  2.20252  0
H  H4  1  0.79483144  0.46874058  0.38029449  1  0.117839  0  0.12521  0.099583  0  0.982146  0
H  H5  1  0.58500426  0.46351750  0.37599863  1  0.060974  0  0.111555  0.115711  0  1.002259  0
H  H6  1  0.58341268  0.72411191  0.49051163  1  0.095665  0  0.111255  0.114486  0  1.005438  0
H  H7  1  0.79341447  0.71775046  0.48902861  1  0.120662  0  0.125617  0.10343  0  0.982786  0
H  H8  1  0.79483183  0.53126014  0.61970551  1  0.117839  0  0.125213  0.099602  0  0.982118  0
H  H9  1  0.58500468  0.53648220  0.62400213  1  0.060971  0  0.111547  0.11571  0  1.002266  0
H  H10  1  0.58341143  0.27588706  0.50948913  1  0.085727  0  0.111252  0.114511  0  1.005469  0
H  H11  1  0.79341238  0.28224954  0.51097233  1  0.120684  0  0.125619  0.103418  0  0.982782  0
H  H12  1  0.20516859  0.03125797  0.88029495  1  0.117869  0  0.125199  0.099557  0  0.982117  0
H  H13  1  0.41499575  0.03648177  0.87599927  1  0.061042  0  0.111569  0.11575  0  1.002191  0
H  H14  1  0.41658691  0.77588674  0.99051140  1  0.085718  0  0.111237  0.114487  0  1.005417  0
H  H15  1  0.20658597  0.78224819  0.98902820  1  0.120652  0  0.125615  0.103421  0  0.982822  0
H  H16  1  0.20516843  0.96874192  0.11970549  1  0.117871  0  0.125212  0.099595  0  0.982154  0
H  H17  1  0.41499560  0.96351841  0.12400087  1  0.061045  0  0.111565  0.115737  0  1.002223  0
H  H18  1  0.41658756  0.22411345  0.00948828  1  0.0857  0  0.111245  0.114498  0  1.005462  0
H  H19  1  0.20658661  0.21775170  0.01097130  1  0.120647  0  0.12561  0.103407  0  0.982803  0
H  H20  1  0.20516871  0.53126118  0.61970432  1  0.117838  0  0.125206  0.099579  0  0.982139  0
H  H21  1  0.41499503  0.53648135  0.62400206  1  0.070021  0  0.111547  0.115703  0  1.002271  0
H  H22  1  0.41658746  0.27588694  0.50948906  1  0.095668  0  0.111233  0.114466  0  1.005406  0
H  H23  1  0.20658652  0.28224985  0.51097161  1  0.120666  0  0.125604  0.1034  0  0.982796  0
H  H24  1  0.20516831  0.46873943  0.38029518  1  0.117844  0  0.125204  0.099585  0  0.982123  0
H  H25  1  0.41499462  0.46351811  0.37599856  1  0.070063  0  0.111555  0.115718  0  1.002247  0
H  H26  1  0.41658786  0.72411252  0.49051156  1  0.085712  0  0.111243  0.11449  0  1.005476  0
H  H27  1  0.20658691  0.71775077  0.48902836  1  0.120666  0  0.125626  0.103439  0  0.982795  0
H  H28  1  0.79483155  0.96874161  0.11970527  1  0.117853  0  0.125204  0.099555  0  0.982174  0
H  H29  1  0.58500439  0.96351781  0.12400095  1  0.070005  0  0.111558  0.115718  0  1.002254  0
H  H30  1  0.58341323  0.22411211  0.00948788  1  0.095652  0  0.111255  0.114485  0  1.005492  0
H  H31  1  0.79341417  0.21775066  0.01097156  1  0.120656  0  0.125607  0.103407  0  0.982818  0
H  H32  1  0.79483171  0.03125839  0.88029427  1  0.117853  0  0.125211  0.099585  0  0.982151  0
H  H33  1  0.58500455  0.03648189  0.87599888  1  0.069971  0  0.111558  0.115716  0  1.002239  0
H  H34  1  0.58341258  0.77588758  0.99051241  1  0.095639  0  0.111243  0.114488  0  1.005491  0
H  H35  1  0.79341353  0.78224933  0.98902845  1  0.120658  0  0.125611  0.103421  0  0.982817  0
H  H36  1  0.99999927  0.56873550  0.66980412  1  0.119308  0  0.091968  0.107222  0  1.099751  0
H  H37  1  0.00000085  0.64218807  0.77801414  1  0.041555  0  0.096459  0.099461  0  1.03483  0
H  H38  1  0.00000028  0.85649953  0.59090469  1  0.073908  0  0.098603  0.116035  0  1.010266  0
H  H39  1  0.99999967  0.99421958  0.66162498  1  0.444822  0  0.311528  0.311495  0  0.937216  0
H  H40  1  0.99999976  0.97628729  0.74433320  1  0.50271  0  0.292142  0.30936  0  1.011469  0
H  H41  1  0.00000087  0.43126553  0.33019610  1  0.11928  0  0.091994  0.107264  0  1.099717  0
H  H42  1  0.00000014  0.35781296  0.22198514  1  0.041542  0  0.096459  0.099475  0  1.034769  0
H  H43  1  0.00000071  0.14350150  0.40909459  1  0.073931  0  0.098598  0.11602  0  1.010268  0
H  H44  1  0.00000132  0.00578145  0.33837477  1  0.44484  0  0.311523  0.311473  0  0.93725  0
H  H45  1  0.00000207  0.02371374  0.25566609  1  0.502707  0  0.292171  0.309331  0  1.011444  0
H  H46  1  0.99999807  0.93126511  0.16980293  1  0.119302  0  0.091969  0.107213  0  1.099756  0
H  H47  1  0.99999900  0.85781335  0.27801383  1  0.041468  0  0.096457  0.099448  0  1.034818  0
H  H48  1  0.00000023  0.64350031  0.09090530  1  0.073905  0  0.0986  0.116002  0  1.010284  0
H  H49  1  0.00000020  0.50578104  0.16162555  1  0.444853  0  0.311504  0.311454  0  0.937296  0
H  H50  1  0.00000084  0.52371339  0.24433429  1  0.502696  0  0.292146  0.309279  0  1.011492  0
H  H51  1  0.00000037  0.06873519  0.83019542  1  0.119304  0  0.091969  0.107186  0  1.09974  0
H  H52  1  0.00000114  0.14218768  0.72198546  1  0.041543  0  0.096459  0.099502  0  1.034741  0
H  H53  1  0.00000076  0.35649781  0.90909445  1  0.073935  0  0.098579  0.115995  0  1.010292  0
H  H54  1  0.00000079  0.49421927  0.83837514  1  0.444835  0  0.311513  0.311479  0  0.937261  0
H  H55  1  0.99999930  0.47628692  0.75566641  1  0.502707  0  0.292152  0.309307  0  1.011459  0
C  C56  1  0.74391331  0.52380267  0.40415344  1  0.549783  0  0.058897  0.108129  0  3.935809  0
C  C57  1  0.62606037  0.52168593  0.40215837  1  -0.06154  0  -0.079273  -0.173144  0  3.941608  0
C  C58  1  0.56289803  0.59351039  0.43344180  1  0.031702  0  0.011912  0.101299  0  3.976596  0
C  C59  1  0.62511795  0.66541201  0.46521090  1  0.058255  0  -0.081075  -0.17457  0  3.951722  0
C  C60  1  0.74285136  0.66269992  0.46490662  1  0.424741  0  0.056417  0.101366  0  3.942801  0
C  C61  1  0.74391269  0.47619652  0.59584652  1  0.54981  0  0.058899  0.108118  0  3.935826  0
C  C62  1  0.62605975  0.47831382  0.59784196  1  -0.061573  0  -0.079283  -0.173176  0  3.941648  0
C  C63  1  0.56289973  0.40649000  0.56655894  1  0.03198  0  0.011967  0.101384  0  3.976593  0
C  C64  1  0.62511773  0.33458702  0.53478990  1  0.058154  0  -0.081122  -0.174677  0  3.951784  0
C  C65  1  0.74284945  0.33729854  0.53509428  1  0.42462  0  0.056422  0.101421  0  3.942754  0
C  C66  1  0.25608774  0.97619519  0.90415359  1  0.549839  0  0.058875  0.10814  0  3.935424  0
C  C67  1  0.37394068  0.97831193  0.90215909  1  -0.061623  0  -0.079279  -0.172434  0  3.942305  0
C  C68  1  0.43710225  0.90648968  0.93344209  1  -0.120618  0  0.011893  0.098981  0  3.979903  0
C  C69  1  0.37488327  0.83458880  0.96521158  1  0.058327  0  -0.081074  -0.173862  0  3.952363  0
C  C70  1  0.25715071  0.83729798  0.96490674  1  0.424753  0  0.056398  0.101405  0  3.942676  0
C  C71  1  0.25608739  0.02380477  0.09584642  1  0.549825  0  0.058865  0.108049  0  3.935747  0
C  C72  1  0.37394033  0.02168819  0.09784102  1  -0.061606  0  -0.07926  -0.173142  0  3.941639  0
C  C73  1  0.43710196  0.09351127  0.06655761  1  0.031802  0  0.011889  0.101283  0  3.976631  0
C  C74  1  0.37488303  0.16541351  0.03478900  1  0.058299  0  -0.081129  -0.174659  0  3.951743  0
C  C75  1  0.25715046  0.16270198  0.03509281  1  0.424764  0  0.056445  0.101416  0  3.942753  0
C  C76  1  0.25608683  0.47619691  0.59584584  1  0.549835  0  0.058878  0.108107  0  3.935741  0
C  C77  1  0.37394062  0.47831146  0.59784373  1  -0.061562  0  -0.079241  -0.173109  0  3.94163  0
C  C78  1  0.43710296  0.40648919  0.56655936  1  -0.120426  0  0.011873  0.101214  0  3.976694  0
C  C79  1  0.37488135  0.33458757  0.53478980  1  0.058267  0  -0.081085  -0.174565  0  3.951722  0
C  C80  1  0.25714963  0.33729965  0.53509266  1  0.424848  0  0.056434  0.101404  0  3.942795  0
C  C81  1  0.25608745  0.52380305  0.40415370  1  0.549831  0  0.05887  0.108088  0  3.935744  0
C  C82  1  0.37394124  0.52168866  0.40215685  1  -0.061602  0  -0.079251  -0.173128  0  3.941633  0
C  C83  1  0.43710210  0.59351030  0.43344175  1  -0.120592  0  0.011894  0.101272  0  3.976641  0
C  C84  1  0.37488326  0.66541256  0.46521126  1  0.058301  0  -0.081086  -0.174609  0  3.951725  0
C  C85  1  0.25715154  0.66270103  0.46490782  1  0.424761  0  0.056427  0.101406  0  3.942656  0
C  C86  1  0.74391325  0.02380366  0.09584663  1  0.549794  0  0.058918  0.108188  0  3.935785  0
C  C87  1  0.62606031  0.02168692  0.09784113  1  -0.061469  0  -0.079271  -0.173161  0  3.941645  0
C  C88  1  0.56289789  0.09351063  0.06655766  1  -0.120569  0  0.011901  0.101288  0  3.976618  0
C  C89  1  0.62511856  0.16541296  0.03478864  1  0.05825  0  -0.081097  -0.1746  0  3.95176  0
C  C90  1  0.74285113  0.16270087  0.03509302  1  0.424714  0  0.05644  0.101415  0  3.942755  0
C  C91  1  0.74391275  0.97619627  0.90415333  1  0.549797  0  0.058894  0.10811  0  3.935829  0
C  C92  1  0.62606066  0.97831284  0.90215873  1  -0.061441  0  -0.079286  -0.173126  0  3.941528  0
C  C93  1  0.56289818  0.90648904  0.93344215  1  0.031835  0  0.011893  0.101979  0  3.977009  0
C  C94  1  0.62511796  0.83458680  0.96521169  1  0.058256  0  -0.081075  -0.174582  0  3.951605  0
C  C95  1  0.74285053  0.83729905  0.96490695  1  0.424849  0  0.056418  0.101386  0  3.94279  0
C  C96  1  0.00000057  0.66752607  0.55915632  1  1.520265  0  0.190161  0.554601  0  4.223388  0
C  C97  1  0.00000070  0.70921569  0.62406577  1  -0.068523  0  -0.032248  -0.019324  0  4.063936  0
C  C98  1  0.00000020  0.64703285  0.67652604  1  -0.137784  0  -0.130093  -0.187619  0  4.062406  0
C  C99  1  0.00000032  0.68756052  0.73612907  1  0.026438  0  -0.096758  -0.07639  0  4.041423  0
C  C100  1  0.99999860  0.80967863  0.63227312  1  -0.001272  0  -0.111488  -0.238707  0  3.947914  0
C  C101  1  0.00000093  0.85179946  0.69285069  1  0.48159  0  0.104707  0.308478  0  4.087055  0
C  C102  1  0.00000010  0.78835071  0.74608214  1  -0.034597  0  -0.037641  -0.156035  0  3.925672  0
C  C103  1  0.00000023  0.82404521  0.81210745  1  1.525425  0  0.178598  0.56195  0  4.225528  0
C  C104  1  0.99999957  0.33247424  0.44084390  1  1.520229  0  0.190158  0.554622  0  4.223386  0
C  C105  1  0.00000029  0.29078534  0.37593351  1  -0.068443  0  -0.032275  -0.019353  0  4.064083  0
C  C106  1  0.00000027  0.35296889  0.32347367  1  -0.137871  0  -0.130057  -0.187635  0  4.062368  0
C  C107  1  0.00000067  0.31243978  0.26387115  1  0.02644  0  -0.096757  -0.076364  0  4.041327  0
C  C108  1  0.00000069  0.19032167  0.36772663  1  -0.001269  0  -0.111526  -0.238702  0  3.947947  0
C  C109  1  0.00000057  0.14819941  0.30714911  1  0.481607  0  0.104681  0.308408  0  4.087188  0
C  C110  1  0.00000056  0.21165034  0.25391765  1  -0.034617  0  -0.037709  -0.156161  0  3.925773  0
C  C111  1  0.99999992  0.17595510  0.18789277  1  1.525401  0  0.178593  0.561954  0  4.225562  0
C  C112  1  0.99999698  0.83247159  0.05915553  1  1.520497  0  0.190108  0.554539  0  4.2236  0
C  C113  1  0.99999703  0.79078419  0.12406497  1  -0.068513  0  -0.032202  -0.019293  0  4.0639  0
C  C114  1  0.99999801  0.85296632  0.17652624  1  -0.137749  0  -0.130097  -0.187644  0  4.06239  0
C  C115  1  0.99999890  0.81243941  0.23612926  1  0.026498  0  -0.096755  -0.076315  0  4.041389  0
C  C116  1  0.00000085  0.69032052  0.13227285  1  -0.001299  0  -0.111471  -0.238575  0  3.947901  0
C  C117  1  0.00000004  0.64820121  0.19285036  1  0.481599  0  0.10473  0.308401  0  4.087137  0
C  C118  1  0.99999966  0.71165069  0.24608179  1  -0.034618  0  -0.037722  -0.156181  0  3.925879  0
C  C119  1  0.99999887  0.67595551  0.31210709  1  1.525421  0  0.178586  0.561955  0  4.225619  0
C  C120  1  0.00000062  0.16752653  0.94084329  1  1.520266  0  0.190149  0.554507  0  4.223499  0
C  C121  1  0.00000142  0.20921538  0.87593337  1  -0.068457  0  -0.032314  -0.019405  0  4.064039  0
C  C122  1  0.00000044  0.14703253  0.82347352  1  -0.137845  0  -0.129997  -0.187401  0  4.06222  0
C  C123  1  0.99999988  0.18756088  0.76387046  1  0.026421  0  -0.096768  -0.076492  0  4.04136  0
C  C124  1  0.00000066  0.30967907  0.86772648  1  -0.0013  0  -0.111504  -0.238684  0  3.947883  0
C  C125  1  0.99999925  0.35179909  0.80714939  1  0.481588  0  0.104734  0.308492  0  4.087011  0
C  C126  1  0.99999996  0.28834959  0.75391745  1  -0.034633  0  -0.037695  -0.156118  0  3.925759  0
C  C127  1  0.99999991  0.32404550  0.68789215  1  1.525468  0  0.178643  0.561974  0  4.225541  0
N  N128  1  0.80153528  0.59277471  0.43526739  1  -1.211087  0  -0.316149  -0.214347  0  3.484422  0
N  N129  1  0.80153528  0.40722602  0.56473216  1  -1.211166  0  -0.316126  -0.214339  0  3.484383  0
N  N130  1  0.19846332  0.90722317  0.93526794  1  -1.211207  0  -0.316076  -0.214263  0  3.484125  0
N  N131  1  0.19846387  0.09277598  0.06473203  1  -1.211308  0  -0.316089  -0.214264  0  3.484226  0
N  N132  1  0.19846402  0.40722560  0.56473143  1  -1.211226  0  -0.316117  -0.214306  0  3.484314  0
N  N133  1  0.19846401  0.59277428  0.43526854  1  -1.211277  0  -0.316114  -0.214321  0  3.484187  0
N  N134  1  0.80153598  0.09277495  0.06473275  1  -1.211198  0  -0.316152  -0.21437  0  3.484395  0
N  N135  1  0.80153628  0.90722433  0.93526726  1  -1.211213  0  -0.316115  -0.214293  0  3.484327  0
N  N136  1  0.99999968  0.95010939  0.69953265  1  -1.294312  0  -0.597987  -0.630529  0  3.381593  0
N  N137  1  0.00000131  0.04989164  0.30046710  1  -1.294326  0  -0.597945  -0.630369  0  3.381737  0
N  N138  1  0.00000250  0.54989126  0.19953328  1  -1.294304  0  -0.597967  -0.630361  0  3.381616  0
N  N139  1  0.99999594  0.45010904  0.80046694  1  -1.29431  0  -0.597985  -0.630455  0  3.381553  0
O  O140  1  0.00000005  0.72540503  0.51228371  1  -1.162932  0  -0.337056  -0.557267  0  2.176408  0
O  O141  1  0.99999996  0.57494873  0.55143074  1  -1.198843  0  -0.34342  -0.59683  0  2.316083  0
O  O142  1  0.00000023  0.76384888  0.85737386  1  -1.152386  0  -0.352367  -0.566465  0  2.125068  0
O  O143  1  0.00000033  0.91697299  0.82234696  1  -1.193448  0  -0.340992  -0.578971  0  2.242388  0
O  O144  1  0.00000179  0.27459454  0.48771605  1  -1.16293  0  -0.337069  -0.557257  0  2.176413  0
O  O145  1  0.99999713  0.42505155  0.44856991  1  -1.199269  0  -0.34341  -0.596858  0  2.316045  0
O  O146  1  0.99999906  0.23615070  0.14262636  1  -1.152381  0  -0.352352  -0.566452  0  2.125055  0
O  O147  1  0.00000202  0.08302806  0.17765331  1  -1.193409  0  -0.341002  -0.578966  0  2.242383  0
O  O148  1  0.00000161  0.77459187  0.01228392  1  -1.163021  0  -0.337078  -0.557236  0  2.176443  0
O  O149  1  0.99999366  0.92504890  0.05142860  1  -1.199481  0  -0.343359  -0.596825  0  2.316081  0
O  O150  1  0.99999984  0.73615187  0.35737352  1  -1.152388  0  -0.352358  -0.566456  0  2.12502  0
O  O151  1  0.00000016  0.58302775  0.32234661  1  -1.193407  0  -0.340989  -0.578953  0  2.242446  0
O  O152  1  0.00000074  0.22540554  0.98771587  1  -1.16293  0  -0.33706  -0.557191  0  2.17647  0
O  O153  1  0.99999970  0.07494922  0.94856974  1  -1.198822  0  -0.343424  -0.596842  0  2.316015  0
O  O154  1  0.99999978  0.26384842  0.64262619  1  -1.152396  0  -0.352366  -0.566446  0  2.125041  0
O  O155  1  0.00000050  0.41697257  0.67765318  1  -1.193434  0  -0.340997  -0.578957  0  2.242413  0
