# generated using pymatgen
data_NiH18C20(I2O3)4
_symmetry_space_group_name_H-M   'P 1'
_cell_length_a   9.67268960
_cell_length_b   10.42323797
_cell_length_c   10.11131108
_cell_angle_alpha   102.37110431
_cell_angle_beta   98.84517099
_cell_angle_gamma   112.74336473
_symmetry_Int_Tables_number   1
_chemical_formula_structural   NiH18C20(I2O3)4
_chemical_formula_sum   'Ni1 H18 C20 I8 O12'
_cell_volume   886.09621675
_cell_formula_units_Z   1
loop_
 _symmetry_equiv_pos_site_id
 _symmetry_equiv_pos_as_xyz
  1  'x, y, z'
loop_
 _atom_site_type_symbol
 _atom_site_label
 _atom_site_symmetry_multiplicity
 _atom_site_fract_x
 _atom_site_fract_y
 _atom_site_fract_z
 _atom_site_occupancy
 _atom_site_pbe_cm5_charge
 _atom_site_pbe_ddec_charge
 _atom_site_pbe_ddec_spin_density
 _atom_site_pbe_ddec_sum_bond_order
 _atom_site_pbe_magmom
Ni  Ni0  1  0.99999323  0.49999013  0.49999089  1  0.60383  0.861202  -0.011699  2.256611  -0.008
H  H1  1  0.34085676  0.49843406  0.56049733  1  0.083223  0.081199  -0.000541  1.043543  -0.001
H  H2  1  0.65911973  0.50156675  0.43948837  1  0.083296  0.081252  -0.000541  1.043604  -0.001
H  H3  1  0.31028700  0.33288554  0.43731918  1  0.075937  0.070218  -0.003905  1.053675  -0.004
H  H4  1  0.68971011  0.66712385  0.56268290  1  0.07592  0.070179  -0.003908  1.053589  -0.004
H  H5  1  0.23491504  0.32588736  0.58810450  1  0.085933  0.093821  9.9e-05  1.024729  0.0
H  H6  1  0.76508884  0.67411136  0.41188434  1  0.085967  0.093978  9.8e-05  1.024662  0.0
H  H7  1  0.84115629  0.58984848  0.21922174  1  0.080963  0.080158  1e-06  1.036941  0.0
H  H8  1  0.15885549  0.41016134  0.78077344  1  0.080929  0.080118  1e-06  1.036938  0.0
H  H9  1  0.82257596  0.43943336  0.07959526  1  0.08603  0.089758  0.000875  1.013674  0.001
H  H10  1  0.17743717  0.56057222  0.92039921  1  0.086039  0.089765  0.000875  1.013605  0.001
H  H11  1  0.00981737  0.56662015  0.19250784  1  0.083718  0.08518  3.2e-05  1.060458  0.0
H  H12  1  0.99019397  0.43337814  0.80749871  1  0.083687  0.085118  3.2e-05  1.060554  0.0
H  H13  1  0.03459021  0.27866726  0.39939089  1  0.295831  0.338997  -0.000465  0.982212  0.0
H  H14  1  0.96539416  0.72131176  0.60061003  1  0.295816  0.338857  -0.000466  0.982436  0.0
H  H15  1  0.76683311  0.35433615  0.26706601  1  0.278414  0.29318  0.000333  1.02753  0.0
H  H16  1  0.23315642  0.64566089  0.73291961  1  0.278397  0.293183  0.000333  1.027556  0.0
H  H17  1  0.79310148  0.96841424  0.31249442  1  0.295483  0.364187  -1e-05  0.962831  0.0
H  H18  1  0.20688399  0.03157008  0.68750282  1  0.295402  0.364137  -1e-05  0.962974  0.0
C  C19  1  0.21061858  0.81244816  0.54666407  1  0.206406  0.57304  0.001577  4.207757  0.0
C  C20  1  0.78939028  0.18752664  0.45334510  1  0.206288  0.572712  0.001578  4.207906  0.0
C  C21  1  0.36126655  0.91531578  0.52720442  1  -0.032506  -0.084362  0.005477  3.99611  0.005
C  C22  1  0.63871595  0.08465140  0.47279476  1  -0.032388  -0.084021  0.005479  3.995234  0.005
C  C23  1  0.50340484  0.93385596  0.60765270  1  -0.061872  -0.017813  0.001643  3.914231  0.001
C  C24  1  0.49656065  0.06610831  0.39233967  1  -0.062113  -0.018339  0.001643  3.914305  0.001
C  C25  1  0.35766026  0.98179097  0.42037003  1  -0.062461  -0.016853  0.001435  3.926399  0.001
C  C26  1  0.64231660  0.01819518  0.57962845  1  -0.06275  -0.017523  0.001438  3.926956  0.001
C  C27  1  0.25862818  0.38382346  0.50921089  1  -0.163954  -0.128154  -0.003557  3.927799  -0.001
C  C28  1  0.74136636  0.61617058  0.49077476  1  -0.163996  -0.128299  -0.003556  3.927886  -0.001
C  C29  1  0.88659606  0.50951065  0.18750506  1  -0.16024  -0.119967  0.001452  3.899468  0.001
C  C30  1  0.11340729  0.49049142  0.81249234  1  -0.160224  -0.119919  0.001451  3.899592  0.001
C  C31  1  0.64353450  0.80996644  0.15041101  1  0.206647  0.566423  2.5e-05  4.204214  0.0
C  C32  1  0.35649829  0.19006867  0.84958238  1  0.206337  0.565935  2.5e-05  4.204343  0.0
C  C33  1  0.57480884  0.64795352  0.07860176  1  -0.026491  -0.074544  -1.8e-05  3.982891  0.0
C  C34  1  0.42520908  0.35207877  0.92138611  1  -0.026396  -0.074667  -1.8e-05  3.983262  0.0
C  C35  1  0.44231148  0.55295387  0.10822105  1  -0.06236  -0.031883  0.000158  3.922576  0.0
C  C36  1  0.55769447  0.44707925  0.89177830  1  -0.062298  -0.031557  0.000159  3.923044  0.0
C  C37  1  0.36702299  0.40502999  0.02869854  1  -0.058305  -0.013375  1.1e-05  3.917186  0.0
C  C38  1  0.63299277  0.59499249  0.97128203  1  -0.058126  -0.013376  1.1e-05  3.917325  0.0
I  I39  1  0.50951571  0.84843495  0.77812100  1  0.158732  0.084396  0.001884  1.931122  0.001
I  I40  1  0.49046706  0.15154962  0.22189375  1  0.158728  0.084471  0.001882  1.931263  0.001
I  I41  1  0.13966740  0.94261638  0.29962345  1  0.110637  0.026824  0.001054  1.821557  0.001
I  I42  1  0.86029835  0.05740934  0.70045712  1  0.11063  0.026857  0.001054  1.821679  0.001
I  I43  1  0.35970696  0.63383410  0.27147187  1  0.153106  0.092827  0.000209  1.883182  0.0
I  I44  1  0.64032727  0.36618342  0.72854568  1  0.153092  0.092823  0.00021  1.883139  0.0
I  I45  1  0.16088849  0.26088559  0.06160892  1  0.12611  0.048671  -0.000205  1.768185  0.0
I  I46  1  0.83915169  0.73912364  0.93835524  1  0.126036  0.048536  -0.000205  1.767944  0.0
O  O47  1  0.17157230  0.67852995  0.48496951  1  -0.294688  -0.504748  0.036216  2.398015  0.038
O  O48  1  0.82841737  0.32148139  0.51503795  1  -0.294635  -0.50459  0.036257  2.396983  0.038
O  O49  1  0.13605717  0.86213525  0.61879244  1  -0.286721  -0.507814  0.00075  2.258605  0.001
O  O50  1  0.86393297  0.13785553  0.38125328  1  -0.286551  -0.507524  0.000748  2.260071  0.001
O  O51  1  0.11971010  0.38023142  0.42971648  1  -0.401028  -0.443513  -0.053578  2.543704  -0.058
O  O52  1  0.88027071  0.61974720  0.57027104  1  -0.401072  -0.443366  -0.053586  2.543869  -0.058
O  O53  1  0.87618498  0.42157383  0.28100721  1  -0.396673  -0.414502  0.014746  2.515825  0.016
O  O54  1  0.12380880  0.57842039  0.71898926  1  -0.396669  -0.414498  0.014748  2.516016  0.016
O  O55  1  0.59755253  0.88630680  0.09709682  1  -0.287185  -0.471768  8.6e-05  2.21891  0.0
O  O56  1  0.40247527  0.11371043  0.90291885  1  -0.287132  -0.471614  8.6e-05  2.218347  0.0
O  O57  1  0.75281993  0.85709651  0.26965618  1  -0.33438  -0.489761  4.8e-05  2.361433  0.0
O  O58  1  0.24719818  0.14288889  0.73033171  1  -0.33435  -0.489651  4.8e-05  2.361686  0.0
