# generated using pymatgen
data_Co3PH12C18N3O10
_symmetry_space_group_name_H-M   'P 1'
_cell_length_a   4.38487511
_cell_length_b   11.54984100
_cell_length_c   11.55660713
_cell_angle_alpha   118.39567246
_cell_angle_beta   97.16060160
_cell_angle_gamma   97.33009338
_symmetry_Int_Tables_number   1
_chemical_formula_structural   Co3PH12C18N3O10
_chemical_formula_sum   'Co3 P1 H12 C18 N3 O10'
_cell_volume   499.00133358
_cell_formula_units_Z   1
loop_
 _symmetry_equiv_pos_site_id
 _symmetry_equiv_pos_as_xyz
  1  'x, y, z'
loop_
 _atom_site_type_symbol
 _atom_site_label
 _atom_site_symmetry_multiplicity
 _atom_site_fract_x
 _atom_site_fract_y
 _atom_site_fract_z
 _atom_site_occupancy
 _atom_site_hle17_ddec_charge
 _atom_site_hle17_ddec_spin_density
 _atom_site_hle17_ddec_sum_bond_order
 _atom_site_hle17_magmom
 _atom_site_hse06_10hf_ddec_charge
 _atom_site_hse06_10hf_ddec_spin_density
 _atom_site_hse06_10hf_ddec_sum_bond_order
 _atom_site_hse06_10hf_magmom
 _atom_site_hse06_ddec_charge
 _atom_site_hse06_ddec_spin_density
 _atom_site_hse06_ddec_sum_bond_order
 _atom_site_hse06_magmom
 _atom_site_pbe_cm5_charge
 _atom_site_pbe_ddec_charge
 _atom_site_pbe_ddec_spin_density
 _atom_site_pbe_ddec_sum_bond_order
 _atom_site_pbe_magmom
Co  Co0  1  0.87943235  0.18221890  0.00010881  1  1.111853  2.968638  1.910931  2.586  1.086324  2.886484  2.314839  2.654  1.159902  2.928029  2.241989  2.727  0.69104  1.023663  2.832669  2.373416  2.567
Co  Co1  1  0.69967100  0.81772049  0.81770050  1  1.113683  -2.89305  1.911965  -2.593  1.086587  -2.86025  2.316088  -2.659  1.160203  -2.897352  2.243119  -2.729  0.693096  1.028864  -2.827942  2.371675  -2.594
Co  Co2  1  0.88233933  0.99942995  0.18279547  1  1.107028  -2.882653  1.907717  -2.583  1.085444  -2.858608  2.310407  -2.656  1.160068  -2.898121  2.237222  -2.728  0.687053  1.017113  -2.80478  2.372905  -2.572
P  P3  1  0.33840068  0.00011508  0.99977672  1  1.702517  -0.001705  4.922775  0.001  1.539094  -0.005108  5.449455  -0.003  1.603008  -0.00369  5.406524  -0.002  0.36004  1.488531  -0.006141  5.477176  -0.003
H  H4  1  0.05989800  0.56327296  0.37635690  1  0.111287  -9.8e-05  0.942583  0.0  0.121545  -0.000326  1.000894  0.0  0.124929  -0.000245  1.000193  0.0  0.109805  0.119169  -0.000391  1.001695  0.0
H  H5  1  0.49660872  0.81349630  0.43716275  1  0.111028  3.8e-05  0.942661  0.0  0.121301  -0.000172  1.001064  0.0  0.124803  -9.9e-05  1.00021  0.0  0.109224  0.118596  -0.000244  1.002066  0.0
H  H6  1  0.68151539  0.62339429  0.18659647  1  0.110992  -1.5e-05  0.942533  0.0  0.121619  0.000297  1.000555  0.0  0.125046  0.000219  0.999796  0.0  0.109517  0.119063  0.000378  1.001471  0.0
H  H7  1  0.98881454  0.75893863  0.58808084  1  0.093283  -0.000502  0.94823  -0.002  0.098338  -0.000146  1.015209  -0.001  0.10168  -4.1e-05  1.011833  -0.001  0.118741  0.095577  -0.000249  1.018247  -0.001
H  H8  1  0.23114994  0.82946067  0.24145639  1  0.093288  -0.000459  0.947518  -0.002  0.097896  -4.5e-05  1.015204  -0.001  0.1013  2.2e-05  1.011794  -0.001  0.118387  0.094975  -0.000138  1.018382  -0.001
H  H9  1  0.39970243  0.41114124  0.17015430  1  0.093614  0.000509  0.947917  0.002  0.098255  6.8e-05  1.015187  0.001  0.101709  -1e-05  1.011754  0.001  0.118783  0.095214  0.000162  1.018567  0.001
H  H10  1  0.46471224  0.50725736  0.68589858  1  0.081968  -0.000504  0.957506  -0.002  0.088318  -0.000251  1.023438  -0.001  0.091005  -0.000144  1.02142  -0.001  0.114094  0.086455  -0.000329  1.024976  -0.001
H  H11  1  0.95760052  0.17841089  0.49249146  1  0.081756  -0.000653  0.958058  -0.002  0.088186  -0.000347  1.024019  -0.001  0.091103  -0.00021  1.02172  -0.001  0.114211  0.08605  -0.00048  1.025853  -0.001
H  H12  1  0.77909596  0.31375087  0.82157772  1  0.082363  0.000525  0.958188  0.002  0.088302  0.000213  1.024478  0.001  0.091177  0.000114  1.022224  0.001  0.114161  0.086364  0.000307  1.02604  0.001
H  H13  1  0.53069176  0.29990784  0.48195067  1  0.111787  -4.1e-05  0.955432  0.0  0.120295  -0.000231  1.01787  0.0  0.123525  -0.000136  1.017131  0.0  0.108453  0.118015  -0.000291  1.018723  0.0
H  H14  1  0.23035545  0.18198028  0.69982225  1  0.112077  -0.000192  0.955015  0.0  0.12091  -0.0004  1.017236  0.0  0.124263  -0.000327  1.016362  0.0  0.108695  0.118171  -0.000472  1.018462  0.0
H  H15  1  0.04826183  0.51822730  0.81850698  1  0.111785  0.000151  0.955377  0.0  0.119774  0.00039  1.018495  0.0  0.123161  0.000323  1.017576  0.0  0.108099  0.117051  0.000466  1.019749  0.0
C  C16  1  0.85440028  0.29648539  0.29247405  1  0.676432  0.001437  3.844942  0.0  0.633609  0.001097  4.139121  0.0  0.673192  0.000641  4.126575  0.0  0.227657  0.603469  0.001923  4.148664  0.001
C  C17  1  0.55898862  0.99644375  0.70344490  1  0.674758  -0.001255  3.848213  -0.002  0.63291  -0.000836  4.140551  -0.001  0.672537  -0.000663  4.127815  0.0  0.226358  0.603391  -0.000831  4.150151  -0.001
C  C18  1  0.56248332  0.70752700  0.00429465  1  0.673484  0.00662  3.846038  0.011  0.632183  -0.001461  4.138909  -0.002  0.672128  -0.001531  4.125968  -0.003  0.225794  0.601491  0.000438  4.149028  0.002
C  C19  1  0.80268037  0.41616018  0.41374929  1  -0.008699  0.015229  3.735916  0.019  0.010849  0.005538  3.963561  0.007  0.011115  0.00401  3.98027  0.005  -0.000189  0.009269  0.008305  3.95485  0.01
C  C20  1  0.38679940  0.99787263  0.58392663  1  -0.008776  0.01639  3.735892  0.021  0.011696  0.00565  3.961623  0.007  0.012117  0.004075  3.97809  0.005  0.000142  0.008846  0.008461  3.954151  0.01
C  C21  1  0.38792618  0.58631433  0.00251339  1  -0.008491  -0.022832  3.735432  -0.031  0.01191  -0.009429  3.961218  -0.013  0.012183  -0.006926  3.977791  -0.01  0.000399  0.009859  -0.012835  3.953106  -0.018
C  C22  1  0.92672541  0.54711521  0.44287133  1  -0.129523  -0.010839  3.714237  -0.015  -0.149352  -0.002876  3.957899  -0.004  -0.155892  -0.002837  3.977465  -0.004  -0.080414  -0.145555  -0.002831  3.946791  -0.005
C  C23  1  0.37971720  0.89604643  0.45313472  1  -0.129744  -0.01172  3.716408  -0.016  -0.149414  -0.003032  3.959207  -0.004  -0.155898  -0.002788  3.978488  -0.004  -0.080449  -0.145682  -0.003374  3.949189  -0.005
C  C24  1  0.48226065  0.55692047  0.10407592  1  -0.129901  0.014073  3.713981  0.019  -0.150135  0.003391  3.956944  0.005  -0.156585  0.003107  3.976292  0.004  -0.080672  -0.146378  0.004188  3.946224  0.006
C  C25  1  0.88606486  0.65576794  0.55939138  1  0.13653  0.014491  3.67161  0.019  0.107808  0.004676  3.932846  0.006  0.117459  0.004012  3.945189  0.005  0.048192  0.099786  0.005759  3.926597  0.007
C  C26  1  0.23098052  0.90383738  0.34447318  1  0.135564  0.016468  3.672823  0.021  0.1074  0.005459  3.933776  0.007  0.11721  0.004556  3.945725  0.006  0.046986  0.098812  0.007133  3.928485  0.009
C  C27  1  0.32556256  0.44006731  0.09597204  1  0.135856  -0.016779  3.673477  -0.023  0.108056  -0.005459  3.933882  -0.007  0.117866  -0.004641  3.945769  -0.006  0.047131  0.099606  -0.006703  3.9285  -0.009
C  C28  1  0.59682649  0.51434288  0.61483687  1  0.111437  0.012678  3.72161  0.017  0.086667  0.00307  3.979503  0.005  0.093663  0.002674  3.996229  0.004  0.040925  0.081354  0.004005  3.968964  0.005
C  C29  1  0.08268541  0.10042949  0.48556717  1  0.110747  0.013339  3.721701  0.018  0.086059  0.002996  3.979458  0.005  0.093119  0.002711  3.995841  0.004  0.038861  0.080197  0.003884  3.970058  0.005
C  C30  1  0.98181987  0.38487370  0.89958343  1  0.110498  -0.014146  3.721857  -0.02  0.08641  -0.003342  3.978951  -0.005  0.093351  -0.003029  3.995454  -0.005  0.040234  0.080839  -0.004064  3.96897  -0.006
C  C31  1  0.63453210  0.40034803  0.50237220  1  -0.133517  -0.010147  3.722881  -0.014  -0.154166  -0.002262  3.966628  -0.004  -0.159812  -0.002444  3.985995  -0.004  -0.083694  -0.150925  -0.001767  3.955283  -0.004
C  C32  1  0.23413001  0.10207817  0.59954278  1  -0.133408  -0.012588  3.722279  -0.018  -0.15395  -0.003832  3.964997  -0.006  -0.159601  -0.003664  3.984113  -0.005  -0.084529  -0.151046  -0.004025  3.955251  -0.006
C  C33  1  0.13162626  0.49763618  0.89826573  1  -0.133285  0.01423  3.724024  0.019  -0.153128  0.003439  3.966812  0.005  -0.158784  0.003369  3.986006  0.005  -0.084511  -0.150329  0.003886  3.956572  0.006
N  N34  1  0.72226753  0.64065495  0.64453323  1  -0.304999  -0.040778  3.272752  -0.073  -0.263259  -0.02673  3.563084  -0.045  -0.281853  -0.023081  3.572462  -0.039  -0.322614  -0.250592  -0.029954  3.556996  -0.05
N  N35  1  0.08241057  0.00397351  0.35937266  1  -0.305275  -0.042458  3.275452  -0.076  -0.263846  -0.027875  3.566442  -0.048  -0.282494  -0.023934  3.575372  -0.041  -0.322715  -0.250284  -0.030864  3.561954  -0.052
N  N36  1  0.07732967  0.35486181  0.99585112  1  -0.304892  0.045574  3.274456  0.079  -0.263517  0.028193  3.564086  0.048  -0.281884  0.024094  3.573232  0.041  -0.322845  -0.250418  0.032189  3.558977  0.054
O  O37  1  0.90602492  0.31491494  0.19608620  1  -0.622503  0.037278  2.134731  0.058  -0.591477  0.027026  2.420047  0.04  -0.626395  0.021449  2.407177  0.03  -0.302123  -0.56295  0.033122  2.427459  0.05
O  O38  1  0.59489942  0.88191264  0.68509490  1  -0.623359  -0.034365  2.131534  -0.055  -0.592875  -0.025782  2.416538  -0.038  -0.627544  -0.020429  2.403579  -0.029  -0.302713  -0.565505  -0.031778  2.423908  -0.048
O  O39  1  0.71218195  0.80349241  0.11891104  1  -0.622781  -0.037392  2.135579  -0.062  -0.593231  -0.026217  2.421632  -0.04  -0.628189  -0.020207  2.408438  -0.029  -0.302734  -0.563821  -0.033454  2.429557  -0.052
O  O40  1  0.84818261  0.18969466  0.29937310  1  -0.616581  -0.034488  2.13426  -0.053  -0.582219  -0.029288  2.417264  -0.04  -0.616558  -0.023793  2.401269  -0.031  -0.30124  -0.554332  -0.034567  2.428376  -0.049
O  O41  1  0.65753715  0.11011236  0.81017072  1  -0.616119  0.038655  2.137335  0.058  -0.581638  0.030489  2.420065  0.042  -0.615618  0.024595  2.403815  0.032  -0.300942  -0.554478  0.036363  2.431195  0.052
O  O42  1  0.55031686  0.70103621  0.89085957  1  -0.615553  -0.041265  2.138466  -0.066  -0.581365  -0.031973  2.421622  -0.046  -0.615519  -0.025141  2.405226  -0.034  -0.301042  -0.554901  -0.040106  2.433208  -0.06
O  O43  1  0.69970337  0.00028760  0.99945562  1  -0.967342  -0.030471  2.320814  -0.054  -0.895503  -0.025388  2.59399  -0.04  -0.944241  -0.020862  2.567099  -0.032  -0.361988  -0.85221  -0.029622  2.611616  -0.047
O  O44  1  0.29722454  0.13767140  0.01565120  1  -0.859876  0.068617  2.01538  0.108  -0.825574  0.050605  2.329817  0.074  -0.874738  0.039112  2.311178  0.055  -0.362919  -0.779895  0.062191  2.339064  0.093
O  O45  1  0.15988408  0.87836332  0.86232715  1  -0.860836  -0.073042  2.018168  -0.12  -0.826872  -0.054669  2.332652  -0.083  -0.875518  -0.041084  2.313033  -0.061  -0.364205  -0.7816  -0.070445  2.341855  -0.11
O  O46  1  0.28117374  0.98403513  0.12138666  1  -0.860154  -0.070502  2.018974  -0.116  -0.826226  -0.052747  2.333511  -0.08  -0.875701  -0.039682  2.314725  -0.058  -0.363538  -0.77889  -0.067154  2.342592  -0.104
