# generated using pymatgen
data_ZnH20C33N2(O2F3)2
_symmetry_space_group_name_H-M   'P 1'
_cell_length_a   7.14767631
_cell_length_b   21.99578744
_cell_length_c   23.61826744
_cell_angle_alpha   90.00062077
_cell_angle_beta   90.00038991
_cell_angle_gamma   90.00064708
_symmetry_Int_Tables_number   1
_chemical_formula_structural   ZnH20C33N2(O2F3)2
_chemical_formula_sum   'Zn4 H80 C132 N8 O16 F24'
_cell_volume   3713.23492643
_cell_formula_units_Z   4
loop_
 _symmetry_equiv_pos_site_id
 _symmetry_equiv_pos_as_xyz
  1  'x, y, z'
loop_
 _atom_site_type_symbol
 _atom_site_label
 _atom_site_symmetry_multiplicity
 _atom_site_fract_x
 _atom_site_fract_y
 _atom_site_fract_z
 _atom_site_occupancy
 _atom_site_pbe_bader_charge
 _atom_site_pbe_bader_spin_density
 _atom_site_pbe_cm5_charge
 _atom_site_pbe_ddec_charge
 _atom_site_pbe_ddec_spin_density
 _atom_site_pbe_ddec_sum_bond_order
 _atom_site_pbe_magmom
Zn  Zn0  1  0.51919139  0.29406479  0.82217071  1  1.251417  0  0.69331  0.754046  0  2.39756  0
Zn  Zn1  1  0.51917171  0.70593762  0.17783339  1  1.251603  0  0.693326  0.754086  0  2.397636  0
Zn  Zn2  1  0.48081936  0.20593402  0.32217292  1  1.251376  0  0.693316  0.753993  0  2.397463  0
Zn  Zn3  1  0.48082930  0.79406416  0.67782940  1  1.251371  0  0.693298  0.754037  0  2.397698  0
H  H4  1  0.73656305  0.64961442  0.55186924  1  0.077193  0  0.109742  0.111883  0  0.990274  0
H  H5  1  0.73656792  0.35038197  0.44813193  1  0.077005  0  0.109699  0.111872  0  0.990305  0
H  H6  1  0.26345612  0.85037953  0.05187076  1  0.077068  0  0.109759  0.111965  0  0.990285  0
H  H7  1  0.26343027  0.14961512  0.94813154  1  0.07703  0  0.109731  0.111904  0  0.990284  0
H  H8  1  0.49023530  0.57254591  0.53274145  1  0.064934  0  0.105085  0.10339  0  0.987128  0
H  H9  1  0.49024465  0.42744911  0.46725370  1  0.063553  0  0.105019  0.103315  0  0.987195  0
H  H10  1  0.50978484  0.92744736  0.03274850  1  0.064651  0  0.105032  0.103341  0  0.987093  0
H  H11  1  0.50974976  0.07254683  0.96725940  1  0.063798  0  0.105033  0.103369  0  0.987159  0
H  H12  1  0.45136312  0.48419475  0.59689808  1  0.071348  0  0.102211  0.098761  0  1.006852  0
H  H13  1  0.45136989  0.51579786  0.40309783  1  0.071528  0  0.102208  0.098835  0  1.00671  0
H  H14  1  0.54865939  0.01579915  0.09690107  1  0.071859  0  0.102202  0.09876  0  1.00681  0
H  H15  1  0.54861657  0.98419973  0.90310013  1  0.071463  0  0.102181  0.098764  0  1.006888  0
H  H16  1  0.90006371  0.55111128  0.70142815  1  0.120433  0  0.101562  0.104331  0  1.037395  0
H  H17  1  0.90006584  0.44888572  0.29857336  1  0.120455  0  0.101544  0.104262  0  1.037546  0
H  H18  1  0.09995041  0.94889214  0.20142270  1  0.120623  0  0.101568  0.104324  0  1.037567  0
H  H19  1  0.09993320  0.05111099  0.79856783  1  0.120343  0  0.101557  0.104309  0  1.037341  0
H  H20  1  0.83368331  0.72880872  0.60717015  1  0.145627  0  0.111071  0.127666  0  1.028635  0
H  H21  1  0.83369680  0.27118121  0.39283502  1  0.145666  0  0.111097  0.127613  0  1.028629  0
H  H22  1  0.16631751  0.77118587  0.10716983  1  0.145583  0  0.11107  0.127669  0  1.028627  0
H  H23  1  0.16631694  0.22881342  0.89283057  1  0.145589  0  0.111081  0.127689  0  1.028586  0
H  H24  1  0.09497055  0.80003201  0.62592853  1  0.153752  0  0.126744  0.108626  0  0.987147  0
H  H25  1  0.09499375  0.19996837  0.37407003  1  0.153573  0  0.126798  0.108673  0  0.987186  0
H  H26  1  0.90503069  0.69996644  0.12593326  1  0.153593  0  0.126752  0.108642  0  0.987084  0
H  H27  1  0.90504615  0.30003376  0.87406825  1  0.153604  0  0.126779  0.108644  0  0.987051  0
H  H28  1  0.42620388  0.66408244  0.69382521  1  0.137829  0  0.118754  0.09615  0  1.012666  0
H  H29  1  0.42620787  0.33592053  0.30617277  1  0.138066  0  0.118711  0.096108  0  1.012672  0
H  H30  1  0.57380587  0.83592407  0.19382300  1  0.137877  0  0.118782  0.096172  0  1.012618  0
H  H31  1  0.57378853  0.16408309  0.80617656  1  0.137836  0  0.118744  0.096179  0  1.012557  0
H  H32  1  0.18473641  0.58468804  0.67410423  1  0.102009  0  0.103947  0.110348  0  1.012788  0
H  H33  1  0.18473239  0.41530449  0.32589155  1  0.102051  0  0.103963  0.11039  0  1.012884  0
H  H34  1  0.81527850  0.91531278  0.17409909  1  0.102191  0  0.103983  0.11032  0  1.012813  0
H  H35  1  0.81525747  0.08468981  0.82589885  1  0.102055  0  0.103979  0.110367  0  1.012779  0
H  H36  1  0.34467994  0.45566504  0.68079687  1  0.085453  0  0.104665  0.109993  0  1.008101  0
H  H37  1  0.34467183  0.54432809  0.31920348  1  0.085302  0  0.104803  0.110111  0  1.008104  0
H  H38  1  0.65532905  0.04433394  0.18079740  1  0.085372  0  0.104749  0.110046  0  1.008077  0
H  H39  1  0.65533373  0.95566670  0.81920529  1  0.085289  0  0.104729  0.110073  0  1.008053  0
H  H40  1  0.30173796  0.36877325  0.74761840  1  0.182926  0  0.116757  0.101733  0  1.050128  0
H  H41  1  0.30172576  0.63121835  0.25238229  1  0.182083  0  0.116769  0.101789  0  1.050243  0
H  H42  1  0.69828092  0.13122195  0.24761989  1  0.182775  0  0.116756  0.101832  0  1.050199  0
H  H43  1  0.69827272  0.86877430  0.75238247  1  0.182817  0  0.116783  0.101886  0  1.050215  0
H  H44  1  0.86975367  0.36435504  0.78440955  1  0.140802  0  0.124728  0.10834  0  1.000401  0
H  H45  1  0.86973380  0.63564458  0.21558850  1  0.140983  0  0.124743  0.108314  0  1.000397  0
H  H46  1  0.13026604  0.13564060  0.28441753  1  0.141359  0  0.124713  0.108227  0  1.00042  0
H  H47  1  0.13025546  0.86435355  0.71558619  1  0.140832  0  0.124696  0.108267  0  1.000389  0
H  H48  1  0.93597033  0.44950927  0.71930578  1  0.117088  0  0.106989  0.119173  0  1.003216  0
H  H49  1  0.93595318  0.55049241  0.28068987  1  0.117253  0  0.106979  0.119104  0  1.003405  0
H  H50  1  0.06405071  0.05048925  0.21930684  1  0.117168  0  0.106987  0.119064  0  1.003458  0
H  H51  1  0.06404313  0.94951012  0.78069039  1  0.117219  0  0.106989  0.119134  0  1.003377  0
H  H52  1  0.71674234  0.16287404  0.65203965  1  0.095506  0  0.102806  0.112121  0  0.99702  0
H  H53  1  0.71672539  0.83711637  0.34796528  1  0.095395  0  0.102751  0.112079  0  0.997  0
H  H54  1  0.28325482  0.33712824  0.15203897  1  0.095376  0  0.102787  0.112113  0  0.996955  0
H  H55  1  0.28325983  0.66287876  0.84796041  1  0.095475  0  0.10281  0.112162  0  0.996982  0
H  H56  1  0.86170061  0.24697619  0.70714842  1  0.068842  0  0.103523  0.107648  0  1.003951  0
H  H57  1  0.86170611  0.75301703  0.29285343  1  0.069136  0  0.103575  0.107729  0  1.003942  0
H  H58  1  0.13827959  0.25303128  0.20714955  1  0.068557  0  0.103559  0.107686  0  1.003979  0
H  H59  1  0.13828768  0.74698018  0.79285376  1  0.068716  0  0.10353  0.107599  0  1.00391  0
H  H60  1  0.35999750  0.14098054  0.72777716  1  0.088527  0  0.098409  0.102452  0  1.024548  0
H  H61  1  0.35999220  0.85902310  0.27222746  1  0.088685  0  0.098335  0.102397  0  1.024584  0
H  H62  1  0.63998177  0.35902444  0.22777278  1  0.088509  0  0.098356  0.10237  0  1.024571  0
H  H63  1  0.63999832  0.64098024  0.77222861  1  0.088508  0  0.098404  0.102465  0  1.024562  0
H  H64  1  0.21924900  0.05649197  0.67442593  1  0.104805  0  0.09075  0.09851  0  1.05146  0
H  H65  1  0.21922264  0.94350797  0.32557289  1  0.104418  0  0.090752  0.098458  0  1.051412  0
H  H66  1  0.78074866  0.44351056  0.17442015  1  0.104894  0  0.090754  0.09855  0  1.051591  0
H  H67  1  0.78074810  0.55649054  0.82557263  1  0.104816  0  0.090722  0.098395  0  1.05152  0
H  H68  1  0.50358177  0.02603883  0.57843089  1  0.099202  0  0.092935  0.100801  0  1.042049  0
H  H69  1  0.50354881  0.97395397  0.42156259  1  0.099009  0  0.092981  0.100781  0  1.042134  0
H  H70  1  0.49642074  0.47396213  0.07843837  1  0.098944  0  0.092966  0.100909  0  1.04205  0
H  H71  1  0.49643946  0.52604611  0.92156399  1  0.099114  0  0.09298  0.100772  0  1.042028  0
H  H72  1  0.36327866  0.07179547  0.49271554  1  0.100347  0  0.101478  0.110125  0  1.009324  0
H  H73  1  0.36324604  0.92820136  0.50728189  1  0.100324  0  0.101443  0.109986  0  1.009433  0
H  H74  1  0.63673731  0.42820577  0.99272381  1  0.100373  0  0.10145  0.11004  0  1.009371  0
H  H75  1  0.63674696  0.57180298  0.00728053  1  0.100319  0  0.101492  0.110131  0  1.009362  0
H  H76  1  0.85283798  0.18145496  0.46840279  1  0.091321  0  0.103888  0.108549  0  1.00605  0
H  H77  1  0.85281331  0.81855596  0.53160327  1  0.091692  0  0.103862  0.108472  0  1.006111  0
H  H78  1  0.14717605  0.31855510  0.96839667  1  0.091874  0  0.103896  0.10851  0  1.00608  0
H  H79  1  0.14716903  0.68144685  0.03160201  1  0.09164  0  0.103892  0.108499  0  1.006051  0
H  H80  1  0.99229614  0.13902078  0.55569236  1  0.099723  0  0.102594  0.111097  0  0.997274  0
H  H81  1  0.99228357  0.86098474  0.44431103  1  0.099944  0  0.10266  0.111201  0  0.997314  0
H  H82  1  0.00770306  0.36098219  0.05568372  1  0.099877  0  0.10265  0.111178  0  0.997255  0
H  H83  1  0.00771221  0.63901560  0.94431170  1  0.099887  0  0.102647  0.11117  0  0.997265  0
C  C84  1  0.83827309  0.60453323  0.62715787  1  0.028463  0  -0.004127  0.068978  0  3.999623  0
C  C85  1  0.83827643  0.39546399  0.37284138  1  0.027846  0  -0.004093  0.069233  0  3.999445  0
C  C86  1  0.16172678  0.89546841  0.12715414  1  0.027679  0  -0.004095  0.069131  0  3.99934  0
C  C87  1  0.16171167  0.10453313  0.87284118  1  0.028301  0  -0.004149  0.06899  0  3.999623  0
C  C88  1  0.71856805  0.61106172  0.58037450  1  -0.031834  0  -0.080059  -0.116063  0  3.950587  0
C  C89  1  0.71857221  0.38893461  0.41962493  1  -0.031165  0  -0.080074  -0.11632  0  3.950465  0
C  C90  1  0.28144897  0.88893256  0.08037476  1  -0.03143  0  -0.080163  -0.116415  0  3.950432  0
C  C91  1  0.28141555  0.11106396  0.91962673  1  -0.031739  0  -0.080052  -0.116141  0  3.950314  0
C  C92  1  0.58028868  0.56784994  0.56977006  1  -0.05887  0  -0.089941  -0.078419  0  4.053585  0
C  C93  1  0.58028477  0.43214224  0.43022612  1  -0.057237  0  -0.089887  -0.078187  0  4.053249  0
C  C94  1  0.41973509  0.93214285  0.06977358  1  -0.05763  0  -0.089884  -0.078193  0  4.053185  0
C  C95  1  0.41970042  0.06785283  0.93022862  1  -0.057217  0  -0.08986  -0.078377  0  4.053323  0
C  C96  1  0.55777042  0.51836700  0.60600657  1  -0.077053  0  -0.087642  -0.129688  0  3.97989  0
C  C97  1  0.55776462  0.48162464  0.39398999  1  -0.078184  0  -0.087576  -0.129756  0  3.979852  0
C  C98  1  0.44224717  0.98162712  0.10600682  1  -0.078956  0  -0.087536  -0.129628  0  3.979813  0
C  C99  1  0.44222396  0.01837000  0.89399161  1  -0.077761  0  -0.087637  -0.129707  0  3.980041  0
C  C100  1  0.67383513  0.51140207  0.65369686  1  0.00646  0  -0.008808  0.063172  0  4.007988  0
C  C101  1  0.67384388  0.48859318  0.34630333  1  0.007653  0  -0.00894  0.062833  0  4.008287  0
C  C102  1  0.32618213  0.98859170  0.15369906  1  0.007282  0  -0.008804  0.063054  0  4.007936  0
C  C103  1  0.32616881  0.01140408  0.84630041  1  0.006367  0  -0.008857  0.063016  0  4.008175  0
C  C104  1  0.81409555  0.55465658  0.66344688  1  -0.085571  0  -0.081439  -0.165137  0  3.909855  0
C  C105  1  0.81409980  0.44533919  0.33655190  1  -0.08576  0  -0.081393  -0.16503  0  3.910151  0
C  C106  1  0.18591213  0.94534095  0.16344412  1  -0.085544  0  -0.081505  -0.165221  0  3.910339  0
C  C107  1  0.18590009  0.05465659  0.83655294  1  -0.085128  0  -0.081428  -0.165105  0  3.909817  0
C  C108  1  0.98697407  0.64947536  0.63827168  1  -0.040024  0  0.015043  0.112397  0  3.981006  0
C  C109  1  0.98698680  0.35052332  0.36173211  1  -0.039973  0  0.015143  0.112527  0  3.980821  0
C  C110  1  0.01303025  0.85052369  0.13826761  1  -0.040098  0  0.015102  0.112304  0  3.980831  0
C  C111  1  0.01302064  0.14947549  0.86172867  1  -0.040048  0  0.015074  0.112619  0  3.981015  0
C  C112  1  0.96406124  0.71109886  0.62456648  1  -0.022929  0  -0.078419  -0.170028  0  3.910065  0
C  C113  1  0.96407355  0.28889974  0.37543092  1  -0.023087  0  -0.078502  -0.170051  0  3.909954  0
C  C114  1  0.03593857  0.78889731  0.12456607  1  -0.023289  0  -0.078391  -0.169949  0  3.909801  0
C  C115  1  0.03593840  0.21109741  0.87543407  1  -0.02318  0  -0.078444  -0.170202  0  3.910178  0
C  C116  1  0.10696394  0.75194698  0.63634439  1  0.437238  0  0.058613  0.114628  0  3.91189  0
C  C117  1  0.10696619  0.24804936  0.36365504  1  0.437386  0  0.058505  0.114532  0  3.911885  0
C  C118  1  0.89304313  0.74805114  0.13634619  1  0.437277  0  0.058571  0.114639  0  3.911758  0
C  C119  1  0.89305249  0.25194856  0.86365445  1  0.43792  0  0.058539  0.114649  0  3.911799  0
C  C120  1  0.29275909  0.67539289  0.67409676  1  0.422096  0  0.046531  0.095387  0  3.944262  0
C  C121  1  0.29275334  0.32460278  0.32590052  1  0.422134  0  0.046467  0.095344  0  3.944608  0
C  C122  1  0.70724603  0.82460885  0.17409513  1  0.422401  0  0.046486  0.095338  0  3.944337  0
C  C123  1  0.70724771  0.17539470  0.82590428  1  0.422276  0  0.046417  0.095208  0  3.944365  0
C  C124  1  0.15711973  0.63197699  0.66320779  1  0.014291  0  -0.085654  -0.179054  0  3.962449  0
C  C125  1  0.15712412  0.36801818  0.33679260  1  0.014109  0  -0.08568  -0.179219  0  3.962771  0
C  C126  1  0.84288234  0.86802281  0.16320138  1  0.0142  0  -0.085757  -0.179012  0  3.962506  0
C  C127  1  0.84287717  0.13197807  0.83679238  1  0.014273  0  -0.085663  -0.179113  0  3.962579  0
C  C128  1  0.64527436  0.46030837  0.69333073  1  -0.022745  0  0.012274  0.111156  0  3.98925  0
C  C129  1  0.64527280  0.53968359  0.30666517  1  -0.022573  0  0.012303  0.111286  0  3.989211  0
C  C130  1  0.35473771  0.03968620  0.19333651  1  -0.02245  0  0.012358  0.111234  0  3.989159  0
C  C131  1  0.35472829  0.96031287  0.80666640  1  -0.022473  0  0.012285  0.111238  0  3.989417  0
C  C132  1  0.46583111  0.43629031  0.70210879  1  -0.018142  0  -0.089378  -0.181514  0  3.973851  0
C  C133  1  0.46582739  0.56370599  0.29789266  1  -0.018106  0  -0.089522  -0.181737  0  3.973649  0
C  C134  1  0.53417696  0.06370891  0.20211096  1  -0.018112  0  -0.089495  -0.181602  0  3.973815  0
C  C135  1  0.53417071  0.93629401  0.79789233  1  -0.018093  0  -0.089463  -0.181657  0  3.973834  0
C  C136  1  0.43943751  0.38875547  0.73972898  1  0.424246  0  0.043011  0.092709  0  3.930836  0
C  C137  1  0.43941920  0.61124210  0.26027326  1  0.425005  0  0.043039  0.092668  0  3.930524  0
C  C138  1  0.56058539  0.11124282  0.23973126  1  0.424181  0  0.043101  0.092679  0  3.930809  0
C  C139  1  0.56058365  0.88875746  0.76027335  1  0.424093  0  0.042992  0.092545  0  3.930583  0
C  C140  1  0.75643164  0.38611568  0.76118684  1  0.522775  0  0.057854  0.114085  0  3.908177  0
C  C141  1  0.75641014  0.61388124  0.23881267  1  0.522643  0  0.057961  0.114122  0  3.90811  0
C  C142  1  0.24358895  0.11387741  0.26119145  1  0.522519  0  0.057963  0.114207  0  3.907948  0
C  C143  1  0.24358943  0.88611488  0.73881081  1  0.523235  0  0.058022  0.114207  0  3.908054  0
C  C144  1  0.79232903  0.43383921  0.72416493  1  -0.096453  0  -0.081145  -0.168058  0  3.914448  0
C  C145  1  0.79231511  0.56615375  0.27583042  1  -0.097177  0  -0.081166  -0.16784  0  3.914585  0
C  C146  1  0.20768793  0.06615118  0.22417067  1  -0.097317  0  -0.08117  -0.167733  0  3.914589  0
C  C147  1  0.20768389  0.93384372  0.77583024  1  -0.097496  0  -0.081202  -0.167982  0  3.914538  0
C  C148  1  0.85908151  0.05287354  0.62548268  1  0.054161  0  -0.011796  -0.273408  0  3.863549  0
C  C149  1  0.85908574  0.94712376  0.37451281  1  0.054364  0  -0.011837  -0.27344  0  3.863727  0
C  C150  1  0.14090946  0.44712843  0.12548281  1  0.054414  0  -0.011861  -0.273708  0  3.863643  0
C  C151  1  0.14092386  0.55287668  0.87451034  1  0.054181  0  -0.011671  -0.273381  0  3.86372  0
C  C152  1  0.95704606  0.10352498  0.65915105  1  -0.09821  0  -0.019695  0.08086  0  3.961899  0
C  C153  1  0.95704780  0.89647268  0.34084930  1  -0.098467  0  -0.019735  0.080871  0  3.962105  0
C  C154  1  0.04294426  0.39647647  0.15914919  1  -0.097907  0  -0.019816  0.080882  0  3.962196  0
C  C155  1  0.04295126  0.60352554  0.84084799  1  -0.098412  0  -0.019729  0.080875  0  3.962106  0
C  C156  1  0.85753085  0.15759430  0.66903170  1  -0.048428  0  -0.093865  -0.132737  0  3.977587  0
C  C157  1  0.85752070  0.84240254  0.33097056  1  -0.048197  0  -0.093776  -0.132683  0  3.977616  0
C  C158  1  0.14245410  0.34240818  0.16903205  1  -0.048282  0  -0.093827  -0.132788  0  3.977788  0
C  C159  1  0.14246974  0.65759330  0.83096873  1  -0.048441  0  -0.093818  -0.132726  0  3.977725  0
C  C160  1  0.93806587  0.20489004  0.69951987  1  0.039996  0  -0.08562  -0.084953  0  3.980743  0
C  C161  1  0.93805761  0.79510664  0.30048425  1  0.039612  0  -0.085705  -0.085053  0  3.980968  0
C  C162  1  0.06192675  0.29511506  0.19952254  1  0.040315  0  -0.085615  -0.084828  0  3.980664  0
C  C163  1  0.06193495  0.70488975  0.80048358  1  0.040188  0  -0.085686  -0.084927  0  3.980694  0
C  C164  1  0.11980288  0.19917983  0.72086391  1  -0.069837  0  -0.02077  -0.034241  0  3.977728  0
C  C165  1  0.11977894  0.80081246  0.27913555  1  -0.069344  0  -0.020774  -0.034268  0  3.977534  0
C  C166  1  0.88017903  0.30082688  0.22086198  1  -0.07013  0  -0.020784  -0.034358  0  3.977603  0
C  C167  1  0.88020474  0.69918141  0.77913482  1  -0.069641  0  -0.020743  -0.034316  0  3.97764  0
C  C168  1  0.21842830  0.14526737  0.71131181  1  -0.035814  0  -0.089204  -0.084563  0  3.979459  0
C  C169  1  0.21841623  0.85472848  0.28868785  1  -0.036311  0  -0.089135  -0.084503  0  3.978943  0
C  C170  1  0.78156598  0.35474196  0.21130599  1  -0.036483  0  -0.08905  -0.084376  0  3.979288  0
C  C171  1  0.78156766  0.64526960  0.78868807  1  -0.035813  0  -0.089213  -0.084567  0  3.979314  0
C  C172  1  0.13816189  0.09767611  0.68096125  1  -0.023678  0  -0.104263  -0.149408  0  4.001682  0
C  C173  1  0.13815355  0.90231944  0.31903867  1  -0.023197  0  -0.104231  -0.149334  0  4.001654  0
C  C174  1  0.86183871  0.40233014  0.18095819  1  -0.02332  0  -0.104341  -0.149538  0  4.001975  0
C  C175  1  0.86183663  0.59767899  0.81903942  1  -0.023534  0  -0.104186  -0.149232  0  4.001617  0
C  C176  1  0.20666033  0.25030225  0.75390013  1  1.575425  0  0.199716  0.568905  0  4.239613  0
C  C177  1  0.20663809  0.74969400  0.24610036  1  1.575338  0  0.199875  0.569151  0  4.239222  0
C  C178  1  0.79331112  0.24970667  0.25389835  1  1.575304  0  0.199708  0.569028  0  4.239717  0
C  C179  1  0.79336304  0.75030357  0.74609828  1  1.575217  0  0.19974  0.569017  0  4.239249  0
C  C180  1  0.75770160  0.07988459  0.57383329  1  -0.07248  0  -0.019903  0.079123  0  3.956622  0
C  C181  1  0.75768926  0.92011552  0.42616623  1  -0.072285  0  -0.019921  0.079004  0  3.956221  0
C  C182  1  0.24229941  0.42011587  0.07383632  1  -0.072787  0  -0.019975  0.079065  0  3.956616  0
C  C183  1  0.24230610  0.57988688  0.92616425  1  -0.072468  0  -0.019928  0.079083  0  3.956296  0
C  C184  1  0.58065192  0.06096098  0.55568307  1  -0.035896  0  -0.100143  -0.14139  0  3.985161  0
C  C185  1  0.58062945  0.93903847  0.44431057  1  -0.035535  0  -0.100097  -0.141261  0  3.984805  0
C  C186  1  0.41935008  0.43904289  0.05568920  1  -0.035821  0  -0.100037  -0.14145  0  3.984967  0
C  C187  1  0.41936632  0.56096597  0.94430961  1  -0.035304  0  -0.100127  -0.141256  0  3.984825  0
C  C188  1  0.50105811  0.08621994  0.50717914  1  -0.058242  0  -0.082905  -0.077727  0  3.952109  0
C  C189  1  0.50103586  0.91378013  0.49281730  1  -0.058419  0  -0.082831  -0.077476  0  3.951829  0
C  C190  1  0.49895119  0.41378292  0.00718475  1  -0.058345  0  -0.082809  -0.077329  0  3.951772  0
C  C191  1  0.49895680  0.58622396  0.99281677  1  -0.058329  0  -0.082912  -0.077732  0  3.952141  0
C  C192  1  0.59807325  0.12966189  0.47547603  1  -0.004741  0  -0.018845  -0.026332  0  3.970394  0
C  C193  1  0.59805581  0.87034309  0.52452273  1  -0.005047  0  -0.018949  -0.026569  0  3.970659  0
C  C194  1  0.40194233  0.37034189  0.97548069  1  -0.004535  0  -0.01895  -0.026702  0  3.970689  0
C  C195  1  0.40194457  0.62966145  0.02452359  1  -0.005237  0  -0.01882  -0.02631  0  3.970549  0
C  C196  1  0.77558881  0.14839318  0.49351446  1  -0.049692  0  -0.085927  -0.082498  0  3.974032  0
C  C197  1  0.77556052  0.85160836  0.50648636  1  -0.05001  0  -0.085861  -0.082238  0  3.974083  0
C  C198  1  0.22442858  0.35160671  0.99351518  1  -0.050122  0  -0.085977  -0.082328  0  3.974097  0
C  C199  1  0.22443105  0.64839324  0.00648746  1  -0.049874  0  -0.085963  -0.082449  0  3.974143  0
C  C200  1  0.85401722  0.12403531  0.54227117  1  0.01679  0  -0.093863  -0.129032  0  3.980163  0
C  C201  1  0.85400127  0.87596516  0.45773065  1  0.016764  0  -0.09394  -0.129159  0  3.980167  0
C  C202  1  0.14598447  0.37596751  0.04226848  1  0.016769  0  -0.093898  -0.129156  0  3.9802  0
C  C203  1  0.14599200  0.62403489  0.95773104  1  0.016845  0  -0.093941  -0.129083  0  3.980076  0
C  C204  1  0.51570923  0.15355554  0.42161183  1  1.533154  0  0.190947  0.55804  0  4.227725  0
C  C205  1  0.51568937  0.84645458  0.57839015  1  1.533585  0  0.190719  0.557758  0  4.227952  0
C  C206  1  0.48431494  0.34644988  0.92161557  1  1.532959  0  0.190745  0.55772  0  4.227849  0
C  C207  1  0.48431221  0.65355195  0.07839015  1  1.533382  0  0.190684  0.557621  0  4.228153  0
C  C208  1  0.99820534  0.00418979  0.60184579  1  1.721097  0  0.30386  0.676077  0  3.971523  0
C  C209  1  0.99820758  0.99580757  0.39816015  1  1.721946  0  0.30375  0.675758  0  3.9723  0
C  C210  1  0.00178090  0.49581099  0.10184401  1  1.720695  0  0.304018  0.67647  0  3.971262  0
C  C211  1  0.00179555  0.50418860  0.89815436  1  1.722087  0  0.303805  0.675899  0  3.971692  0
C  C212  1  0.72526871  0.02063327  0.66791013  1  1.692949  0  0.304835  0.678903  0  3.957765  0
C  C213  1  0.72528570  0.97936717  0.33209143  1  1.693036  0  0.304987  0.679042  0  3.957724  0
C  C214  1  0.27470922  0.47936964  0.16790959  1  1.693021  0  0.305  0.679243  0  3.957186  0
C  C215  1  0.27471037  0.52063823  0.83208638  1  1.692885  0  0.305041  0.679229  0  3.958195  0
N  N216  1  0.58259722  0.36378522  0.76888949  1  -1.245994  0  -0.327882  -0.226485  0  3.568774  0
N  N217  1  0.58257352  0.63620834  0.23110839  1  -1.245547  0  -0.328068  -0.226555  0  3.568492  0
N  N218  1  0.41742773  0.13621115  0.26889552  1  -1.245512  0  -0.328034  -0.226665  0  3.56848  0
N  N219  1  0.41742168  0.86378679  0.73110964  1  -1.245426  0  -0.327971  -0.226489  0  3.568581  0
N  N220  1  0.26835903  0.73459046  0.66102283  1  -1.267585  0  -0.33004  -0.230361  0  3.565057  0
N  N221  1  0.26835712  0.26540829  0.33897821  1  -1.267715  0  -0.329935  -0.23012  0  3.565056  0
N  N222  1  0.73164999  0.76541067  0.16102404  1  -1.267523  0  -0.329999  -0.230372  0  3.564938  0
N  N223  1  0.73164841  0.23459298  0.83897711  1  -1.268  0  -0.329875  -0.230149  0  3.564986  0
O  O224  1  0.11984282  0.29927923  0.75995704  1  -1.185721  0  -0.325109  -0.562325  0  2.165686  0
O  O225  1  0.11979916  0.70070852  0.24004285  1  -1.185456  0  -0.325261  -0.562592  0  2.165169  0
O  O226  1  0.88011338  0.20073794  0.25995579  1  -1.185748  0  -0.325163  -0.562401  0  2.16591  0
O  O227  1  0.88019624  0.79928671  0.74004652  1  -1.185471  0  -0.325163  -0.562459  0  2.165306  0
O  O228  1  0.37113618  0.23806124  0.77407022  1  -1.188426  0  -0.340597  -0.572593  0  2.366846  0
O  O229  1  0.37110411  0.76192562  0.22593019  1  -1.188794  0  -0.340564  -0.572536  0  2.367019  0
O  O230  1  0.62883433  0.26195610  0.27406864  1  -1.188002  0  -0.340489  -0.572605  0  2.366611  0
O  O231  1  0.62889377  0.73807035  0.72592722  1  -1.188789  0  -0.34054  -0.572527  0  2.366919  0
O  O232  1  0.62346062  0.18944153  0.39202062  1  -1.157414  0  -0.341746  -0.560231  0  2.295967  0
O  O233  1  0.62343598  0.81057081  0.60798412  1  -1.157087  0  -0.341783  -0.560152  0  2.296462  0
O  O234  1  0.37655869  0.31056718  0.89201912  1  -1.15689  0  -0.341774  -0.560128  0  2.296043  0
O  O235  1  0.37656486  0.68943697  0.10798257  1  -1.157019  0  -0.341747  -0.560143  0  2.29647  0
O  O236  1  0.35455013  0.13845453  0.40615660  1  -1.167919  0  -0.332985  -0.56329  0  2.124208  0
O  O237  1  0.35451574  0.86155318  0.59384208  1  -1.168396  0  -0.332732  -0.563104  0  2.123889  0
O  O238  1  0.64548629  0.36154843  0.90616548  1  -1.168318  0  -0.332792  -0.563114  0  2.124125  0
O  O239  1  0.64547639  0.63844899  0.09384438  1  -1.168416  0  -0.332738  -0.563041  0  2.124119  0
F  F240  1  0.57858966  0.05725874  0.68231766  1  -0.622489  0  -0.087443  -0.196643  0  1.346903  0
F  F241  1  0.57860786  0.94274071  0.31767640  1  -0.622427  0  -0.087556  -0.196723  0  1.346767  0
F  F242  1  0.42139138  0.44274525  0.18231790  1  -0.622356  0  -0.087589  -0.196797  0  1.346646  0
F  F243  1  0.42140606  0.55725907  0.81767668  1  -0.622453  0  -0.087532  -0.196718  0  1.346824  0
F  F244  1  0.81518496  0.00705613  0.71763015  1  -0.626207  0  -0.104878  -0.227552  0  1.353705  0
F  F245  1  0.81521110  0.99294555  0.28237075  1  -0.626328  0  -0.104946  -0.227597  0  1.353488  0
F  F246  1  0.18479128  0.49294873  0.21763125  1  -0.626331  0  -0.104903  -0.227577  0  1.35345  0
F  F247  1  0.18479084  0.50705881  0.78236411  1  -0.626277  0  -0.104946  -0.227633  0  1.353663  0
F  F248  1  0.65216737  0.96770801  0.64829103  1  -0.613862  0  -0.08407  -0.187734  0  1.352758  0
F  F249  1  0.65218568  0.03229035  0.35170911  1  -0.614104  0  -0.084064  -0.187721  0  1.352907  0
F  F250  1  0.34781619  0.53229252  0.14829038  1  -0.613958  0  -0.084026  -0.187759  0  1.352659  0
F  F251  1  0.34780615  0.46771107  0.85170532  1  -0.613863  0  -0.084196  -0.187939  0  1.35314  0
F  F252  1  0.07645296  0.96905581  0.64319227  1  -0.618268  0  -0.096314  -0.207348  0  1.356  0
F  F253  1  0.07645175  0.03094633  0.35681134  1  -0.61906  0  -0.09631  -0.207298  0  1.35606  0
F  F254  1  0.92352489  0.53094421  0.14319322  1  -0.61802  0  -0.096395  -0.207533  0  1.355931  0
F  F255  1  0.92354160  0.46905879  0.85680876  1  -0.61903  0  -0.096249  -0.207248  0  1.356237  0
F  F256  1  0.91290149  0.96605314  0.56507943  1  -0.617969  0  -0.087288  -0.190033  0  1.384689  0
F  F257  1  0.91290493  0.03394254  0.43492760  1  -0.61793  0  -0.087243  -0.189973  0  1.385014  0
F  F258  1  0.08707460  0.53394914  0.06508206  1  -0.618137  0  -0.087292  -0.190119  0  1.384973  0
F  F259  1  0.08709575  0.46605076  0.93491945  1  -0.618196  0  -0.087316  -0.190064  0  1.384718  0
F  F260  1  0.14157044  0.03128869  0.57329426  1  -0.625899  0  -0.082855  -0.191334  0  1.358124  0
F  F261  1  0.14155840  0.96870915  0.42671033  1  -0.625994  0  -0.082743  -0.191141  0  1.358449  0
F  F262  1  0.85841656  0.46871131  0.07329143  1  -0.625608  0  -0.082899  -0.191396  0  1.358044  0
F  F263  1  0.85845097  0.53129145  0.92671040  1  -0.625874  0  -0.082884  -0.191314  0  1.358099  0
