# generated using pymatgen
data_CuH22C18(NO3)2
_symmetry_space_group_name_H-M   'P 1'
_cell_length_a   9.91530356
_cell_length_b   9.91530959
_cell_length_c   11.20068237
_cell_angle_alpha   68.81758299
_cell_angle_beta   68.81761071
_cell_angle_gamma   67.84696255
_symmetry_Int_Tables_number   1
_chemical_formula_structural   CuH22C18(NO3)2
_chemical_formula_sum   'Cu2 H44 C36 N4 O12'
_cell_volume   918.11036287
_cell_formula_units_Z   2
loop_
 _symmetry_equiv_pos_site_id
 _symmetry_equiv_pos_as_xyz
  1  'x, y, z'
loop_
 _atom_site_type_symbol
 _atom_site_label
 _atom_site_symmetry_multiplicity
 _atom_site_fract_x
 _atom_site_fract_y
 _atom_site_fract_z
 _atom_site_occupancy
 _atom_site_hle17_ddec_charge
 _atom_site_hle17_ddec_spin_density
 _atom_site_hle17_ddec_sum_bond_order
 _atom_site_hle17_magmom
 _atom_site_hse06_10hf_ddec_charge
 _atom_site_hse06_10hf_ddec_spin_density
 _atom_site_hse06_10hf_ddec_sum_bond_order
 _atom_site_hse06_10hf_magmom
 _atom_site_hse06_ddec_charge
 _atom_site_hse06_ddec_spin_density
 _atom_site_hse06_ddec_sum_bond_order
 _atom_site_hse06_magmom
 _atom_site_pbe_cm5_charge
 _atom_site_pbe_ddec_charge
 _atom_site_pbe_ddec_spin_density
 _atom_site_pbe_ddec_sum_bond_order
 _atom_site_pbe_magmom
Cu  Cu0  1  0.05050266  0.94949712  0.24999997  1  0.860387  -0.707962  1.862584  -0.527  0.841515  -0.790189  2.245883  -0.642  0.938312  -0.853811  2.16352  -0.726  0.754816  0.790964  -0.743331  2.288055  -0.584
Cu  Cu1  1  0.94949582  0.05050443  0.74999915  1  0.86031  -0.707914  1.86254  -0.527  0.841515  -0.790194  2.245875  -0.642  0.938284  -0.853817  2.163476  -0.726  0.754792  0.790928  -0.743332  2.288026  -0.584
H  H2  1  0.13816848  0.66085362  0.18656890  1  0.095998  -0.000937  0.940351  -0.002  0.103876  -0.00077  1.000814  -0.001  0.106488  -0.000552  0.998325  -0.001  0.124507  0.101243  -0.000942  1.003627  -0.001
H  H3  1  0.66085392  0.13816963  0.68656943  1  0.095995  -0.000938  0.940395  -0.002  0.103887  -0.000769  1.000838  -0.001  0.106522  -0.000552  0.998324  -0.001  0.124516  0.101254  -0.000942  1.003652  -0.001
H  H4  1  0.86183172  0.33914568  0.81343040  1  0.096018  -0.000944  0.940372  -0.002  0.10389  -0.000769  1.000832  -0.001  0.106502  -0.000552  0.998345  -0.001  0.124513  0.101257  -0.000942  1.003647  -0.001
H  H5  1  0.33914673  0.86183192  0.31342811  1  0.096047  -0.000947  0.940331  -0.002  0.103882  -0.00077  1.000836  -0.001  0.106499  -0.000552  0.998342  -0.001  0.124507  0.10125  -0.000942  1.003651  -0.001
H  H6  1  0.35980548  0.43030390  0.18298198  1  0.112235  -0.000438  0.967752  0.0  0.120781  -0.000447  1.032957  0.0  0.123969  -0.00032  1.031621  0.0  0.111505  0.118423  -0.000577  1.034114  -0.001
H  H7  1  0.43030439  0.35980679  0.68298137  1  0.112163  -0.000431  0.967795  0.0  0.120684  -0.000448  1.033037  0.0  0.123871  -0.00032  1.031702  0.0  0.111471  0.118325  -0.000578  1.034193  -0.001
H  H8  1  0.64019473  0.56969540  0.81701821  1  0.112131  -0.000432  0.967849  0.0  0.12069  -0.000448  1.033052  0.0  0.123878  -0.00032  1.031714  0.0  0.11146  0.118332  -0.000577  1.034209  -0.001
H  H9  1  0.56969550  0.64019363  0.31701677  1  0.112116  -0.000436  0.967838  0.0  0.120669  -0.000447  1.033046  0.0  0.123861  -0.00032  1.031712  0.0  0.11147  0.118311  -0.000577  1.034203  -0.001
H  H10  1  0.84059861  0.11530381  0.08082431  1  0.106828  -0.001069  0.942104  -0.002  0.110704  -0.000875  1.009992  -0.001  0.114093  -0.00058  1.006511  -0.001  0.123961  0.107814  -0.001073  1.013062  -0.002
H  H11  1  0.11530313  0.84060079  0.58082356  1  0.106846  -0.001095  0.942066  -0.002  0.110718  -0.000875  1.009967  -0.001  0.114109  -0.00058  1.006484  -0.001  0.123983  0.107835  -0.001073  1.013034  -0.002
H  H12  1  0.15940096  0.88469774  0.91917536  1  0.106841  -0.001077  0.94207  -0.002  0.110716  -0.000875  1.009962  -0.001  0.114106  -0.00058  1.006479  -0.001  0.123973  0.107825  -0.001073  1.013036  -0.002
H  H13  1  0.88469752  0.15940076  0.41917666  1  0.106829  -0.001092  0.942093  -0.002  0.110703  -0.000875  1.009987  -0.001  0.114093  -0.00058  1.006504  -0.001  0.123969  0.107814  -0.001073  1.013059  -0.002
H  H14  1  0.61744084  0.34266444  0.07126656  1  0.100888  -0.000494  0.96914  0.0  0.110371  -0.000497  1.032618  0.0  0.112505  -0.000355  1.033881  0.0  0.106509  0.108888  -0.00056  1.031814  -0.001
H  H15  1  0.34266379  0.61744278  0.57126512  1  0.100892  -0.00048  0.969109  0.0  0.110368  -0.000497  1.032594  0.0  0.112509  -0.000355  1.033848  0.0  0.106511  0.108886  -0.00056  1.031792  -0.001
H  H16  1  0.38255796  0.65733598  0.92873372  1  0.100919  -0.00048  0.969162  0.0  0.110411  -0.000497  1.032627  0.0  0.112542  -0.000355  1.033892  0.0  0.106532  0.108929  -0.000559  1.031824  -0.001
H  H17  1  0.65733470  0.38255878  0.42873489  1  0.100899  -0.000468  0.969158  0.0  0.110389  -0.000497  1.032626  0.0  0.112518  -0.000355  1.033899  0.0  0.106517  0.108906  -0.000559  1.031825  -0.001
H  H18  1  0.02395311  0.36959309  0.11107367  1  0.111692  2.7e-05  0.953782  0.0  0.132771  2.2e-05  1.01235  0.0  0.133976  2.4e-05  1.013228  0.0  0.087848  0.131746  3.2e-05  1.012091  0.0
H  H19  1  0.36959359  0.02395367  0.61107427  1  0.111691  3.9e-05  0.953793  0.0  0.132773  2.3e-05  1.012365  0.0  0.133977  2.3e-05  1.013245  0.0  0.087854  0.131747  3.2e-05  1.012107  0.0
H  H20  1  0.97604710  0.63040620  0.88892563  1  0.111688  2e-05  0.953784  0.0  0.13277  2.2e-05  1.012349  0.0  0.133974  2.4e-05  1.01323  0.0  0.087848  0.131744  3.2e-05  1.01209  0.0
H  H21  1  0.63040738  0.97604675  0.38892620  1  0.111686  2.2e-05  0.953789  0.0  0.132766  2.2e-05  1.012352  0.0  0.13397  2.3e-05  1.013231  0.0  0.08785  0.131741  3.2e-05  1.012093  0.0
H  H22  1  0.18444781  0.42228728  0.99245038  1  0.109662  -9e-06  0.963406  0.0  0.126973  2e-06  1.02957  0.0  0.128717  1e-05  1.029902  0.0  0.084817  0.125835  -2.2e-05  1.029221  0.0
H  H23  1  0.42228818  0.18444663  0.49245149  1  0.109642  -1.3e-05  0.963397  0.0  0.126952  2e-06  1.029572  0.0  0.128696  9e-06  1.029903  0.0  0.084799  0.125815  -2.2e-05  1.029224  0.0
H  H24  1  0.81555348  0.57771201  0.00754857  1  0.109642  -1.3e-05  0.963434  0.0  0.126957  2e-06  1.029591  0.0  0.128703  9e-06  1.029921  0.0  0.084807  0.125821  -2.2e-05  1.029243  0.0
H  H25  1  0.57771203  0.81555266  0.50754960  1  0.109641  -8e-06  0.963421  0.0  0.126954  3e-06  1.029577  0.0  0.128698  9e-06  1.029908  0.0  0.084805  0.125817  -2.2e-05  1.029229  0.0
H  H26  1  0.15409755  0.40058727  0.16575742  1  0.116528  -0.000147  0.964939  0.0  0.137855  -7e-05  1.02423  0.0  0.139506  -2.5e-05  1.024051  0.0  0.090595  0.136658  -0.000127  1.024366  0.0
H  H27  1  0.40058827  0.15409561  0.66575774  1  0.116538  -0.000133  0.964991  0.0  0.137872  -7e-05  1.024276  0.0  0.139523  -2.5e-05  1.024099  0.0  0.090611  0.136675  -0.000127  1.024412  0.0
H  H28  1  0.84590405  0.59941089  0.83424268  1  0.116515  -0.000136  0.964953  0.0  0.137847  -7e-05  1.024241  0.0  0.139498  -2.5e-05  1.024063  0.0  0.090597  0.136651  -0.000127  1.024379  0.0
H  H29  1  0.59941194  0.84590368  0.33424334  1  0.116527  -0.000143  0.964956  0.0  0.13786  -7e-05  1.024232  0.0  0.139511  -2.6e-05  1.024054  0.0  0.090603  0.136666  -0.000127  1.024371  0.0
H  H30  1  0.42208450  0.20266254  0.15679810  1  0.10737  -0.000196  0.961458  0.0  0.128154  -0.000109  1.023238  0.0  0.129945  -5.6e-05  1.022572  0.0  0.086365  0.126973  -0.000175  1.02359  0.0
H  H31  1  0.20266428  0.42208463  0.65679738  1  0.107367  -0.000196  0.961511  0.0  0.128161  -0.000109  1.02328  0.0  0.129953  -5.6e-05  1.022612  0.0  0.086355  0.126978  -0.000175  1.023631  0.0
H  H32  1  0.57791462  0.79733676  0.84320244  1  0.107436  -0.000211  0.961402  0.0  0.128188  -0.000109  1.023214  0.0  0.129978  -5.7e-05  1.022549  0.0  0.086378  0.127006  -0.000175  1.023567  0.0
H  H33  1  0.79733809  0.57791466  0.34320301  1  0.107393  -0.000186  0.961438  0.0  0.128174  -0.000109  1.023218  0.0  0.129964  -5.7e-05  1.022552  0.0  0.086389  0.126994  -0.000175  1.023564  0.0
H  H34  1  0.44792421  0.23456165  0.98266159  1  0.104968  5.1e-05  0.979495  0.0  0.12109  5.6e-05  1.048788  0.0  0.122212  5.3e-05  1.050402  0.0  0.08131  0.120402  3.6e-05  1.047623  0.0
H  H35  1  0.23456132  0.44792569  0.48266031  1  0.104968  2.8e-05  0.979456  0.0  0.121104  5.6e-05  1.048742  0.0  0.122228  5.3e-05  1.050356  0.0  0.081315  0.120417  3.6e-05  1.04758  0.0
H  H36  1  0.55207568  0.76543877  0.01733834  1  0.104959  3.4e-05  0.979535  0.0  0.121074  5.6e-05  1.048821  0.0  0.122197  5.3e-05  1.050434  0.0  0.081299  0.120388  3.6e-05  1.047657  0.0
H  H37  1  0.76543934  0.55207585  0.51733901  1  0.104959  7.8e-05  0.979521  0.0  0.121084  5.6e-05  1.048795  0.0  0.122207  5.2e-05  1.050409  0.0  0.081306  0.120398  3.6e-05  1.047629  0.0
H  H38  1  0.46781356  0.04897155  0.09064139  1  0.116986  2e-05  0.954646  0.0  0.137282  4e-06  1.015442  0.0  0.138673  5e-06  1.01563  0.0  0.090203  0.135988  2.8e-05  1.015874  0.0
H  H39  1  0.04896854  0.46781491  0.59064353  1  0.116968  3.4e-05  0.954633  0.0  0.137251  5e-06  1.015462  0.0  0.138641  5e-06  1.015651  0.0  0.090183  0.135957  2.8e-05  1.015893  0.0
H  H40  1  0.53218772  0.95102774  0.90935756  1  0.116995  1.8e-05  0.954633  0.0  0.137283  5e-06  1.015433  0.0  0.138673  5e-06  1.015621  0.0  0.090201  0.135992  2.8e-05  1.01586  0.0
H  H41  1  0.95102886  0.53218665  0.40935861  1  0.116973  4.2e-05  0.954634  0.0  0.137265  5e-06  1.01543  0.0  0.138656  4e-06  1.015618  0.0  0.090195  0.135971  2.8e-05  1.015863  0.0
H  H42  1  0.17732119  0.16020450  0.30626132  1  0.38291  0.000175  0.914182  0.0  0.359707  5.6e-05  0.983999  0.0  0.372528  4.2e-05  0.969442  0.0  0.288955  0.350593  6.1e-05  0.994106  0.0
H  H43  1  0.16020649  0.17731983  0.80626106  1  0.382932  0.00018  0.914164  0.0  0.359726  5.7e-05  0.983982  0.0  0.372547  4.2e-05  0.969426  0.0  0.288956  0.350611  6.1e-05  0.994088  0.0
H  H44  1  0.82267933  0.83979367  0.69373913  1  0.382899  0.000177  0.914216  0.0  0.359697  5.6e-05  0.984025  0.0  0.372518  4.2e-05  0.969469  0.0  0.288943  0.350582  6.1e-05  0.994132  0.0
H  H45  1  0.83979512  0.82267834  0.19373904  1  0.382924  0.000179  0.91417  0.0  0.359722  5.6e-05  0.983987  0.0  0.372545  4.2e-05  0.969426  0.0  0.288969  0.350614  6.1e-05  0.994076  0.0
C  C46  1  0.20729800  0.13211418  0.01326348  1  0.599388  0.008881  3.804748  0.008  0.565121  0.002179  4.094908  0.003  0.599291  0.002207  4.091416  0.002  0.211431  0.541505  0.002168  4.097241  0.003
C  C47  1  0.13211221  0.20729835  0.51326214  1  0.599431  0.008876  3.804872  0.008  0.565111  0.002178  4.094937  0.003  0.599276  0.002209  4.09145  0.002  0.21144  0.541494  0.002168  4.097274  0.003
C  C48  1  0.79270297  0.86788624  0.98673610  1  0.599243  0.008882  3.805042  0.008  0.565114  0.002175  4.09499  0.003  0.599282  0.002212  4.091501  0.002  0.211447  0.541497  0.002168  4.097326  0.003
C  C49  1  0.86788691  0.79270095  0.48673750  1  0.599402  0.008871  3.804723  0.008  0.565131  0.002177  4.0949  0.003  0.599301  0.002211  4.091406  0.002  0.211447  0.541517  0.002168  4.097234  0.003
C  C50  1  0.23496658  0.18934142  0.11121391  1  0.291662  -0.000954  3.621516  -0.001  0.303104  -0.000303  3.862708  -0.001  0.305709  5.8e-05  3.876049  0.0  0.061261  0.300937  -0.000509  3.853914  -0.001
C  C51  1  0.18934042  0.23496729  0.61121394  1  0.291368  -0.00094  3.622011  -0.001  0.303226  -0.0003  3.862521  -0.001  0.305837  4.6e-05  3.875856  0.0  0.061253  0.301054  -0.00051  3.853734  -0.001
C  C52  1  0.76503363  0.81065788  0.88878627  1  0.291772  -0.000962  3.621495  -0.001  0.303167  -0.000304  3.862698  -0.001  0.305772  5.4e-05  3.876042  0.0  0.061297  0.300998  -0.00051  3.853906  -0.001
C  C53  1  0.81065946  0.76503313  0.38878599  1  0.291746  -0.000911  3.621376  -0.001  0.30314  -0.000297  3.862697  -0.001  0.305747  3.7e-05  3.876039  0.0  0.061285  0.300974  -0.000509  3.853907  -0.001
C  C54  1  0.23817661  0.65104592  0.21230108  1  0.131069  0.010435  3.674989  0.007  0.102672  0.002093  3.931915  0.001  0.110727  0.003734  3.949645  0.002  0.053979  0.096903  0.001404  3.921852  0.001
C  C55  1  0.65104620  0.23817699  0.71230095  1  0.131064  0.010454  3.675095  0.007  0.10267  0.002091  3.931997  0.001  0.110704  0.003738  3.949721  0.002  0.05398  0.096897  0.001405  3.921931  0.001
C  C56  1  0.76182251  0.34895337  0.78769945  1  0.131001  0.010458  3.675064  0.007  0.102633  0.002094  3.931972  0.001  0.110684  0.003733  3.949702  0.002  0.053961  0.096861  0.001405  3.921907  0.001
C  C57  1  0.34895260  0.76182344  0.28769754  1  0.131046  0.01048  3.67508  0.007  0.102688  0.002094  3.931993  0.001  0.110741  0.003735  3.949724  0.002  0.054002  0.096917  0.001405  3.921932  0.001
C  C58  1  0.36219378  0.52413742  0.21006010  1  -0.155993  -0.007812  3.703538  -0.008  -0.174421  -0.003044  3.952899  -0.004  -0.18022  -0.002749  3.970514  -0.003  -0.076346  -0.17075  -0.003295  3.94177  -0.004
C  C59  1  0.52413882  0.36219520  0.71005920  1  -0.155936  -0.007837  3.70361  -0.008  -0.174347  -0.003044  3.952957  -0.004  -0.180146  -0.002749  3.970583  -0.003  -0.076353  -0.170674  -0.003295  3.941824  -0.004
C  C60  1  0.63780534  0.47586188  0.78994043  1  -0.155921  -0.007826  3.703661  -0.008  -0.174372  -0.003045  3.953  -0.004  -0.180171  -0.002749  3.970619  -0.003  -0.076358  -0.170701  -0.003295  3.941872  -0.004
C  C61  1  0.47586107  0.63780522  0.28993984  1  -0.155932  -0.007815  3.703711  -0.008  -0.174366  -0.003044  3.953046  -0.004  -0.180173  -0.002748  3.97067  -0.003  -0.076366  -0.170694  -0.003295  3.941916  -0.004
C  C62  1  0.48461154  0.51538745  0.25000125  1  0.091687  0.010079  3.764492  0.006  0.102744  0.003698  3.994244  0.002  0.10689  0.00418  4.013741  0.002  0.014515  0.09956  0.00328  3.982194  0.002
C  C63  1  0.51538727  0.48461297  0.74999992  1  0.091673  0.010103  3.764552  0.006  0.102737  0.003699  3.994292  0.002  0.106882  0.004179  4.01379  0.002  0.014529  0.099553  0.00328  3.982239  0.002
C  C64  1  0.79682279  0.17942785  0.15486586  1  0.137913  0.011536  3.661214  0.008  0.109646  0.002702  3.916032  0.002  0.119012  0.00428  3.933104  0.003  0.055093  0.102999  0.001497  3.906608  0.001
C  C65  1  0.17942878  0.79682328  0.65486428  1  0.137896  0.011637  3.661178  0.008  0.109599  0.002705  3.915977  0.002  0.118962  0.004282  3.933053  0.003  0.05507  0.102945  0.001497  3.906552  0.001
C  C66  1  0.20317710  0.82057257  0.84513496  1  0.137893  0.011539  3.661217  0.008  0.109595  0.002704  3.916019  0.002  0.118959  0.004281  3.933094  0.003  0.055067  0.102948  0.001497  3.906592  0.001
C  C67  1  0.82057143  0.20317601  0.34513591  1  0.137862  0.011646  3.661199  0.008  0.109592  0.002705  3.916034  0.002  0.118958  0.004281  3.933105  0.003  0.055065  0.102945  0.001497  3.906611  0.001
C  C68  1  0.67123675  0.30483742  0.15161092  1  -0.158788  -0.008543  3.701712  -0.009  -0.173804  -0.003299  3.943194  -0.004  -0.182025  -0.002993  3.964172  -0.004  -0.07857  -0.168754  -0.003524  3.930112  -0.004
C  C69  1  0.30483672  0.67123606  0.65161120  1  -0.158722  -0.008579  3.701687  -0.009  -0.173735  -0.003301  3.943184  -0.004  -0.181961  -0.002992  3.964159  -0.004  -0.078546  -0.168687  -0.003524  3.930104  -0.004
C  C70  1  0.32876282  0.69516413  0.84839053  1  -0.158772  -0.008559  3.701715  -0.009  -0.173799  -0.003301  3.943211  -0.004  -0.182017  -0.002992  3.964192  -0.004  -0.078589  -0.168751  -0.003524  3.930128  -0.004
C  C71  1  0.69516163  0.32876211  0.34839172  1  -0.158713  -0.008607  3.701702  -0.009  -0.173729  -0.0033  3.943171  -0.004  -0.181949  -0.002993  3.96416  -0.004  -0.078553  -0.16868  -0.003524  3.93009  -0.004
C  C72  1  0.61769370  0.38230395  0.25000172  1  0.098179  0.010839  3.764293  0.007  0.10909  0.00403  3.993658  0.002  0.113906  0.004509  4.014139  0.003  0.013831  0.105117  0.003887  3.981074  0.002
C  C73  1  0.38230466  0.61769422  0.75000121  1  0.098195  0.010822  3.764302  0.007  0.109096  0.004031  3.993682  0.002  0.113912  0.004508  4.014166  0.003  0.013841  0.105124  0.003887  3.981095  0.002
C  C74  1  0.14399551  0.35654165  0.09346250  1  -0.376614  0.000116  3.655567  0.0  -0.456381  -8e-06  3.88729  0.0  -0.459562  3.6e-05  3.895444  0.0  -0.251246  -0.453871  -1.1e-05  3.881428  0.0
C  C75  1  0.35654124  0.14399590  0.59346251  1  -0.376543  5.5e-05  3.65573  0.0  -0.456423  -1.3e-05  3.887352  0.0  -0.459609  4.8e-05  3.895508  0.0  -0.251259  -0.453914  -1.1e-05  3.881494  0.0
C  C76  1  0.85600469  0.64345765  0.90653769  1  -0.376602  0.000121  3.655593  0.0  -0.45637  -9e-06  3.887311  0.0  -0.459554  3.6e-05  3.895468  0.0  -0.251252  -0.453864  -1.1e-05  3.881451  0.0
C  C77  1  0.64345865  0.85600452  0.40653831  1  -0.376592  9.8e-05  3.655598  0.0  -0.456344  -1.4e-05  3.8873  0.0  -0.459528  5.3e-05  3.895457  0.0  -0.251234  -0.453841  -1.1e-05  3.881443  0.0
C  C78  1  0.40406375  0.16814530  0.08226110  1  -0.369593  -0.000326  3.654293  0.0  -0.450063  -0.000247  3.889002  0.0  -0.452769  -0.000112  3.896718  0.0  -0.252821  -0.448013  -0.000318  3.883751  0.0
C  C79  1  0.16814508  0.40406565  0.58226044  1  -0.369498  -0.000326  3.65436  0.0  -0.450087  -0.000248  3.888956  0.0  -0.452797  -0.000107  3.896671  0.0  -0.252797  -0.448036  -0.000318  3.883706  0.0
C  C80  1  0.59593677  0.83185287  0.91773934  1  -0.369667  -0.000275  3.654283  0.0  -0.450108  -0.000246  3.88903  0.0  -0.452815  -0.00011  3.896748  0.0  -0.25283  -0.44806  -0.000318  3.883777  0.0
C  C81  1  0.83185449  0.59593590  0.41774012  1  -0.369614  -0.000425  3.654292  0.0  -0.450074  -0.000251  3.889008  0.0  -0.452782  -0.0001  3.896725  0.0  -0.252836  -0.448022  -0.000318  3.883757  0.0
N  N82  1  0.86967871  0.13032044  0.25000042  1  -0.288098  -0.071925  3.347247  -0.093  -0.242396  -0.049618  3.637104  -0.068  -0.273252  -0.040439  3.659574  -0.06  -0.344395  -0.224537  -0.055713  3.624293  -0.073
N  N83  1  0.13032149  0.86967885  0.74999977  1  -0.28818  -0.071913  3.34727  -0.093  -0.242381  -0.049618  3.637027  -0.068  -0.273233  -0.040441  3.65949  -0.06  -0.344396  -0.224511  -0.055715  3.624197  -0.073
N  N84  1  0.23192502  0.76807397  0.24999939  1  -0.275356  -0.065859  3.318674  -0.086  -0.227358  -0.046362  3.606277  -0.064  -0.255582  -0.038079  3.626984  -0.057  -0.340682  -0.21135  -0.051534  3.594393  -0.068
N  N85  1  0.76807378  0.23192645  0.74999999  1  -0.275269  -0.065859  3.318635  -0.086  -0.227316  -0.046364  3.606278  -0.064  -0.255527  -0.038081  3.626974  -0.057  -0.340624  -0.211299  -0.051537  3.594375  -0.068
O  O86  1  0.13703844  0.03152903  0.05617100  1  -0.577537  -0.08722  2.055057  -0.12  -0.559815  -0.053345  2.330578  -0.081  -0.602817  -0.039449  2.322773  -0.065  -0.32358  -0.531888  -0.063534  2.334953  -0.091
O  O87  1  0.03152659  0.13704006  0.55617208  1  -0.57752  -0.087228  2.055108  -0.12  -0.55983  -0.053343  2.330636  -0.081  -0.602826  -0.039446  2.322819  -0.065  -0.323582  -0.531901  -0.06353  2.335009  -0.091
O  O88  1  0.86295897  0.96847252  0.94382846  1  -0.577509  -0.087231  2.055165  -0.12  -0.559826  -0.053344  2.33063  -0.081  -0.602823  -0.039448  2.322815  -0.065  -0.323587  -0.531893  -0.063533  2.334997  -0.091
O  O89  1  0.96847222  0.86296036  0.44382909  1  -0.577601  -0.087224  2.055104  -0.12  -0.559844  -0.053345  2.330614  -0.081  -0.602845  -0.039449  2.322805  -0.065  -0.323591  -0.531915  -0.063532  2.334983  -0.091
O  O90  1  0.18345590  0.10419920  0.24365611  1  -0.633136  0.001844  2.118652  0.0  -0.594063  0.001561  2.361349  0.0  -0.614374  0.001958  2.344507  0.0  -0.408118  -0.580528  0.00114  2.372419  0.0
O  O91  1  0.10419907  0.18345678  0.74365668  1  -0.633034  0.001847  2.118663  0.0  -0.59411  0.001561  2.361314  0.0  -0.614411  0.001956  2.344452  0.0  -0.408108  -0.580565  0.00114  2.372375  0.0
O  O92  1  0.81654323  0.89580010  0.75634353  1  -0.633106  0.001853  2.118575  0.0  -0.594066  0.001563  2.361349  0.0  -0.61437  0.001957  2.344496  0.0  -0.40812  -0.580523  0.00114  2.37241  0.0
O  O93  1  0.89580190  0.81654364  0.25634290  1  -0.633152  0.001838  2.118604  0.0  -0.594084  0.001562  2.361342  0.0  -0.614393  0.001954  2.344497  0.0  -0.408146  -0.580551  0.00114  2.372405  0.0
O  O94  1  0.25296638  0.19184727  0.89129874  1  -0.597845  -0.012567  1.967147  -0.017  -0.553364  -0.006438  2.183305  -0.009  -0.580729  -0.003398  2.177167  -0.005  -0.316688  -0.532986  -0.009995  2.186423  -0.014
O  O95  1  0.19185041  0.25296442  0.39129750  1  -0.597798  -0.012556  1.967142  -0.017  -0.553342  -0.006439  2.183317  -0.009  -0.580706  -0.003397  2.177181  -0.005  -0.316682  -0.532964  -0.009994  2.186438  -0.014
O  O96  1  0.74703630  0.80815089  0.10870101  1  -0.597803  -0.012568  1.967265  -0.017  -0.553373  -0.006439  2.183345  -0.009  -0.580737  -0.003398  2.177205  -0.005  -0.316704  -0.532998  -0.009995  2.186462  -0.014
O  O97  1  0.80815336  0.74703374  0.60870280  1  -0.597848  -0.012558  1.967137  -0.017  -0.553363  -0.006438  2.183277  -0.009  -0.580728  -0.003399  2.177137  -0.005  -0.316699  -0.532985  -0.009995  2.186396  -0.014
