# generated using pymatgen
data_CuH5C6IN3
_symmetry_space_group_name_H-M   'P 1'
_cell_length_a   7.82576352
_cell_length_b   13.15094321
_cell_length_c   16.05301339
_cell_angle_alpha   104.23440013
_cell_angle_beta   98.83200662
_cell_angle_gamma   102.66174090
_symmetry_Int_Tables_number   1
_chemical_formula_structural   CuH5C6IN3
_chemical_formula_sum   'Cu8 H40 C48 I8 N24'
_cell_volume   1524.39927147
_cell_formula_units_Z   8
loop_
 _symmetry_equiv_pos_site_id
 _symmetry_equiv_pos_as_xyz
  1  'x, y, z'
loop_
 _atom_site_type_symbol
 _atom_site_label
 _atom_site_symmetry_multiplicity
 _atom_site_fract_x
 _atom_site_fract_y
 _atom_site_fract_z
 _atom_site_occupancy
 _atom_site_hle17_bader_spin_density
 _atom_site_hle17_ddec_charge
 _atom_site_hle17_ddec_spin_density
 _atom_site_hle17_ddec_sum_bond_order
 _atom_site_hle17_magmom
 _atom_site_hse06_10hf_bader_spin_density
 _atom_site_hse06_10hf_ddec_charge
 _atom_site_hse06_10hf_ddec_spin_density
 _atom_site_hse06_10hf_ddec_sum_bond_order
 _atom_site_hse06_10hf_magmom
 _atom_site_hse06_bader_spin_density
 _atom_site_hse06_ddec_charge
 _atom_site_hse06_ddec_spin_density
 _atom_site_hse06_ddec_sum_bond_order
 _atom_site_hse06_magmom
 _atom_site_pbe_bader_spin_density
 _atom_site_pbe_cm5_charge
 _atom_site_pbe_ddec_charge
 _atom_site_pbe_ddec_spin_density
 _atom_site_pbe_ddec_sum_bond_order
 _atom_site_pbe_magmom
Cu  Cu0  1  0.55042655  0.30012428  0.81311064  1  0  0.232388  0  2.204751  0  0  0.161903  0  2.670012  0  0  0.173449  0  2.614567  0  0  0.254118  0.156213  0  2.706094  0
Cu  Cu1  1  0.44956658  0.69986998  0.18688582  1  0  0.232353  0  2.204788  0  0  0.161896  0  2.67006  0  0  0.173461  0  2.614605  0  0  0.254122  0.156181  0  2.706193  0
Cu  Cu2  1  0.48672601  0.58447884  0.97333968  1  0  0.266791  0  2.158906  0  0  0.185049  0  2.640764  0  0  0.195725  0  2.587436  0  0  0.258183  0.180823  0  2.67459  0
Cu  Cu3  1  0.51326653  0.41551706  0.02666018  1  0  0.266809  0  2.158864  0  0  0.185042  0  2.640773  0  0  0.195716  0  2.587447  0  0  0.258172  0.180827  0  2.674567  0
Cu  Cu4  1  0.58883621  0.13470726  0.86412025  1  0  0.20751  0  2.276604  0  0  0.136971  0  2.750693  0  0  0.148393  0  2.694728  0  0  0.240831  0.131399  0  2.787019  0
Cu  Cu5  1  0.41116555  0.86529184  0.13588160  1  0  0.207528  0  2.276685  0  0  0.136996  0  2.750757  0  0  0.148428  0  2.694789  0  0  0.240849  0.131426  0  2.787083  0
Cu  Cu6  1  0.52189895  0.09505071  0.70076463  1  0  0.255084  0  2.092291  0  0  0.15018  0  2.585638  0  0  0.171155  0  2.523465  0  0  0.264389  0.138619  0  2.625858  0
Cu  Cu7  1  0.47810690  0.90495162  0.29923756  1  0  0.255063  0  2.092283  0  0  0.150186  0  2.58561  0  0  0.171124  0  2.523411  0  0  0.264387  0.138625  0  2.62583  0
H  H8  1  0.87170185  0.01008179  0.24021789  1  0  0.258741  0  0.988286  0  0  0.245209  0  1.064876  0  0  0.251345  0  1.059095  0  0  0.264047  0.240645  0  1.069192  0
H  H9  1  0.12830497  0.98991971  0.75978110  1  0  0.258792  0  0.988411  0  0  0.24527  0  1.064972  0  0  0.251404  0  1.059196  0  0  0.264111  0.240707  0  1.06928  0
H  H10  1  0.03981547  0.95225875  0.21936560  1  0  0.276159  0  0.930207  0  0  0.263587  0  1.002633  0  0  0.269739  0  0.996398  0  0  0.277267  0.258902  0  1.007459  0
H  H11  1  0.96019430  0.04774356  0.78063441  1  0  0.276146  0  0.930182  0  0  0.263566  0  1.002637  0  0  0.269719  0  0.996402  0  0  0.27726  0.258878  0  1.007473  0
H  H12  1  0.80833214  0.29572157  0.44051751  1  0  0.282411  0  0.909689  0  0  0.272681  0  0.977092  0  0  0.277531  0  0.972153  0  0  0.303098  0.269124  0  0.98076  0
H  H13  1  0.19165870  0.70427596  0.55947568  1  0  0.282444  0  0.909625  0  0  0.272723  0  0.977009  0  0  0.277575  0  0.972068  0  0  0.303103  0.269168  0  0.980674  0
H  H14  1  0.88754240  0.23468249  0.35738543  1  0  0.273485  0  0.929561  0  0  0.260301  0  1.003181  0  0  0.266117  0  0.99778  0  0  0.28732  0.256029  0  1.007101  0
H  H15  1  0.11245841  0.76531987  0.64261014  1  0  0.273528  0  0.929462  0  0  0.260305  0  1.003127  0  0  0.266119  0  0.997733  0  0  0.287319  0.256038  0  1.007029  0
H  H16  1  0.64522714  0.24645725  0.60713280  1  0  0.076372  0  0.969294  0  0  0.079218  0  1.044328  0  0  0.082465  0  1.041371  0  0  0.101757  0.076773  0  1.046545  0
H  H17  1  0.35478239  0.75354179  0.39286779  1  0  0.07635  0  0.969294  0  0  0.07922  0  1.044308  0  0  0.082467  0  1.041353  0  0  0.101825  0.076774  0  1.046525  0
H  H18  1  0.53322430  0.28951626  0.47025097  1  0  0.116452  0  0.983208  0  0  0.114564  0  1.064891  0  0  0.119759  0  1.060293  0  0  0.107801  0.110835  0  1.068385  0
H  H19  1  0.46678375  0.71048524  0.52975124  1  0  0.116457  0  0.983119  0  0  0.114554  0  1.064806  0  0  0.11975  0  1.060208  0  0  0.107767  0.110822  0  1.068301  0
H  H20  1  0.10271129  0.99366523  0.40009103  1  0  0.111267  0  0.98116  0  0  0.116655  0  1.048236  0  0  0.120555  0  1.046375  0  0  0.102163  0.113747  0  1.049852  0
H  H21  1  0.89728372  0.00634454  0.59991365  1  0  0.111223  0  0.981177  0  0  0.11664  0  1.048226  0  0  0.120542  0  1.046364  0  0  0.102188  0.113729  0  1.049847  0
H  H22  1  0.22493798  0.96634268  0.54380295  1  0  0.077354  0  0.930052  0  0  0.087353  0  0.991158  0  0  0.090516  0  0.988367  0  0  0.110397  0.084918  0  0.993388  0
H  H23  1  0.77505735  0.03366219  0.45620139  1  0  0.077384  0  0.930061  0  0  0.087394  0  0.991148  0  0  0.090525  0  0.988391  0  0  0.110403  0.084959  0  0.993378  0
H  H24  1  0.66868067  0.97274707  0.96077530  1  0  0.077155  0  0.938109  0  0  0.082402  0  1.007913  0  0  0.085601  0  1.005094  0  0  0.10436  0.079937  0  1.010162  0
H  H25  1  0.33132965  0.02725359  0.03922380  1  0  0.077176  0  0.938057  0  0  0.082418  0  1.007873  0  0  0.085616  0  1.005055  0  0  0.104379  0.079953  0  1.010122  0
H  H26  1  0.86920388  0.98196673  0.09717994  1  0  0.091987  0  1.023182  0  0  0.101856  0  1.088392  0  0  0.104965  0  1.087713  0  0  0.086542  0.099531  0  1.089082  0
H  H27  1  0.13080717  0.01802984  0.90281654  1  0  0.091969  0  1.023188  0  0  0.101839  0  1.088397  0  0  0.104953  0  1.087715  0  0  0.086536  0.099514  0  1.089087  0
H  H28  1  0.08608776  0.32594706  0.13041280  1  0  0.106654  0  0.994308  0  0  0.111102  0  1.066767  0  0  0.114609  0  1.065348  0  0  0.095892  0.108612  0  1.0678  0
H  H29  1  0.91391803  0.67404956  0.86958888  1  0  0.106672  0  0.994257  0  0  0.111119  0  1.066716  0  0  0.114629  0  1.065291  0  0  0.095894  0.108626  0  1.067751  0
H  H30  1  0.87736640  0.30151732  0.98980552  1  0  0.077385  0  0.964513  0  0  0.079884  0  1.041847  0  0  0.083416  0  1.038178  0  0  0.096283  0.076901  0  1.04513  0
H  H31  1  0.12264033  0.69848420  0.01019845  1  0  0.077368  0  0.964491  0  0  0.079869  0  1.041815  0  0  0.083423  0  1.038128  0  0  0.096263  0.076887  0  1.045098  0
H  H32  1  0.49147340  0.29464386  0.16376313  1  0  0.081335  0  0.942694  0  0  0.084456  0  1.015776  0  0  0.088389  0  1.011389  0  0  0.107922  0.08139  0  1.019294  0
H  H33  1  0.50852617  0.70535607  0.83623808  1  0  0.08131  0  0.942722  0  0  0.084445  0  1.015806  0  0  0.08838  0  1.011414  0  0  0.107926  0.08138  0  1.019323  0
H  H34  1  0.67848467  0.30745888  0.30448294  1  0  0.098074  0  0.996772  0  0  0.105119  0  1.066259  0  0  0.108791  0  1.063979  0  0  0.094794  0.102477  0  1.068037  0
H  H35  1  0.32151367  0.69254678  0.69551869  1  0  0.098118  0  0.996672  0  0  0.105148  0  1.066182  0  0  0.10882  0  1.063903  0  0  0.094795  0.102485  0  1.067984  0
H  H36  1  0.09039174  0.55125898  0.25560808  1  0  0.104396  0  0.986396  0  0  0.109232  0  1.059475  0  0  0.11292  0  1.057065  0  0  0.095428  0.106495  0  1.061406  0
H  H37  1  0.90960570  0.44874177  0.74438939  1  0  0.104349  0  0.986418  0  0  0.109187  0  1.059485  0  0  0.112874  0  1.057077  0  0  0.095401  0.106449  0  1.061416  0
H  H38  1  0.88034413  0.53142011  0.11679798  1  0  0.075373  0  0.98044  0  0  0.080877  0  1.051359  0  0  0.084142  0  1.048617  0  0  0.089651  0.078059  0  1.054036  0
H  H39  1  0.11965273  0.46857657  0.88319802  1  0  0.075376  0  0.98046  0  0  0.080875  0  1.051397  0  0  0.08414  0  1.048654  0  0  0.089659  0.078063  0  1.054062  0
H  H40  1  0.62801336  0.48236646  0.73871744  1  0  0.077621  0  0.957678  0  0  0.082628  0  1.030809  0  0  0.085905  0  1.027464  0  0  0.104388  0.080139  0  1.033361  0
H  H41  1  0.37197862  0.51762536  0.26127969  1  0  0.077602  0  0.957791  0  0  0.082626  0  1.030875  0  0  0.085903  0  1.027531  0  0  0.104379  0.080139  0  1.033423  0
H  H42  1  0.49657085  0.53565753  0.61090205  1  0  0.122509  0  0.963349  0  0  0.122234  0  1.03984  0  0  0.126592  0  1.036838  0  0  0.110859  0.119127  0  1.042103  0
H  H43  1  0.50342075  0.46433920  0.38909914  1  0  0.122479  0  0.963354  0  0  0.122225  0  1.039833  0  0  0.126593  0  1.036808  0  0  0.110851  0.119116  0  1.042102  0
H  H44  1  0.03234242  0.26305739  0.56241906  1  0  0.10823  0  0.971164  0  0  0.116154  0  1.035713  0  0  0.119917  0  1.033534  0  0  0.10346  0.113436  0  1.037392  0
H  H45  1  0.96764315  0.73694019  0.43757996  1  0  0.108205  0  0.971201  0  0  0.116028  0  1.035865  0  0  0.11979  0  1.033688  0  0  0.103419  0.113314  0  1.037539  0
H  H46  1  0.18549711  0.21943460  0.69161184  1  0  0.074431  0  0.944281  0  0  0.082069  0  1.012489  0  0  0.085337  0  1.009098  0  0  0.100907  0.079391  0  1.015407  0
H  H47  1  0.81449177  0.78055887  0.30838475  1  0  0.074438  0  0.944395  0  0  0.082056  0  1.012617  0  0  0.085324  0  1.009226  0  0  0.100906  0.079379  0  1.015535  0
C  C48  1  0.24822101  0.17384023  0.34364057  1  0  0.212378  0  3.738993  0  0  0.179616  0  4.011503  0  0  0.189535  0  4.02583  0  0  0.214675  0.172912  0  4.002078  0
C  C49  1  0.75178689  0.82616372  0.65636148  1  0  0.212254  0  3.73892  0  0  0.179597  0  4.011307  0  0  0.18952  0  4.025626  0  0  0.214689  0.172893  0  4.001883  0
C  C50  1  0.11332138  0.17846669  0.21408000  1  0  0.202555  0  3.733227  0  0  0.16829  0  4.007723  0  0  0.179713  0  4.020586  0  0  0.212555  0.160439  0  3.999488  0
C  C51  1  0.88668557  0.82153237  0.78592039  1  0  0.202537  0  3.733021  0  0  0.168214  0  4.007637  0  0  0.179637  0  4.020498  0  0  0.212491  0.160364  0  3.999401  0
C  C52  1  0.52494129  0.19237504  0.55973400  1  0  0.118736  0  3.68899  0  0  0.092157  0  3.931012  0  0  0.098182  0  3.950295  0  0  0.032645  0.088053  0  3.91848  0
C  C53  1  0.47506585  0.80762729  0.44026829  1  0  0.118837  0  3.688854  0  0  0.092254  0  3.930872  0  0  0.098278  0  3.950154  0  0  0.032616  0.088152  0  3.918344  0
C  C54  1  0.46378632  0.21505851  0.48270000  1  0  -0.142008  0  3.68662  0  0  -0.160291  0  3.932467  0  0  -0.167627  0  3.953068  0  0  -0.081564  -0.155616  0  3.919099  0
C  C55  1  0.53622287  0.78494543  0.51730215  1  0  -0.142078  0  3.686694  0  0  -0.160329  0  3.932566  0  0  -0.167665  0  3.953168  0  0  -0.081564  -0.155657  0  3.9192  0
C  C56  1  0.30787093  0.14419021  0.42275484  1  0  0.072707  0  3.764309  0  0  0.083641  0  4.003249  0  0  0.089072  0  4.021285  0  0  0.014071  0.079653  0  3.991602  0
C  C57  1  0.69213089  0.85581460  0.57724752  1  0  0.07276  0  3.764279  0  0  0.083609  0  4.003283  0  0  0.089037  0  4.021323  0  0  0.014043  0.079621  0  3.991632  0
C  C58  1  0.22176180  0.05194054  0.44470817  1  0  -0.146824  0  3.701982  0  0  -0.169096  0  3.953974  0  0  -0.175407  0  3.971992  0  0  -0.086981  -0.165314  0  3.942616  0
C  C59  1  0.77823815  0.94806593  0.55529624  1  0  -0.146759  0  3.701789  0  0  -0.16902  0  3.953778  0  0  -0.17533  0  3.971788  0  0  -0.087001  -0.165234  0  3.94242  0
C  C60  1  0.29043292  0.03642807  0.52444881  1  0  0.119502  0  3.695014  0  0  0.092777  0  3.940607  0  0  0.09942  0  3.958805  0  0  0.038582  0.088336  0  3.928748  0
C  C61  1  0.70956744  0.96357921  0.47555455  1  0  0.119408  0  3.695075  0  0  0.092673  0  3.94068  0  0  0.099348  0  3.958868  0  0  0.038595  0.088231  0  3.928821  0
C  C62  1  0.76316912  0.05003093  0.00035212  1  0  0.123289  0  3.6818  0  0  0.095848  0  3.932517  0  0  0.10244  0  3.948628  0  0  0.035088  0.091298  0  3.922328  0
C  C63  1  0.23683562  0.94996896  0.99964826  1  0  0.123283  0  3.681815  0  0  0.09583  0  3.932538  0  0  0.102425  0  3.948649  0  0  0.035042  0.09128  0  3.922352  0
C  C64  1  0.87677389  0.05637531  0.07815390  1  0  -0.150216  0  3.741095  0  0  -0.171992  0  3.984416  0  0  -0.178413  0  4.004909  0  0  -0.095591  -0.168101  0  3.971321  0
C  C65  1  0.12323713  0.94362126  0.92184444  1  0  -0.15026  0  3.741154  0  0  -0.171995  0  3.984491  0  0  -0.178421  0  4.004987  0  0  -0.095558  -0.168103  0  3.971394  0
C  C66  1  0.99387644  0.15728318  0.12885002  1  0  0.053657  0  3.784541  0  0  0.069618  0  4.018208  0  0  0.073038  0  4.037445  0  0  0.005822  0.067156  0  4.005588  0
C  C67  1  0.00612882  0.84271507  0.87115131  1  0  0.053814  0  3.784359  0  0  0.069698  0  4.018177  0  0  0.073115  0  4.037423  0  0  0.005825  0.067233  0  4.005554  0
C  C68  1  0.99503932  0.24638385  0.09499244  1  0  -0.129655  0  3.695299  0  0  -0.149356  0  3.935985  0  0  -0.156197  0  3.957514  0  0  -0.084715  -0.145114  0  3.922249  0
C  C69  1  0.00496838  0.75361683  0.90500832  1  0  -0.129678  0  3.695121  0  0  -0.149335  0  3.935824  0  0  -0.156175  0  3.957358  0  0  -0.084688  -0.145092  0  3.922088  0
C  C70  1  0.87898152  0.23301640  0.01658961  1  0  0.129833  0  3.668822  0  0  0.100639  0  3.919808  0  0  0.107304  0  3.936255  0  0  0.031385  0.095785  0  3.91003  0
C  C71  1  0.12102521  0.76698512  0.98341436  1  0  0.12981  0  3.668676  0  0  0.10061  0  3.91967  0  0  0.107256  0  3.936117  0  0  0.031358  0.095756  0  3.909893  0
C  C72  1  0.03322707  0.44818447  0.37502965  1  0  0.209624  0  3.742407  0  0  0.176304  0  4.016379  0  0  0.187661  0  4.029867  0  0  0.218379  0.168606  0  4.007508  0
C  C73  1  0.96676888  0.55181875  0.62497006  1  0  0.209526  0  3.74249  0  0  0.176251  0  4.016407  0  0  0.187607  0  4.029899  0  0  0.218417  0.168553  0  4.007538  0
C  C74  1  0.18428565  0.43661695  0.49878744  1  0  0.227977  0  3.716511  0  0  0.194442  0  3.989386  0  0  0.206178  0  4.002761  0  0  0.224877  0.186569  0  3.980408  0
C  C75  1  0.81570693  0.56338466  0.50121356  1  0  0.227856  0  3.716332  0  0  0.194259  0  3.989294  0  0  0.205995  0  4.002671  0  0  0.224807  0.186388  0  3.980314  0
C  C76  1  0.62687984  0.34903492  0.18499179  1  0  0.134337  0  3.66617  0  0  0.105608  0  3.91799  0  0  0.112934  0  3.932875  0  0  0.040185  0.100587  0  3.908648  0
C  C77  1  0.37311936  0.65096420  0.81500861  1  0  0.134365  0  3.666156  0  0  0.105624  0  3.917969  0  0  0.112952  0  3.932854  0  0  0.040191  0.100605  0  3.908621  0
C  C78  1  0.73546201  0.35576221  0.26444701  1  0  -0.151132  0  3.719052  0  0  -0.171739  0  3.965669  0  0  -0.178161  0  3.98571  0  0  -0.09209  -0.167718  0  3.952559  0
C  C79  1  0.26453575  0.64423936  0.73555315  1  0  -0.151168  0  3.719041  0  0  -0.171749  0  3.965681  0  0  -0.178172  0  3.98572  0  0  -0.092089  -0.167716  0  3.952585  0
C  C80  1  0.90784552  0.42830327  0.29202793  1  0  0.04984  0  3.789171  0  0  0.064546  0  4.022477  0  0  0.067977  0  4.042473  0  0  0.005983  0.062222  0  4.009117  0
C  C81  1  0.09215301  0.57169993  0.70797198  1  0  0.049976  0  3.789122  0  0  0.0646  0  4.022511  0  0  0.068032  0  4.042508  0  0  0.006073  0.062278  0  4.009147  0
C  C82  1  0.95977483  0.49215206  0.23700831  1  0  -0.132284  0  3.702983  0  0  -0.149866  0  3.944554  0  0  -0.155904  0  3.964137  0  0  -0.084955  -0.146244  0  3.932125  0
C  C83  1  0.04022352  0.50784787  0.76298908  1  0  -0.132345  0  3.702948  0  0  -0.149885  0  3.944536  0  0  -0.155923  0  3.964121  0  0  -0.08502  -0.146254  0  3.932087  0
C  C84  1  0.84258028  0.48184672  0.15981900  1  0  0.12384  0  3.677678  0  0  0.097167  0  3.921589  0  0  0.103849  0  3.937422  0  0  0.031439  0.092387  0  3.912171  0
C  C85  1  0.15741655  0.51814996  0.84017886  1  0  0.123843  0  3.677603  0  0  0.097149  0  3.92152  0  0  0.103831  0  3.937351  0  0  0.031416  0.09237  0  3.912106  0
C  C86  1  0.49806260  0.43409936  0.69672803  1  0  0.131114  0  3.660618  0  0  0.100093  0  3.91227  0  0  0.10659  0  3.928299  0  0  0.038335  0.095635  0  3.902059  0
C  C87  1  0.50192702  0.56589574  0.30326957  1  0  0.130983  0  3.660658  0  0  0.10004  0  3.912285  0  0  0.106538  0  3.928321  0  0  0.038327  0.095584  0  3.902068  0
C  C88  1  0.42394851  0.46382068  0.62546232  1  0  -0.115705  0  3.660341  0  0  -0.134241  0  3.90475  0  0  -0.14015  0  3.924402  0  0  -0.074166  -0.130485  0  3.891821  0
C  C89  1  0.57604568  0.53617602  0.37453845  1  0  -0.115672  0  3.660345  0  0  -0.134279  0  3.904801  0  0  -0.140187  0  3.924458  0  0  -0.074151  -0.130522  0  3.891867  0
C  C90  1  0.25444755  0.40158968  0.57333989  1  0  0.054949  0  3.762014  0  0  0.068464  0  3.99593  0  0  0.07137  0  4.016108  0  0  0.012299  0.066516  0  3.982322  0
C  C91  1  0.74554263  0.59840950  0.42665981  1  0  0.054961  0  3.761953  0  0  0.068495  0  3.995868  0  0  0.071395  0  4.016056  0  0  0.01228  0.066545  0  3.98226  0
C  C92  1  0.16560513  0.31256295  0.59842498  1  0  -0.142529  0  3.712696  0  0  -0.166221  0  3.964398  0  0  -0.172454  0  3.985333  0  0  -0.088367  -0.162163  0  3.950542  0
C  C93  1  0.83438469  0.68743542  0.40157391  1  0  -0.142472  0  3.712659  0  0  -0.166041  0  3.964301  0  0  -0.17227  0  3.985237  0  0  -0.088278  -0.161984  0  3.950444  0
C  C94  1  0.25068787  0.28814176  0.67063737  1  0  0.114097  0  3.70196  0  0  0.086171  0  3.952956  0  0  0.091965  0  3.970438  0  0  0.031225  0.082031  0  3.942158  0
C  C95  1  0.74930304  0.71185333  0.32936032  1  0  0.114063  0  3.702117  0  0  0.086202  0  3.953087  0  0  0.091997  0  3.970574  0  0  0.031244  0.082066  0  3.942277  0
I  I96  1  0.83295331  0.23013079  0.77764098  1  0  -0.32345  0  1.688475  0  0  -0.264789  0  2.124354  0  0  -0.282516  0  2.085011  0  0  -0.140939  -0.252039  0  2.150397  0
I  I97  1  0.16705083  0.76987074  0.22236341  1  0  -0.323452  0  1.688465  0  0  -0.264823  0  2.12438  0  0  -0.282535  0  2.085014  0  0  -0.140952  -0.252066  0  2.150433  0
I  I98  1  0.73756130  0.49479598  0.93234477  1  0  -0.358007  0  1.801031  0  0  -0.300691  0  2.276232  0  0  -0.318831  0  2.232933  0  0  -0.157065  -0.287111  0  2.304653  0
I  I99  1  0.26242873  0.50519993  0.06765115  1  0  -0.358027  0  1.801101  0  0  -0.300694  0  2.276287  0  0  -0.318846  0  2.233001  0  0  -0.157057  -0.287109  0  2.304708  0
I  I100  1  0.33580915  0.22551575  0.90919938  1  0  -0.337784  0  1.783366  0  0  -0.283419  0  2.241948  0  0  -0.299207  0  2.197931  0  0  -0.170442  -0.271861  0  2.270909  0
I  I101  1  0.66418984  0.77448010  0.09080035  1  0  -0.337762  0  1.783295  0  0  -0.283407  0  2.241875  0  0  -0.2992  0  2.197859  0  0  -0.17043  -0.271846  0  2.270846  0
I  I102  1  0.42803111  0.93338561  0.76014424  1  0  -0.40389  0  1.540982  0  0  -0.350484  0  1.957645  0  0  -0.369542  0  1.923099  0  0  -0.188798  -0.336017  0  1.979906  0
I  I103  1  0.57197202  0.06661347  0.23985335  1  0  -0.403896  0  1.541009  0  0  -0.350488  0  1.957672  0  0  -0.369538  0  1.923108  0  0  -0.188796  -0.33602  0  1.979939  0
N  N104  1  0.24031779  0.27229118  0.25225541  1  0  -0.248085  0  2.946036  0  0  -0.22965  0  3.243463  0  0  -0.237333  0  3.256459  0  0  -0.213491  -0.224505  0  3.234863  0
N  N105  1  0.75968825  0.72770871  0.74774506  1  0  -0.248099  0  2.945968  0  0  -0.22964  0  3.24342  0  0  -0.237322  0  3.256414  0  0  -0.213462  -0.224493  0  3.234817  0
N  N106  1  0.32448239  0.26900714  0.33174251  1  0  -0.246245  0  2.960189  0  0  -0.229859  0  3.260856  0  0  -0.237564  0  3.274378  0  0  -0.214024  -0.224456  0  3.251607  0
N  N107  1  0.67552219  0.73099520  0.66825896  1  0  -0.246203  0  2.96017  0  0  -0.229836  0  3.260781  0  0  -0.237541  0  3.274303  0  0  -0.214003  -0.224432  0  3.251532  0
N  N108  1  0.11383380  0.11427373  0.27075029  1  0  0.00214  0  3.530942  0  0  0.086053  0  3.748607  0  0  0.073791  0  3.771663  0  0  -0.139341  0.093741  0  3.733266  0
N  N109  1  0.88617555  0.88572776  0.72925139  1  0  0.002116  0  3.530651  0  0  0.086043  0  3.748307  0  0  0.073779  0  3.771359  0  0  -0.13936  0.093729  0  3.732966  0
N  N110  1  0.00315082  0.01150350  0.26202076  1  0  -0.513139  0  2.993705  0  0  -0.511109  0  3.226038  0  0  -0.519258  0  3.224091  0  0  -0.505417  -0.505015  0  3.22789  0
N  N111  1  0.99685559  0.98849720  0.73797990  1  0  -0.513098  0  2.993809  0  0  -0.51108  0  3.226128  0  0  -0.519225  0  3.224182  0  0  -0.505416  -0.504982  0  3.227978  0
N  N112  1  0.43919621  0.10504521  0.58214818  1  0  -0.267488  0  3.391396  0  0  -0.187702  0  3.678161  0  0  -0.203513  0  3.689445  0  0  -0.370116  -0.177924  0  3.67079  0
N  N113  1  0.56080835  0.89495713  0.41785391  1  0  -0.267443  0  3.391286  0  0  -0.187702  0  3.678123  0  0  -0.203498  0  3.689364  0  0  -0.370144  -0.177924  0  3.670751  0
N  N114  1  0.76086846  0.13655985  0.96972186  1  0  -0.255135  0  3.358546  0  0  -0.181889  0  3.640664  0  0  -0.194844  0  3.650365  0  0  -0.36681  -0.174039  0  3.634631  0
N  N115  1  0.23913960  0.86344165  0.03028034  1  0  -0.255211  0  3.358646  0  0  -0.181946  0  3.640762  0  0  -0.194912  0  3.650482  0  0  -0.366831  -0.174096  0  3.634729  0
N  N116  1  0.16706065  0.53893539  0.41035231  1  0  -0.256155  0  2.94635  0  0  -0.23697  0  3.241533  0  0  -0.245  0  3.255306  0  0  -0.218698  -0.231593  0  3.232357  0
N  N117  1  0.83293579  0.46106620  0.58964961  1  0  -0.256173  0  2.946261  0  0  -0.236997  0  3.241409  0  0  -0.245026  0  3.255182  0  0  -0.218723  -0.231621  0  3.232234  0
N  N118  1  0.25917810  0.53235355  0.48730635  1  0  -0.270042  0  2.975316  0  0  -0.248439  0  3.272633  0  0  -0.256973  0  3.285336  0  0  -0.215699  -0.242494  0  3.264047  0
N  N119  1  0.74081573  0.46764806  0.51269723  1  0  -0.269914  0  2.974967  0  0  -0.248291  0  3.272307  0  0  -0.256825  0  3.28501  0  0  -0.215664  -0.242345  0  3.26372  0
N  N120  1  0.03910507  0.38203406  0.42974805  1  0  -0.000364  0  3.520103  0  0  0.079209  0  3.742632  0  0  0.066228  0  3.766334  0  0  -0.139158  0.087471  0  3.726716  0
N  N121  1  0.96088883  0.61796755  0.57025180  1  0  -0.000402  0  3.520284  0  0  0.079234  0  3.742739  0  0  0.066252  0  3.766444  0  0  -0.139238  0.087492  0  3.726826  0
N  N122  1  0.92253950  0.28104872  0.42192285  1  0  -0.494529  0  2.931146  0  0  -0.498514  0  3.16929  0  0  -0.504951  0  3.16765  0  0  -0.49426  -0.493646  0  3.170676  0
N  N123  1  0.07745411  0.71895206  0.57807246  1  0  -0.494561  0  2.931041  0  0  -0.498524  0  3.169218  0  0  -0.504961  0  3.167575  0  0  -0.494197  -0.493653  0  3.170597  0
N  N124  1  0.67745418  0.41083153  0.13265278  1  0  -0.262287  0  3.355439  0  0  -0.188491  0  3.640866  0  0  -0.200596  0  3.649518  0  0  -0.363526  -0.181478  0  3.635609  0
N  N125  1  0.32254596  0.58916676  0.86734691  1  0  -0.26227  0  3.355354  0  0  -0.188475  0  3.640797  0  0  -0.20058  0  3.649448  0  0  -0.363503  -0.181461  0  3.635538  0
N  N126  1  0.41572730  0.34626841  0.71904454  1  0  -0.262769  0  3.364616  0  0  -0.187506  0  3.646198  0  0  -0.200125  0  3.655842  0  0  -0.36318  -0.179986  0  3.640409  0
N  N127  1  0.58426839  0.65372583  0.28095337  1  0  -0.262605  0  3.364555  0  0  -0.187493  0  3.646262  0  0  -0.200126  0  3.655928  0  0  -0.363213  -0.179969  0  3.640464  0
