# generated using pymatgen
data_MnH44C32(NO2)2
_symmetry_space_group_name_H-M   'P 1'
_cell_length_a   7.55914699
_cell_length_b   10.64916569
_cell_length_c   14.09133171
_cell_angle_alpha   110.91959152
_cell_angle_beta   90.01189513
_cell_angle_gamma   110.77524026
_symmetry_Int_Tables_number   1
_chemical_formula_structural   MnH44C32(NO2)2
_chemical_formula_sum   'Mn1 H44 C32 N2 O4'
_cell_volume   980.15997800
_cell_formula_units_Z   1
loop_
 _symmetry_equiv_pos_site_id
 _symmetry_equiv_pos_as_xyz
  1  'x, y, z'
loop_
 _atom_site_type_symbol
 _atom_site_label
 _atom_site_symmetry_multiplicity
 _atom_site_fract_x
 _atom_site_fract_y
 _atom_site_fract_z
 _atom_site_occupancy
 _atom_site_hle17_ddec_charge
 _atom_site_hle17_ddec_spin_density
 _atom_site_hle17_ddec_sum_bond_order
 _atom_site_hle17_magmom
 _atom_site_hse06_10hf_ddec_charge
 _atom_site_hse06_10hf_ddec_spin_density
 _atom_site_hse06_10hf_ddec_sum_bond_order
 _atom_site_hse06_10hf_magmom
 _atom_site_hse06_ddec_charge
 _atom_site_hse06_ddec_spin_density
 _atom_site_hse06_ddec_sum_bond_order
 _atom_site_hse06_magmom
 _atom_site_pbe_cm5_charge
 _atom_site_pbe_ddec_charge
 _atom_site_pbe_ddec_spin_density
 _atom_site_pbe_ddec_sum_bond_order
 _atom_site_pbe_magmom
Mn  Mn0  1  0.00000079  0.99999999  0.99999951  1  1.137102  -3.909321  2.623077  -3.822  1.041105  -3.603654  3.181474  -3.502  1.16134  -3.775971  3.078528  -3.678  0.785643  0.954459  -3.410975  3.256353  -3.303
H  H1  1  0.05107578  0.10173735  0.60120676  1  0.083172  -0.001239  0.985541  -0.001  0.095861  -6.2e-05  1.049008  0.0  0.097894  -0.000355  1.048122  0.0  0.092634  0.094351  9.2e-05  1.049925  0.0
H  H2  1  0.94892601  0.89826381  0.39879435  1  0.083238  -0.001237  0.985492  -0.001  0.095927  -6.2e-05  1.048969  0.0  0.097967  -0.000354  1.048075  0.0  0.092664  0.094414  9.2e-05  1.049888  0.0
H  H3  1  0.91970027  0.83901337  0.53848206  1  0.082545  -0.001047  0.986025  -0.001  0.093902  0.000136  1.052281  0.0  0.096414  -9.4e-05  1.050591  0.0  0.09262  0.092065  0.000245  1.053642  0.0
H  H4  1  0.08030097  0.16098671  0.46151805  1  0.082574  -0.001044  0.985932  -0.001  0.093942  0.000136  1.05221  0.0  0.096459  -9.4e-05  1.050511  0.0  0.092626  0.092102  0.000246  1.053574  0.0
H  H5  1  0.24030407  0.48004404  0.74532234  1  0.099644  3e-06  0.949628  0.0  0.12403  -7e-06  1.005764  0.0  0.124905  8e-06  1.007019  0.0  0.08783  0.123241  -2.7e-05  1.005228  0.0
H  H6  1  0.75969585  0.51995604  0.25467919  1  0.099661  3e-06  0.949609  0.0  0.124047  -7e-06  1.005754  0.0  0.124924  7e-06  1.007008  0.0  0.087852  0.123259  -2.7e-05  1.00522  0.0
H  H7  1  0.04437832  0.32379654  0.66560416  1  0.090408  -4.8e-05  0.962716  0.0  0.111638  -6.5e-05  1.02562  0.0  0.112718  -9e-05  1.02571  0.0  0.084617  0.110919  -4.9e-05  1.02531  0.0
H  H8  1  0.72024376  0.67631318  0.33445262  1  0.090604  -3.8e-05  0.961656  0.0  0.112043  -5.2e-05  1.02414  0.0  0.11315  -7.6e-05  1.024193  0.0  0.084716  0.111008  -4.9e-05  1.024598  0.0
H  H9  1  0.95562370  0.67620245  0.33439637  1  0.090377  -4.8e-05  0.962751  0.0  0.111612  -6.5e-05  1.025652  0.0  0.112692  -9e-05  1.025744  0.0  0.0846  0.110894  -4.9e-05  1.025343  0.0
H  H10  1  0.27975748  0.32368690  0.66554961  1  0.090596  -3.9e-05  0.961569  0.0  0.112006  -5.2e-05  1.024091  0.0  0.113111  -7.7e-05  1.024147  0.0  0.084699  0.110971  -4.9e-05  1.024552  0.0
H  H11  1  0.41091041  0.48605191  0.89716640  1  0.088871  -7.4e-05  0.958015  0.0  0.110092  -9.4e-05  1.020535  0.0  0.111034  -9e-05  1.021076  0.0  0.081231  0.1094  -0.000124  1.020199  0.0
H  H12  1  0.92418672  0.51378117  0.10289354  1  0.088542  -7.2e-05  0.957768  0.0  0.109977  -9.2e-05  1.020172  0.0  0.110892  -9.1e-05  1.020745  0.0  0.081104  0.109242  -0.000124  1.019853  0.0
H  H13  1  0.58909083  0.51394817  0.10283655  1  0.088853  -7.4e-05  0.957996  0.0  0.110084  -9.4e-05  1.020514  0.0  0.111029  -9e-05  1.02105  0.0  0.081226  0.109392  -0.000124  1.020179  0.0
H  H14  1  0.07581109  0.48622000  0.89710686  1  0.088526  -7.2e-05  0.95777  0.0  0.109956  -9.1e-05  1.020183  0.0  0.110869  -9.1e-05  1.020757  0.0  0.081089  0.109222  -0.000124  1.019862  0.0
H  H15  1  0.45099992  0.32640493  0.82343962  1  0.096226  -1.6e-05  0.943753  0.0  0.117163  -2.4e-05  1.002847  0.0  0.118388  -3.9e-05  1.003174  0.0  0.083688  0.116116  -1.2e-05  1.002908  0.0
H  H16  1  0.12399693  0.67327471  0.17663030  1  0.096215  -1.7e-05  0.945169  0.0  0.117361  -2.7e-05  1.003919  0.0  0.118608  -4.3e-05  1.004211  0.0  0.083721  0.116445  -1.3e-05  1.003788  0.0
H  H17  1  0.54899814  0.67359407  0.17656375  1  0.096228  -1.6e-05  0.943816  0.0  0.117175  -2.4e-05  1.002909  0.0  0.118395  -3.9e-05  1.003241  0.0  0.083712  0.116127  -1.2e-05  1.00297  0.0
H  H18  1  0.87600088  0.32672645  0.82336797  1  0.096195  -1.7e-05  0.94516  0.0  0.117345  -2.8e-05  1.003906  0.0  0.118592  -4.4e-05  1.004199  0.0  0.083699  0.116428  -1.3e-05  1.003774  0.0
H  H19  1  0.33654769  0.33485250  0.93505390  1  0.105218  0.000225  0.971415  0.0  0.121705  8.2e-05  1.037877  0.0  0.124463  8.3e-05  1.036493  0.0  0.084523  0.119776  5.1e-05  1.038753  0.0
H  H20  1  0.00129546  0.66493575  0.06499709  1  0.105503  0.000224  0.971247  0.0  0.121751  7.9e-05  1.037903  0.0  0.124471  8.2e-05  1.036561  0.0  0.084777  0.119773  5e-05  1.038918  0.0
H  H21  1  0.66344904  0.66514650  0.06494876  1  0.105191  0.000225  0.971444  0.0  0.12168  8.2e-05  1.037907  0.0  0.124429  8.3e-05  1.03653  0.0  0.084487  0.11975  5.2e-05  1.038781  0.0
H  H22  1  0.99869971  0.33506541  0.93500402  1  0.105494  0.000223  0.97127  0.0  0.121732  7.9e-05  1.037937  0.0  0.12445  8.2e-05  1.036598  0.0  0.084764  0.119753  5e-05  1.038955  0.0
H  H23  1  0.73333619  0.46738927  0.50672875  1  0.094818  -5e-06  0.947339  0.0  0.117032  -1.7e-05  1.006378  0.0  0.118606  -6e-06  1.006086  0.0  0.086113  0.115832  -2.6e-05  1.006714  0.0
H  H24  1  0.26666481  0.53261298  0.49327195  1  0.094789  -5e-06  0.947372  0.0  0.117035  -1.7e-05  1.006374  0.0  0.118615  -6e-06  1.006078  0.0  0.086116  0.115834  -2.6e-05  1.006713  0.0
H  H25  1  0.92532563  0.61578237  0.49737831  1  0.09515  -0.0  0.958919  0.0  0.117058  -1e-05  1.020503  0.0  0.117825  -2e-05  1.021485  0.0  0.085729  0.116531  -1e-06  1.01972  0.0
H  H26  1  0.31005596  0.38396232  0.50236617  1  0.09509  2e-06  0.95848  0.0  0.11712  -4e-06  1.020004  0.0  0.117922  -1.6e-05  1.020935  0.0  0.08578  0.116504  -1e-06  1.01943  0.0
H  H27  1  0.07467538  0.38421989  0.50262167  1  0.095134  0.0  0.95897  0.0  0.11705  -1.1e-05  1.020544  0.0  0.11782  -2e-05  1.021528  0.0  0.08573  0.116522  -0.0  1.019761  0.0
H  H28  1  0.68994558  0.61604102  0.49763553  1  0.09514  3e-06  0.958455  0.0  0.117198  -4e-06  1.019944  0.0  0.117989  -1.6e-05  1.020886  0.0  0.085787  0.116581  -1e-06  1.019366  0.0
H  H29  1  0.99270099  0.64844566  0.77226743  1  0.105592  0.000234  0.969801  0.0  0.121765  8e-05  1.036689  0.0  0.124613  8.3e-05  1.03516  0.0  0.084424  0.119847  4.7e-05  1.037638  0.0
H  H30  1  0.34337615  0.35115677  0.22748628  1  0.105108  0.000236  0.970604  0.0  0.121357  8.3e-05  1.037425  0.0  0.124206  8.8e-05  1.035896  0.0  0.08417  0.119366  4.9e-05  1.038443  0.0
H  H31  1  0.00730554  0.35155442  0.22773055  1  0.105519  0.000234  0.969843  0.0  0.121704  8e-05  1.036732  0.0  0.124541  8.3e-05  1.035212  0.0  0.084396  0.119787  4.8e-05  1.037683  0.0
H  H32  1  0.65662851  0.64884222  0.77251425  1  0.105087  0.000235  0.970599  0.0  0.121332  8.3e-05  1.037424  0.0  0.124182  8.9e-05  1.035895  0.0  0.084161  0.119342  4.9e-05  1.03844  0.0
H  H33  1  0.10722076  0.63948295  0.66063224  1  0.093966  -1.9e-05  0.952697  0.0  0.11496  -2e-05  1.013954  0.0  0.116006  -3.6e-05  1.014504  0.0  0.083064  0.114124  -6e-06  1.013802  0.0
H  H34  1  0.46714079  0.36004538  0.33902287  1  0.09418  -1.4e-05  0.952839  0.0  0.115311  -1.5e-05  1.01395  0.0  0.116399  -3.1e-05  1.014431  0.0  0.083116  0.114503  -5e-06  1.013688  0.0
H  H35  1  0.89278313  0.36051713  0.33936574  1  0.093913  -1.9e-05  0.952706  0.0  0.114912  -2.1e-05  1.013974  0.0  0.115959  -3.6e-05  1.014523  0.0  0.083055  0.114079  -6e-06  1.013824  0.0
H  H36  1  0.53286201  0.63995252  0.66097736  1  0.094175  -1.4e-05  0.952915  0.0  0.115317  -1.5e-05  1.014  0.0  0.116401  -3.1e-05  1.014486  0.0  0.083121  0.114508  -5e-06  1.013736  0.0
H  H37  1  0.90924098  0.48610082  0.66002438  1  0.089573  -5.2e-05  0.963051  0.0  0.112149  -4.3e-05  1.023548  0.0  0.113067  -5.1e-05  1.024036  0.0  0.082741  0.111687  -4.3e-05  1.022977  0.0
H  H38  1  0.42282349  0.51357244  0.33967581  1  0.08954  -4.8e-05  0.962521  0.0  0.112237  -3.8e-05  1.022975  0.0  0.113116  -4.6e-05  1.02351  0.0  0.082891  0.111572  -4.3e-05  1.022681  0.0
H  H39  1  0.09076476  0.51390034  0.33997318  1  0.089549  -5.1e-05  0.963036  0.0  0.112125  -4.3e-05  1.023548  0.0  0.113045  -5.1e-05  1.024032  0.0  0.082736  0.111663  -4.3e-05  1.022979  0.0
H  H40  1  0.57718437  0.48642763  0.66032359  1  0.089515  -4.8e-05  0.962545  0.0  0.112208  -3.8e-05  1.023  0.0  0.113085  -4.5e-05  1.023535  0.0  0.082888  0.111544  -4.3e-05  1.022702  0.0
H  H41  1  0.21815091  0.77519848  0.94492437  1  0.095429  -0.000649  0.928355  -0.001  0.103609  -0.001166  0.989895  -0.001  0.106978  -0.000896  0.987331  -0.001  0.130426  0.101082  -0.001495  0.99196  -0.001
H  H42  1  0.44430267  0.22536457  0.05541984  1  0.095914  -0.000643  0.926235  -0.001  0.102861  -0.001162  0.989206  -0.001  0.106172  -0.000887  0.986723  -0.001  0.130328  0.10038  -0.001493  0.991188  -0.001
H  H43  1  0.78184185  0.22480051  0.05507048  1  0.095502  -0.000649  0.928314  -0.001  0.103652  -0.001166  0.989865  -0.001  0.10702  -0.000896  0.987304  -0.001  0.130448  0.101125  -0.001495  0.991931  -0.001
H  H44  1  0.55568954  0.77463333  0.94457826  1  0.095943  -0.000643  0.926185  -0.001  0.102895  -0.001161  0.989144  -0.001  0.106207  -0.000887  0.986659  -0.001  0.130343  0.100414  -0.001493  0.991128  -0.001
C  C45  1  0.95542614  0.91039060  0.79231891  1  0.19959  0.096827  3.792134  0.05  0.178685  0.070242  4.060122  0.032  0.193303  0.087506  4.075876  0.041  0.075419  0.168414  0.053684  4.049283  0.023
C  C46  1  0.04457984  0.08960839  0.20768162  1  0.199936  0.097082  3.791916  0.051  0.178736  0.070282  4.060121  0.032  0.193367  0.087579  4.075851  0.041  0.075447  0.168462  0.053711  4.049294  0.023
C  C47  1  0.03299579  0.06571754  0.82964776  1  0.19715  0.094318  3.794376  0.049  0.178616  0.068142  4.062727  0.031  0.193107  0.084771  4.078685  0.04  0.075134  0.168312  0.052421  4.051529  0.022
C  C48  1  0.96700226  0.93428145  0.17035347  1  0.197346  0.094582  3.794092  0.049  0.178594  0.068178  4.062659  0.031  0.193097  0.084837  4.078594  0.04  0.075141  0.168283  0.052447  4.051468  0.022
C  C49  1  0.07045918  0.14060307  0.76222227  1  -0.060738  -0.014679  3.67271  -0.016  -0.044732  -0.002685  3.904961  -0.005  -0.050542  -0.007095  3.929275  -0.009  -0.020684  -0.040276  -0.000965  3.888317  -0.003
C  C50  1  0.92954067  0.85939157  0.23777922  1  -0.060601  -0.014658  3.672645  -0.016  -0.044717  -0.002681  3.905044  -0.005  -0.050526  -0.007096  3.92935  -0.009  -0.020716  -0.04025  -0.000962  3.88838  -0.003
C  C51  1  0.02619810  0.05199541  0.65785674  1  -0.114098  0.063211  3.796504  0.037  -0.142855  0.047491  4.05826  0.025  -0.142686  0.056526  4.079177  0.03  -0.107164  -0.143122  0.037558  4.044301  0.019
C  C52  1  0.97379832  0.94800032  0.34214006  1  -0.113949  0.063391  3.796288  0.037  -0.142855  0.0475  4.058212  0.025  -0.142676  0.056555  4.079104  0.03  -0.10718  -0.143128  0.037565  4.044257  0.019
C  C53  1  0.94978461  0.89912676  0.62128068  1  -0.116054  0.061472  3.801536  0.035  -0.145468  0.045898  4.063661  0.024  -0.145346  0.054732  4.083952  0.029  -0.107757  -0.145562  0.036628  4.049927  0.019
C  C54  1  0.05021717  0.10087440  0.37872114  1  -0.115922  0.061655  3.801266  0.036  -0.145543  0.045934  4.063541  0.024  -0.145409  0.054788  4.083805  0.029  -0.107727  -0.145643  0.036653  4.049821  0.019
C  C55  1  0.91169770  0.82293121  0.68629788  1  -0.059436  -0.012928  3.680121  -0.015  -0.040565  -0.000874  3.909139  -0.004  -0.046131  -0.005059  3.933078  -0.008  -0.020678  -0.03665  0.000275  3.892878  -0.003
C  C56  1  0.08830571  0.17707321  0.31370482  1  -0.059483  -0.0129  3.680234  -0.015  -0.040603  -0.000883  3.909249  -0.004  -0.046166  -0.005076  3.933177  -0.008  -0.020739  -0.036692  0.000271  3.892996  -0.003
C  C57  1  0.15353202  0.30661524  0.80255009  1  0.223439  -0.000304  3.586786  0.001  0.260119  -0.000719  3.805972  0.0  0.262082  -0.000689  3.824678  0.0  -0.010912  0.258664  -0.000726  3.793301  0.0
C  C58  1  0.84646658  0.69338484  0.19745144  1  0.223318  -0.000298  3.586869  0.001  0.260088  -0.000719  3.805963  0.0  0.262049  -0.000689  3.824669  0.0  -0.010938  0.258628  -0.000726  3.793302  0.0
C  C59  1  0.18058832  0.36068013  0.71436659  1  -0.337983  -0.00048  3.685957  0.0  -0.419409  -0.000413  3.92474  0.0  -0.422819  -0.000499  3.93713  0.0  -0.242795  -0.416694  -0.000382  3.916361  0.0
C  C60  1  0.81941347  0.63932103  0.28563523  1  -0.337941  -0.000482  3.685976  0.0  -0.419406  -0.000413  3.924714  0.0  -0.422818  -0.000499  3.937104  0.0  -0.242777  -0.416689  -0.000382  3.916336  0.0
C  C61  1  0.34995001  0.36657367  0.86863163  1  -0.335851  -0.000174  3.662127  0.0  -0.412018  -6.1e-05  3.894902  0.0  -0.415537  -0.000265  3.904942  0.0  -0.244143  -0.409528  -5.4e-05  3.888087  0.0
C  C62  1  0.98283361  0.63325194  0.13142617  1  -0.33584  -0.000224  3.663786  0.0  -0.412175  -0.000133  3.896348  0.0  -0.415646  -0.000326  3.906431  0.0  -0.244189  -0.409645  -5.4e-05  3.889656  0.0
C  C63  1  0.65004726  0.63342641  0.13137061  1  -0.335793  -0.000173  3.662212  0.0  -0.411982  -6.2e-05  3.894958  0.0  -0.415489  -0.000264  3.905005  0.0  -0.244117  -0.409491  -5.4e-05  3.888144  0.0
C  C64  1  0.01716498  0.36674814  0.86857323  1  -0.335804  -0.000224  3.663802  0.0  -0.412118  -0.000133  3.896396  0.0  -0.415589  -0.000325  3.906482  0.0  -0.24414  -0.409587  -5.5e-05  3.8897  0.0
C  C65  1  0.82878879  0.65734136  0.64835338  1  0.223171  -0.000331  3.590258  0.001  0.259511  -0.000662  3.808462  0.0  0.261504  -0.000659  3.826934  0.0  -0.011985  0.258163  -0.000694  3.795734  0.0
C  C66  1  0.17121113  0.34265871  0.35164602  1  0.223053  -0.000328  3.590438  0.001  0.259456  -0.000662  3.80853  0.0  0.261443  -0.000658  3.827018  0.0  -0.012011  0.258124  -0.000694  3.795763  0.0
C  C67  1  0.79287525  0.58623291  0.53084297  1  -0.337116  -0.000422  3.677882  0.0  -0.417717  -0.000329  3.915266  0.0  -0.421106  -0.0004  3.927476  0.0  -0.242833  -0.415013  -0.000271  3.906639  0.0
C  C68  1  0.20712388  0.41376826  0.46915601  1  -0.337019  -0.000421  3.677944  0.0  -0.417627  -0.000329  3.915324  0.0  -0.421029  -0.0004  3.927525  0.0  -0.242836  -0.414928  -0.000271  3.906698  0.0
C  C69  1  0.96874704  0.60539300  0.68811009  1  -0.338848  -5e-05  3.666581  0.0  -0.417722  0.000101  3.902046  0.0  -0.421214  -9.7e-05  3.912408  0.0  -0.245877  -0.415236  9.3e-05  3.894965  0.0
C  C70  1  0.36282370  0.39429554  0.31163748  1  -0.338614  -7.7e-05  3.667364  0.0  -0.417882  5e-05  3.903089  0.0  -0.421324  -0.00015  3.913313  0.0  -0.245811  -0.415173  9.7e-05  3.895872  0.0
C  C71  1  0.03125949  0.39460707  0.31188860  1  -0.338641  -4.7e-05  3.666603  0.0  -0.417545  0.000101  3.902055  0.0  -0.421027  -9.8e-05  3.912431  0.0  -0.245805  -0.415062  9.3e-05  3.894975  0.0
C  C72  1  0.63717886  0.60570453  0.68836334  1  -0.338603  -7.5e-05  3.667455  0.0  -0.417856  5.2e-05  3.903192  0.0  -0.421296  -0.00015  3.91342  0.0  -0.245831  -0.415146  9.7e-05  3.895971  0.0
C  C73  1  0.34526463  0.87548303  0.96947319  1  0.081184  0.00075  3.673049  0.0  0.059461  -0.000896  3.918396  -0.001  0.062147  -0.000308  3.936264  -0.001  0.071541  0.057324  -0.00143  3.907046  -0.001
C  C74  1  0.47044335  0.12478434  0.03072336  1  0.081078  0.000746  3.671126  0.0  0.059912  -0.000906  3.917295  -0.001  0.062624  -0.000312  3.935144  -0.001  0.071471  0.057794  -0.001419  3.905854  -0.001
C  C75  1  0.65472680  0.12451596  0.03052237  1  0.081109  0.000745  3.672898  0.0  0.059478  -0.000897  3.918202  -0.001  0.062162  -0.000308  3.936072  -0.001  0.071576  0.057342  -0.00143  3.906857  -0.001
C  C76  1  0.52954754  0.87521356  0.96927261  1  0.081052  0.00074  3.67095  0.0  0.059933  -0.000906  3.917131  -0.001  0.062646  -0.000312  3.934978  -0.001  0.071513  0.057816  -0.001419  3.905692  -0.001
N  N77  1  0.31659507  0.00027217  0.00019490  1  -0.246811  -0.036412  3.200113  -0.033  -0.200324  -0.045436  3.469118  -0.042  -0.217751  -0.041198  3.48769  -0.038  -0.277322  -0.188131  -0.04901  3.45717  -0.045
N  N78  1  0.68339582  0.99972574  0.99980107  1  -0.24679  -0.036404  3.1999  -0.033  -0.200393  -0.045432  3.468947  -0.042  -0.217817  -0.041194  3.487517  -0.038  -0.277363  -0.188205  -0.049006  3.457011  -0.045
O  O79  1  0.92882872  0.85693951  0.86625902  1  -0.51714  0.102849  2.101702  0.105  -0.467065  0.063146  2.384048  0.07  -0.510393  0.082366  2.381741  0.089  -0.312072  -0.435838  0.041666  2.385341  0.05
O  O80  1  0.07117197  0.14305948  0.13374080  1  -0.516876  0.103077  2.101622  0.106  -0.467054  0.06318  2.384041  0.07  -0.510366  0.082426  2.381715  0.089  -0.312056  -0.435833  0.04169  2.385342  0.05
O  O81  1  0.06543255  0.13092670  0.93221359  1  -0.517711  0.102919  2.088785  0.105  -0.470018  0.062211  2.370108  0.069  -0.512933  0.081494  2.367677  0.088  -0.312463  -0.438894  0.04097  2.371386  0.049
O  O82  1  0.93456791  0.86907446  0.06778894  1  -0.51737  0.103158  2.088685  0.105  -0.469958  0.062257  2.370061  0.069  -0.51286  0.081566  2.367623  0.088  -0.312406  -0.438841  0.041005  2.371346  0.049
