# generated using pymatgen
data_CuH14C23NO5
_symmetry_space_group_name_H-M   'P 1'
_cell_length_a   8.03156824
_cell_length_b   9.91235283
_cell_length_c   12.54172756
_cell_angle_alpha   87.09102537
_cell_angle_beta   75.31117383
_cell_angle_gamma   87.76382034
_symmetry_Int_Tables_number   1
_chemical_formula_structural   CuH14C23NO5
_chemical_formula_sum   'Cu2 H28 C46 N2 O10'
_cell_volume   964.23799120
_cell_formula_units_Z   2
loop_
 _symmetry_equiv_pos_site_id
 _symmetry_equiv_pos_as_xyz
  1  'x, y, z'
loop_
 _atom_site_type_symbol
 _atom_site_label
 _atom_site_symmetry_multiplicity
 _atom_site_fract_x
 _atom_site_fract_y
 _atom_site_fract_z
 _atom_site_occupancy
 _atom_site_hle17_ddec_charge
 _atom_site_hle17_ddec_spin_density
 _atom_site_hle17_ddec_sum_bond_order
 _atom_site_hle17_magmom
 _atom_site_hse06_10hf_ddec_charge
 _atom_site_hse06_10hf_ddec_spin_density
 _atom_site_hse06_10hf_ddec_sum_bond_order
 _atom_site_hse06_10hf_magmom
 _atom_site_hse06_ddec_charge
 _atom_site_hse06_ddec_spin_density
 _atom_site_hse06_ddec_sum_bond_order
 _atom_site_hse06_magmom
 _atom_site_pbe_cm5_charge
 _atom_site_pbe_ddec_charge
 _atom_site_pbe_ddec_spin_density
 _atom_site_pbe_ddec_sum_bond_order
 _atom_site_pbe_magmom
Cu  Cu0  1  0.89359253  0.06932048  0.95339342  1  0.847861  -0.689033  1.914448  -0.499  0.837778  -0.809143  2.32396  -0.646  0.940217  -0.895467  2.241976  -0.745  0.690414  0.772376  -0.713266  2.381212  -0.556
Cu  Cu1  1  0.10640704  0.93069588  0.04659696  1  0.847908  0.689076  1.914067  0.499  0.837907  0.809173  2.323443  0.646  0.940343  0.895497  2.241536  0.745  0.690352  0.772452  0.713343  2.3807  0.556
H  H2  1  0.54829400  0.76335272  0.91225904  1  0.108286  -0.000291  0.959585  0.0  0.116669  -0.000207  1.026974  0.0  0.120518  -0.000143  1.023286  0.0  0.106049  0.114053  -0.000222  1.029487  0.0
H  H3  1  0.45170713  0.23665662  0.08773857  1  0.108326  0.00029  0.959758  0.0  0.11669  0.000207  1.02715  0.0  0.120541  0.000143  1.023457  0.0  0.106085  0.114075  0.000222  1.029671  0.0
H  H4  1  0.89999426  0.54662823  0.07108719  1  0.098832  0.000228  0.967918  0.0  0.108858  0.000154  1.030297  0.0  0.111753  9.4e-05  1.028802  0.0  0.102332  0.10679  0.000181  1.031468  0.0
H  H5  1  0.10000293  0.45338011  0.92890716  1  0.098835  -0.000224  0.967744  0.0  0.108862  -0.000154  1.030132  0.0  0.111815  -9.3e-05  1.028571  0.0  0.102372  0.106793  -0.00018  1.031304  0.0
H  H6  1  0.28468313  0.65469385  0.89625694  1  0.107873  1.4e-05  0.947661  0.0  0.117255  2.6e-05  1.008937  0.0  0.120265  -4e-06  1.008071  0.0  0.102925  0.11504  0.000103  1.009773  0.0
H  H7  1  0.71531173  0.34532273  0.10375258  1  0.10793  -1.8e-05  0.94754  0.0  0.117304  -2.6e-05  1.008831  0.0  0.120317  4e-06  1.007965  0.0  0.102943  0.115089  -0.000103  1.009676  0.0
H  H8  1  0.16193952  0.04873683  0.62085973  1  0.110868  -0.00022  0.938396  0.0  0.120843  -0.000175  0.998545  0.0  0.12501  -0.000105  0.995188  0.0  0.108044  0.117848  -0.000223  1.000922  0.0
H  H9  1  0.83805926  0.95127058  0.37914635  1  0.110865  0.000223  0.938564  0.0  0.120864  0.000175  0.998667  0.0  0.12503  0.000105  0.995312  0.0  0.108042  0.117867  0.000223  1.001038  0.0
H  H10  1  0.56382265  0.89037471  0.76584874  1  0.109054  0.000223  0.953031  0.0  0.118266  0.000179  1.015417  0.0  0.121839  0.000126  1.012703  0.0  0.10915  0.115672  0.00021  1.017501  0.0
H  H11  1  0.43618251  0.10963667  0.23415606  1  0.109069  -0.000222  0.952987  0.0  0.118286  -0.000179  1.01536  0.0  0.121864  -0.000126  1.012639  0.0  0.109161  0.115707  -0.00021  1.017431  0.0
H  H12  1  0.22548651  0.09857648  0.41686105  1  0.101512  0.0001  0.928275  0.0  0.116001  8.5e-05  0.97877  0.0  0.118939  5.4e-05  0.977783  0.0  0.108162  0.113839  0.000104  0.979731  0.0
H  H13  1  0.77451738  0.90142374  0.58313810  1  0.101539  -0.000104  0.928349  0.0  0.116029  -8.5e-05  0.97883  0.0  0.118966  -5.4e-05  0.977844  0.0  0.108185  0.113867  -0.000104  0.97979  0.0
H  H14  1  0.54542455  0.09486809  0.87732218  1  0.089614  6e-06  0.931083  0.0  0.097574  4.4e-05  0.99484  0.0  0.100683  3e-05  0.992246  0.0  0.116829  0.095328  5.5e-05  0.996757  0.0
H  H15  1  0.45457979  0.90512417  0.12269081  1  0.089661  -8e-06  0.93109  0.0  0.097551  -4.4e-05  0.994883  0.0  0.100657  -3e-05  0.992296  0.0  0.116818  0.095296  -5.4e-05  0.996803  0.0
H  H16  1  0.40885124  0.25944962  0.76292068  1  0.103311  3.4e-05  0.937574  0.0  0.117154  2.4e-05  0.989438  0.0  0.119863  2.2e-05  0.989764  0.0  0.107323  0.115248  2.2e-05  0.989331  0.0
H  H17  1  0.59114410  0.74053970  0.23709240  1  0.103408  -3.9e-05  0.937471  0.0  0.117243  -2.4e-05  0.989325  0.0  0.119939  -2.2e-05  0.989661  0.0  0.107295  0.115325  -2.1e-05  0.989233  0.0
H  H18  1  0.57059652  0.46602530  0.67791181  1  0.110974  -1.1e-05  0.974367  0.0  0.121865  1e-06  1.034814  0.0  0.124357  0.0  1.033817  0.0  0.107572  0.119964  0.0  1.035718  0.0
H  H19  1  0.42939857  0.53395784  0.32208724  1  0.110991  5e-06  0.974426  0.0  0.121888  -1e-06  1.034846  0.0  0.124381  -1e-06  1.033847  0.0  0.107604  0.119981  -0.0  1.035757  0.0
H  H20  1  0.98617475  0.31928188  0.81647744  1  0.099724  7.7e-05  0.951071  0.0  0.106586  7.2e-05  1.017778  0.0  0.11053  7.5e-05  1.014186  0.0  0.117107  0.103712  5.5e-05  1.020428  0.0
H  H21  1  0.01383026  0.68072335  0.18351730  1  0.099729  -8.1e-05  0.951135  0.0  0.106637  -7.2e-05  1.017779  0.0  0.11056  -7.5e-05  1.014208  0.0  0.117115  0.103756  -5.5e-05  1.020427  0.0
H  H22  1  0.09880176  0.70754632  0.69073164  1  0.116519  1e-05  0.932805  0.0  0.129447  6e-06  0.985655  0.0  0.133059  6e-06  0.983833  0.0  0.10741  0.126896  6e-06  0.987051  0.0
H  H23  1  0.90119526  0.29242890  0.30928897  1  0.116587  -6e-06  0.932761  0.0  0.129519  -6e-06  0.985599  0.0  0.133131  -6e-06  0.983776  0.0  0.107478  0.126969  -6e-06  0.986997  0.0
H  H24  1  0.40453843  0.70384815  0.59218102  1  0.08205  0.0  0.989512  0.0  0.092683  -1e-06  1.054024  0.0  0.094291  -1e-06  1.054923  0.0  0.095109  0.091705  -2e-06  1.053158  0.0
H  H25  1  0.59546096  0.29613408  0.40783488  1  0.082089  -9e-06  0.989552  0.0  0.092791  1e-06  1.053997  0.0  0.094402  1e-06  1.054883  0.0  0.095148  0.091786  2e-06  1.05316  0.0
H  H26  1  0.35128391  0.30473253  0.48335395  1  0.077929  3e-06  1.000427  0.0  0.088028  0.0  1.067056  0.0  0.090072  0.0  1.0668  0.0  0.09361  0.086814  1e-06  1.066931  0.0
H  H27  1  0.64870133  0.69527074  0.51662434  1  0.078004  -1e-06  1.000439  0.0  0.088079  -1e-06  1.067076  0.0  0.090124  -0.0  1.066818  0.0  0.093606  0.086842  -1e-06  1.066976  0.0
H  H28  1  0.04610246  0.31150007  0.57954957  1  0.105799  -0.0  0.948652  0.0  0.117641  1e-06  1.0052  0.0  0.120436  1e-06  1.004758  0.0  0.104631  0.115729  2e-06  1.005598  0.0
H  H29  1  0.95388387  0.68850921  0.42042348  1  0.10578  4e-06  0.948633  0.0  0.11766  -2e-06  1.005151  0.0  0.120454  -1e-06  1.004712  0.0  0.104671  0.115747  -2e-06  1.005543  0.0
C  C30  1  0.47687443  0.55942399  0.97129135  1  0.057404  0.000238  3.782524  0.0  0.073264  0.000295  4.01249  0.0  0.071999  0.000146  4.038712  0.0  -0.003603  0.074059  0.000438  3.994748  0.001
C  C31  1  0.52311525  0.44059162  0.02871751  1  0.057349  -0.000249  3.782329  0.0  0.073281  -0.000291  4.012212  0.0  0.072009  -0.000142  4.03844  0.0  -0.003638  0.074083  -0.000439  3.99447  -0.001
C  C32  1  0.58622925  0.67102507  0.95189216  1  -0.092997  0.001957  3.683491  0.002  -0.128191  0.000796  3.934291  0.001  -0.126492  0.000606  3.951607  0.001  -0.075323  -0.129309  0.000869  3.922451  0.001
C  C33  1  0.41377215  0.32897826  0.04811286  1  -0.092947  -0.001965  3.683237  -0.002  -0.128121  -0.000802  3.934004  -0.001  -0.126417  -0.000611  3.951312  -0.001  -0.075324  -0.129246  -0.000869  3.922178  -0.001
C  C34  1  0.73570144  0.66614825  0.98784124  1  -0.063064  -0.00077  3.776918  -0.001  -0.042995  -0.000431  4.010863  0.0  -0.052751  -0.000348  4.032812  0.0  -0.021053  -0.035748  -0.000238  3.995722  0.0
C  C35  1  0.26430101  0.33385905  0.01215624  1  -0.063104  0.000799  3.776782  0.001  -0.043121  0.000439  4.010822  0.0  -0.052879  0.000352  4.03278  0.0  -0.021159  -0.035874  0.000242  3.995695  0.0
C  C36  1  0.78210437  0.54779063  0.04344357  1  -0.080585  -0.001352  3.748845  -0.002  -0.106364  -0.000756  4.004228  -0.001  -0.106396  -0.000473  4.024674  -0.001  -0.090572  -0.106426  -0.000813  3.990448  -0.001
C  C37  1  0.21789937  0.45222478  0.95655810  1  -0.080584  0.001304  3.748743  0.002  -0.106368  0.000757  4.004193  0.001  -0.106448  0.000474  4.024607  0.001  -0.090569  -0.106435  0.000812  3.99042  0.001
C  C38  1  0.32128168  0.56271440  0.93704392  1  -0.091591  0.001488  3.71276  0.002  -0.115209  0.000645  3.970542  0.001  -0.119095  0.000429  3.99286  0.001  -0.084081  -0.112535  0.000678  3.955433  0.001
C  C39  1  0.67870794  0.43730221  0.06296251  1  -0.091674  -0.001429  3.712575  -0.001  -0.115301  -0.000649  3.970328  -0.001  -0.119187  -0.000432  3.992632  -0.001  -0.084087  -0.11263  -0.000678  3.955227  -0.001
C  C40  1  0.83926097  0.78987873  0.97850586  1  0.634434  0.001232  3.867547  0.002  0.599863  0.000802  4.158644  0.001  0.641996  0.000783  4.151775  0.001  0.212491  0.570985  0.000768  4.162933  0.001
C  C41  1  0.16076606  0.21012731  0.02149144  1  0.634269  -0.001231  3.867587  -0.002  0.599796  -0.000803  4.15853  -0.002  0.641926  -0.000784  4.151659  -0.001  0.212414  0.570917  -0.000764  4.162827  -0.001
C  C42  1  0.41165176  0.02046968  0.50506828  1  0.054912  0.000507  3.794631  0.001  0.070719  0.000344  4.025499  0.0  0.0699  0.000207  4.050772  0.0  -0.004871  0.07093  0.000426  4.008925  0.001
C  C43  1  0.58835215  0.97954071  0.49493758  1  0.054951  -0.000511  3.794739  -0.001  0.070709  -0.000344  4.025621  0.0  0.069898  -0.000206  4.050881  0.0  -0.004909  0.070918  -0.000426  4.009047  -0.001
C  C44  1  0.29573459  0.01505727  0.61073327  1  -0.102765  0.000761  3.687749  0.001  -0.13621  0.000477  3.936342  0.001  -0.135267  0.000369  3.954117  0.001  -0.075349  -0.13642  0.000504  3.923897  0.001
C  C45  1  0.70427194  0.98494498  0.38926932  1  -0.102789  -0.000773  3.687724  -0.001  -0.136222  -0.000477  3.936304  -0.001  -0.135281  -0.000369  3.954074  -0.001  -0.075339  -0.136427  -0.000505  3.923849  -0.001
C  C46  1  0.34970296  0.96927267  0.70300821  1  -0.054516  -0.000249  3.755824  0.0  -0.032882  -2.4e-05  3.989748  0.0  -0.042093  -3.4e-05  4.012052  0.0  -0.015439  -0.026202  -1.4e-05  3.974602  0.0
C  C47  1  0.65030093  0.03072552  0.29698944  1  -0.054494  0.000264  3.755843  0.0  -0.032931  3e-05  3.989779  0.0  -0.042137  3.7e-05  4.012074  0.0  -0.015469  -0.026254  2.1e-05  3.97464  0.0
C  C48  1  0.52358427  0.92600401  0.69251797  1  -0.071229  -0.000897  3.738982  -0.001  -0.098125  -0.000588  3.99525  -0.001  -0.097868  -0.000404  4.015273  -0.001  -0.081348  -0.098451  -0.000652  3.98203  -0.001
C  C49  1  0.47642096  0.07399623  0.30748334  1  -0.07128  0.000877  3.738995  0.001  -0.098144  0.000588  3.995265  0.001  -0.097888  0.000404  4.015288  0.001  -0.081333  -0.09848  0.000651  3.982044  0.001
C  C50  1  0.35985838  0.06748718  0.40907875  1  -0.110975  0.000707  3.741254  0.001  -0.130946  0.000433  3.993908  0.0  -0.134475  0.000284  4.015165  0.0  -0.084679  -0.128769  0.000526  3.980053  0.001
C  C51  1  0.64014800  0.93251807  0.59091974  1  -0.111145  -0.000675  3.741515  -0.001  -0.131081  -0.000433  3.994153  0.0  -0.13461  -0.000286  4.015404  0.0  -0.08474  -0.128903  -0.000526  3.980296  -0.001
C  C52  1  0.22419932  0.97221231  0.81410192  1  0.629777  -0.000865  3.885633  -0.001  0.593343  -0.000724  4.179798  -0.001  0.634593  -0.000686  4.173546  -0.001  0.210692  0.565201  -0.000633  4.184125  -0.001
C  C53  1  0.77582427  0.02777868  0.18590463  1  0.629648  0.000865  3.885778  0.001  0.593343  0.000724  4.179778  0.001  0.634592  0.000686  4.173529  0.001  0.210749  0.565206  0.000635  4.184099  0.001
C  C54  1  0.61252998  0.18390018  0.83577469  1  0.103698  0.00039  3.711592  0.0  0.075175  0.000316  3.97255  0.0  0.081769  0.000298  3.991145  0.0  0.03783  0.071045  0.000323  3.959946  0.0
C  C55  1  0.38747289  0.81609508  0.16423283  1  0.103572  -0.000393  3.711708  0.0  0.075154  -0.000316  3.97264  0.0  0.08175  -0.000298  3.991233  0.0  0.037862  0.071019  -0.000322  3.960028  0.0
C  C56  1  0.53727344  0.27588830  0.77293493  1  -0.09777  -0.000264  3.759952  0.0  -0.106636  -0.000118  4.006311  0.0  -0.112579  -0.000126  4.02831  0.0  -0.082743  -0.102883  -0.000124  3.991611  0.0
C  C57  1  0.46272567  0.72410094  0.22707352  1  -0.097952  0.000289  3.759886  0.0  -0.106798  0.000118  4.006138  0.0  -0.112728  0.000125  4.028141  0.0  -0.082765  -0.10305  0.000124  3.991437  0.0
C  C58  1  0.62662522  0.39029135  0.72504972  1  -0.114838  0.000317  3.716257  0.0  -0.141396  0.000266  3.962825  0.0  -0.139274  0.000234  3.979365  0.0  -0.077322  -0.142571  0.00031  3.951784  0.0
C  C59  1  0.37336990  0.60969181  0.27495092  1  -0.114774  -0.000322  3.716142  0.0  -0.141268  -0.000264  3.962657  0.0  -0.139145  -0.000232  3.979189  0.0  -0.077315  -0.142452  -0.00031  3.951638  0.0
C  C60  1  0.79159663  0.40594511  0.73876397  1  0.217643  -0.000235  3.797123  0.0  0.213847  -0.000106  4.055236  0.0  0.219348  -0.000111  4.07122  0.0  0.085955  0.209593  -0.000112  4.044567  0.0
C  C61  1  0.20840092  0.59404304  0.26123283  1  0.217712  0.000251  3.796961  0.0  0.213854  0.000104  4.055213  0.0  0.219355  0.00011  4.0712  0.0  0.085965  0.209582  0.000112  4.044544  0.0
C  C62  1  0.85886823  0.30953117  0.80240025  1  0.011832  0.000381  3.700425  0.0  -0.02366  0.000321  3.961152  0.0  -0.01841  0.000303  3.976539  0.0  0.033386  -0.026929  0.000328  3.95097  0.0
C  C63  1  0.14113186  0.69046506  0.19759973  1  0.011718  -0.000372  3.700279  0.0  -0.023756  -0.000319  3.961074  0.0  -0.018489  -0.000302  3.976472  0.0  0.033404  -0.027029  -0.000328  3.95088  0.0
C  C64  1  0.05356003  0.50937908  0.64274487  1  0.269376  -2.8e-05  3.804528  0.0  0.25871  -1e-05  4.068951  0.0  0.268917  -7e-06  4.085557  0.0  0.081965  0.251757  -5e-06  4.057808  0.0
C  C65  1  0.94642698  0.49061723  0.35724858  1  0.26971  3.9e-05  3.804412  0.0  0.259107  5e-06  4.068811  0.0  0.269316  4e-06  4.085418  0.0  0.082136  0.25214  4e-06  4.057673  0.0
C  C66  1  0.15605148  0.61939477  0.64500415  1  -0.176123  3e-06  3.756393  0.0  -0.196971  5e-06  4.008163  0.0  -0.201555  1e-06  4.02716  0.0  -0.103076  -0.194128  4e-06  3.995218  0.0
C  C67  1  0.84394618  0.38059240  0.35499667  1  -0.176423  -2.7e-05  3.756296  0.0  -0.197285  -2e-06  4.008098  0.0  -0.20187  0.0  4.027096  0.0  -0.103206  -0.194443  -4e-06  3.995159  0.0
C  C68  1  0.32964887  0.61560501  0.58887072  1  -0.089976  7e-06  3.74529  0.0  -0.108592  3e-06  3.993233  0.0  -0.109443  1e-06  4.014687  0.0  -0.090618  -0.107469  -0.0  3.977906  0.0
C  C69  1  0.67034241  0.38437921  0.41113212  1  -0.089883  2.4e-05  3.745247  0.0  -0.108551  1e-06  3.993134  0.0  -0.1094  -1e-06  4.014585  0.0  -0.090644  -0.107411  0.0  3.977836  0.0
C  C70  1  0.40745453  0.50242266  0.52991224  1  0.021934  -2.9e-05  3.785259  0.0  0.034452  -4e-06  4.022242  0.0  0.033463  -1e-06  4.045416  0.0  -0.019313  0.035108  2e-06  4.006443  0.0
C  C71  1  0.59253908  0.49756856  0.47008430  1  0.021925  3.8e-05  3.785352  0.0  0.034458  -5e-06  4.022319  0.0  0.03347  -1e-06  4.045493  0.0  -0.019263  0.035116  -2e-06  4.006506  0.0
C  C72  1  0.29988597  0.39369872  0.52931842  1  -0.08029  -1e-06  3.742067  0.0  -0.101246  4e-06  3.994024  0.0  -0.101192  1e-06  4.013672  0.0  -0.09078  -0.100835  -1e-06  3.980028  0.0
C  C73  1  0.70010338  0.60630154  0.47066728  1  -0.080272  -2e-05  3.742125  0.0  -0.101207  2e-06  3.994047  0.0  -0.101153  1e-06  4.013692  0.0  -0.090779  -0.100779  1e-06  3.980047  0.0
C  C74  1  0.12603369  0.39636436  0.58381885  1  -0.184741  -5e-06  3.78027  0.0  -0.205936  5e-06  4.035075  0.0  -0.211326  2e-06  4.0559  0.0  -0.10432  -0.202615  2e-06  4.021102  0.0
C  C75  1  0.87395173  0.60363287  0.41616288  1  -0.184867  -0.0  3.780397  0.0  -0.206126  -1e-06  4.035263  0.0  -0.211515  0.0  4.056086  0.0  -0.104395  -0.2028  -2e-06  4.021274  0.0
N  N76  1  0.76974542  0.20167540  0.85087085  1  -0.285021  0.0009  3.27215  0.0  -0.236385  0.000555  3.558058  0.0  -0.257082  0.000619  3.575282  0.0  -0.337692  -0.223111  0.000404  3.547247  0.0
N  N77  1  0.23026376  0.79832279  0.14913227  1  -0.284933  -0.000908  3.271896  0.0  -0.236406  -0.000555  3.557859  0.0  -0.257105  -0.000619  3.575095  0.0  -0.337756  -0.223118  -0.000404  3.547018  0.0
O  O78  1  0.78317094  0.89816324  0.93837255  1  -0.558169  -0.084745  2.069291  -0.112  -0.536924  -0.054777  2.341321  -0.08  -0.58176  -0.041964  2.333953  -0.065  -0.312688  -0.507431  -0.059507  2.34664  -0.083
O  O79  1  0.21684173  0.10184594  0.06162069  1  -0.55806  0.084737  2.069612  0.112  -0.53683  0.054779  2.34154  0.08  -0.581663  0.041963  2.334192  0.065  -0.31253  -0.507334  0.059492  2.346851  0.083
O  O80  1  0.97308313  0.77832865  0.01612306  1  -0.584318  0.072073  2.135524  0.095  -0.559122  0.048085  2.416296  0.07  -0.604199  0.037064  2.410087  0.057  -0.311608  -0.528918  0.05292  2.420395  0.074
O  O81  1  0.02693593  0.22167435  0.98386379  1  -0.584364  -0.072083  2.13519  -0.095  -0.559159  -0.048092  2.415898  -0.07  -0.604247  -0.037071  2.409691  -0.057  -0.311664  -0.528957  -0.052941  2.420009  -0.074
O  O82  1  0.08082588  0.03313026  0.81682764  1  -0.579092  -0.070253  2.11859  -0.093  -0.556206  -0.047665  2.389821  -0.069  -0.600026  -0.037292  2.383099  -0.057  -0.313242  -0.527245  -0.050303  2.394652  -0.07
O  O83  1  0.91917667  0.96687302  0.18317160  1  -0.578932  0.070212  2.119104  0.093  -0.556081  0.047647  2.390262  0.069  -0.599885  0.037278  2.383553  0.057  -0.313189  -0.527127  0.050274  2.395081  0.07
O  O84  1  0.27153716  0.91680331  0.89613268  1  -0.562136  0.075046  2.065705  0.099  -0.53832  0.051391  2.341224  0.075  -0.58134  0.040083  2.333154  0.062  -0.30531  -0.510488  0.053878  2.347484  0.075
O  O85  1  0.72846914  0.08320496  0.10386410  1  -0.562163  -0.075076  2.065062  -0.099  -0.538452  -0.051403  2.340627  -0.075  -0.581492  -0.040093  2.332561  -0.062  -0.305401  -0.510616  -0.053904  2.346897  -0.075
O  O86  1  0.87980619  0.52139595  0.69475757  1  -0.29095  -3.3e-05  2.33884  0.0  -0.223683  -5e-06  2.558996  0.0  -0.241175  -4e-06  2.56231  0.0  -0.153901  -0.211132  -5e-06  2.556349  0.0
O  O87  1  0.12018738  0.47859525  0.30523738  1  -0.291006  3e-05  2.338764  0.0  -0.223825  3e-06  2.559005  0.0  -0.241325  3e-06  2.56233  0.0  -0.153985  -0.211246  4e-06  2.556347  0.0
