# generated using pymatgen
data_CdH16C16(N5O2)2
_symmetry_space_group_name_H-M   'P 1'
_cell_length_a   4.97439203
_cell_length_b   9.13200606
_cell_length_c   20.93416183
_cell_angle_alpha   90.00013305
_cell_angle_beta   94.33862116
_cell_angle_gamma   89.99986798
_symmetry_Int_Tables_number   1
_chemical_formula_structural   CdH16C16(N5O2)2
_chemical_formula_sum   'Cd2 H32 C32 N20 O8'
_cell_volume   948.23386537
_cell_formula_units_Z   2
loop_
 _symmetry_equiv_pos_site_id
 _symmetry_equiv_pos_as_xyz
  1  'x, y, z'
loop_
 _atom_site_type_symbol
 _atom_site_label
 _atom_site_symmetry_multiplicity
 _atom_site_fract_x
 _atom_site_fract_y
 _atom_site_fract_z
 _atom_site_occupancy
 _atom_site_hle17_bader_spin_density
 _atom_site_hle17_ddec_charge
 _atom_site_hle17_ddec_spin_density
 _atom_site_hle17_ddec_sum_bond_order
 _atom_site_hle17_magmom
 _atom_site_hse06_10hf_bader_spin_density
 _atom_site_hse06_10hf_ddec_charge
 _atom_site_hse06_10hf_ddec_spin_density
 _atom_site_hse06_10hf_ddec_sum_bond_order
 _atom_site_hse06_10hf_magmom
 _atom_site_hse06_bader_spin_density
 _atom_site_hse06_ddec_charge
 _atom_site_hse06_ddec_spin_density
 _atom_site_hse06_ddec_sum_bond_order
 _atom_site_hse06_magmom
 _atom_site_pbe_bader_spin_density
 _atom_site_pbe_cm5_charge
 _atom_site_pbe_ddec_charge
 _atom_site_pbe_ddec_spin_density
 _atom_site_pbe_ddec_sum_bond_order
 _atom_site_pbe_magmom
Cd  Cd0  1  0.49999889  0.99999816  0.50000023  1  0  1.172891  0  1.690986  0  0  0.990056  0  2.142121  0  0  1.043164  0  2.090705  0  0  0.783767  0.952098  0  2.177731  0
Cd  Cd1  1  0.49999963  0.50000155  0.00000012  1  0  1.172898  0  1.690984  0  0  0.990034  0  2.142117  0  0  1.043144  0  2.090702  0  0  0.783761  0.952079  0  2.177726  0
H  H2  1  0.19887386  0.56656656  0.42873948  1  0  0.122205  0  0.949192  0  0  0.134593  0  1.005289  0  0  0.137335  0  1.004176  0  0  0.123756  0.132078  0  1.007022  0
H  H3  1  0.80113647  0.06657214  0.07126158  1  0  0.122216  0  0.949146  0  0  0.134571  0  1.005266  0  0  0.137324  0  1.004138  0  0  0.123741  0.132057  0  1.006996  0
H  H4  1  0.80113599  0.43343042  0.57126115  1  0  0.122218  0  0.949126  0  0  0.13457  0  1.005259  0  0  0.137325  0  1.004129  0  0  0.123732  0.132056  0  1.006992  0
H  H5  1  0.19887539  0.93343360  0.92873908  1  0  0.1222  0  0.949214  0  0  0.134595  0  1.005306  0  0  0.137342  0  1.004187  0  0  0.123757  0.132081  0  1.00704  0
H  H6  1  0.08987031  0.31431994  0.50010166  1  0  0.109276  0  0.981869  0  0  0.116628  0  1.0458  0  0  0.119706  0  1.043808  0  0  0.112304  0.114313  0  1.047522  0
H  H7  1  0.91012946  0.81432151  0.99989921  1  0  0.10925  0  0.981875  0  0  0.116609  0  1.045814  0  0  0.119687  0  1.043822  0  0  0.112292  0.114292  0  1.047541  0
H  H8  1  0.91012541  0.68567704  0.49989778  1  0  0.109208  0  0.981917  0  0  0.11662  0  1.045792  0  0  0.119698  0  1.043799  0  0  0.112296  0.114302  0  1.047517  0
H  H9  1  0.08987638  0.18567875  0.00010279  1  0  0.10927  0  0.981831  0  0  0.116603  0  1.045789  0  0  0.11968  0  1.043797  0  0  0.112295  0.114287  0  1.04751  0
H  H10  1  0.71591868  0.22178535  0.38177481  1  0  0.095564  0  0.970934  0  0  0.09667  0  1.048431  0  0  0.099221  0  1.045599  0  0  0.130908  0.09481  0  1.050346  0
H  H11  1  0.28406683  0.72179444  0.11822503  1  0  0.095622  0  0.970874  0  0  0.096697  0  1.04841  0  0  0.099248  0  1.045582  0  0  0.130945  0.094839  0  1.050325  0
H  H12  1  0.28406898  0.77820725  0.61822496  1  0  0.095631  0  0.970864  0  0  0.096693  0  1.04842  0  0  0.099244  0  1.045589  0  0  0.130931  0.094833  0  1.050337  0
H  H13  1  0.71591677  0.27821348  0.88177276  1  0  0.095614  0  0.970922  0  0  0.09668  0  1.048458  0  0  0.09923  0  1.045631  0  0  0.130932  0.09482  0  1.050376  0
H  H14  1  0.77701921  0.45402548  0.32693939  1  0  0.096736  0  0.924458  0  0  0.104879  0  0.995899  0  0  0.105577  0  0.996134  0  0  0.118628  0.104266  0  0.995931  0
H  H15  1  0.22298958  0.95403276  0.17306205  1  0  0.096706  0  0.924619  0  0  0.104856  0  0.99602  0  0  0.105544  0  0.996247  0  0  0.118628  0.104248  0  0.996053  0
H  H16  1  0.22299266  0.54596930  0.67306176  1  0  0.096699  0  0.924576  0  0  0.10486  0  0.996001  0  0  0.105547  0  0.996232  0  0  0.118637  0.104252  0  0.996035  0
H  H17  1  0.77701420  0.04597189  0.82693752  1  0  0.096701  0  0.924555  0  0  0.104838  0  0.995987  0  0  0.105534  0  0.996222  0  0  0.118615  0.104226  0  0.996019  0
H  H18  1  0.65582138  0.61732055  0.36171464  1  0  0.103575  0  0.896556  0  0  0.120141  0  0.951165  0  0  0.121428  0  0.949964  0  0  0.122979  0.119248  0  0.952103  0
H  H19  1  0.34417666  0.11732815  0.13828627  1  0  0.103572  0  0.896646  0  0  0.120083  0  0.951302  0  0  0.12136  0  0.950096  0  0  0.122959  0.119194  0  0.952238  0
H  H20  1  0.34418041  0.38267533  0.63828586  1  0  0.103548  0  0.896616  0  0  0.120109  0  0.951251  0  0  0.121386  0  0.950043  0  0  0.122974  0.119219  0  0.952188  0
H  H21  1  0.65581907  0.88267978  0.86171364  1  0  0.103518  0  0.896643  0  0  0.120078  0  0.951244  0  0  0.121363  0  0.950043  0  0  0.122957  0.119187  0  0.952186  0
H  H22  1  0.74898018  0.54205387  0.14581336  1  0  0.123887  0  0.938576  0  0  0.130407  0  1.010363  0  0  0.133306  0  1.008669  0  0  0.121525  0.128434  0  1.011451  0
H  H23  1  0.25102219  0.04205507  0.35418803  1  0  0.123894  0  0.938519  0  0  0.130416  0  1.010304  0  0  0.133314  0  1.008611  0  0  0.121517  0.128442  0  1.011394  0
H  H24  1  0.25102162  0.45794639  0.85418810  1  0  0.123897  0  0.938552  0  0  0.130414  0  1.01034  0  0  0.133311  0  1.00865  0  0  0.121522  0.128439  0  1.01143  0
H  H25  1  0.74897556  0.95794410  0.64581240  1  0  0.123878  0  0.938537  0  0  0.130406  0  1.010308  0  0  0.133305  0  1.008614  0  0  0.121506  0.128432  0  1.0114  0
H  H26  1  0.79865674  0.35788189  0.17056018  1  0  0.120578  0  0.972448  0  0  0.120942  0  1.052074  0  0  0.124723  0  1.049031  0  0  0.11389  0.117969  0  1.054678  0
H  H27  1  0.20134233  0.85788344  0.32943908  1  0  0.120536  0  0.972491  0  0  0.120899  0  1.0521  0  0  0.12468  0  1.049059  0  0  0.113884  0.117929  0  1.054705  0
H  H28  1  0.20134101  0.64211618  0.82943976  1  0  0.120529  0  0.972505  0  0  0.120891  0  1.052117  0  0  0.124673  0  1.04908  0  0  0.113878  0.117921  0  1.054723  0
H  H29  1  0.79865540  0.14211682  0.67056039  1  0  0.120548  0  0.972469  0  0  0.120929  0  1.052069  0  0  0.124711  0  1.049026  0  0  0.11389  0.117956  0  1.054676  0
H  H30  1  0.28836201  0.31176219  0.24123301  1  0  0.131703  0  0.966235  0  0  0.133092  0  1.043409  0  0  0.136745  0  1.039994  0  0  0.12715  0.130112  0  1.04652  0
H  H31  1  0.71163323  0.81177040  0.25876757  1  0  0.131707  0  0.966333  0  0  0.133108  0  1.043463  0  0  0.136761  0  1.040047  0  0  0.127158  0.13013  0  1.046576  0
H  H32  1  0.71163576  0.68823041  0.75876837  1  0  0.131719  0  0.966333  0  0  0.133097  0  1.043492  0  0  0.13675  0  1.040078  0  0  0.127164  0.130119  0  1.046604  0
H  H33  1  0.28836246  0.18823205  0.74123043  1  0  0.131709  0  0.966246  0  0  0.133142  0  1.043369  0  0  0.136796  0  1.039953  0  0  0.127183  0.130163  0  1.046482  0
C  C34  1  0.28456369  0.45737473  0.42989757  1  0  -0.077473  0  3.683375  0  0  -0.118597  0  3.944365  0  0  -0.11815  0  3.964478  0  0  -0.005037  -0.118594  0  3.930945  0
C  C35  1  0.71543905  0.95738084  0.07010424  1  0  -0.077621  0  3.683297  0  0  -0.118705  0  3.944291  0  0  -0.118267  0  3.964398  0  0  -0.005059  -0.118699  0  3.930868  0
C  C36  1  0.71544011  0.54262116  0.57010344  1  0  -0.077681  0  3.683334  0  0  -0.118778  0  3.944338  0  0  -0.118343  0  3.964445  0  0  -0.005097  -0.118774  0  3.930916  0
C  C37  1  0.28456679  0.04262380  0.92989775  1  0  -0.077532  0  3.68342  0  0  -0.118669  0  3.944427  0  0  -0.118227  0  3.964536  0  0  -0.005062  -0.118668  0  3.931008  0
C  C38  1  0.23656260  0.33464935  0.46537501  1  0  -0.000344  0  3.755207  0  0  -0.034945  0  4.026354  0  0  -0.032445  0  4.045459  0  0  -0.007789  -0.036593  0  4.013223  0
C  C39  1  0.76344264  0.83465522  0.03462672  1  0  -0.000256  0  3.755096  0  0  -0.034875  0  4.026237  0  0  -0.032377  0  4.045344  0  0  -0.007753  -0.036521  0  4.013104  0
C  C40  1  0.76343918  0.66534544  0.53462549  1  0  -0.000142  0  3.755164  0  0  -0.034793  0  4.02628  0  0  -0.032293  0  4.045389  0  0  -0.007694  -0.036437  0  4.013143  0
C  C41  1  0.23656520  0.16535052  0.96537483  1  0  -0.000256  0  3.755119  0  0  -0.034841  0  4.026273  0  0  -0.03234  0  4.045379  0  0  -0.007743  -0.036486  0  4.013136  0
C  C42  1  0.56080132  0.27903470  0.40548694  1  0  0.159699  0  3.670032  0  0  0.101774  0  3.93416  0  0  0.115269  0  3.947981  0  0  0.13833  0.093222  0  3.92417  0
C  C43  1  0.43919202  0.77903910  0.09451262  1  0  0.159544  0  3.670033  0  0  0.101645  0  3.934164  0  0  0.115137  0  3.947991  0  0  0.138294  0.093095  0  3.92417  0
C  C44  1  0.43919238  0.72096227  0.59451247  1  0  0.159474  0  3.670122  0  0  0.101572  0  3.934266  0  0  0.115065  0  3.948093  0  0  0.13824  0.09302  0  3.924277  0
C  C45  1  0.56080368  0.22096554  0.90548586  1  0  0.159612  0  3.670024  0  0  0.101721  0  3.934168  0  0  0.115214  0  3.947991  0  0  0.138299  0.093168  0  3.924177  0
C  C46  1  0.59627673  0.50983156  0.34174198  1  0  -0.040849  0  3.65604  0  0  -0.106085  0  3.906707  0  0  -0.100852  0  3.915856  0  0  -0.036947  -0.109521  0  3.900185  0
C  C47  1  0.40372776  0.00983919  0.15825798  1  0  -0.040941  0  3.656418  0  0  -0.106101  0  3.906976  0  0  -0.100811  0  3.91605  0  0  -0.036992  -0.109561  0  3.900493  0
C  C48  1  0.40373110  0.49016323  0.65825862  1  0  -0.040819  0  3.656247  0  0  -0.106106  0  3.906958  0  0  -0.10082  0  3.916032  0  0  -0.037004  -0.109565  0  3.900476  0
C  C49  1  0.59627399  0.99016655  0.84174061  1  0  -0.04081  0  3.65625  0  0  -0.106  0  3.906829  0  0  -0.100762  0  3.91597  0  0  -0.036941  -0.109442  0  3.900313  0
C  C50  1  0.03970584  0.42602710  0.09357672  1  0  0.68732  0  3.889024  0  0  0.639145  0  4.192333  0  0  0.67282  0  4.184903  0  0  0.203902  0.616194  0  4.196837  0
C  C51  1  0.96029498  0.92602483  0.40642311  1  0  0.687504  0  3.888821  0  0  0.639304  0  4.19216  0  0  0.672975  0  4.184734  0  0  0.203961  0.616365  0  4.196654  0
C  C52  1  0.96029392  0.57397645  0.90642326  1  0  0.687543  0  3.888857  0  0  0.639339  0  4.192192  0  0  0.67301  0  4.184771  0  0  0.203956  0.616399  0  4.196687  0
C  C53  1  0.03970075  0.07397543  0.59357728  1  0  0.687502  0  3.888964  0  0  0.639305  0  4.192307  0  0  0.672976  0  4.184881  0  0  0.203939  0.61637  0  4.196795  0
C  C54  1  0.90201143  0.45697611  0.15535978  1  0  -0.204872  0  3.629024  0  0  -0.272514  0  3.869782  0  0  -0.275161  0  3.875066  0  0  -0.063074  -0.270264  0  3.866038  0
C  C55  1  0.09798929  0.95697788  0.34464152  1  0  -0.204851  0  3.628995  0  0  -0.272456  0  3.869733  0  0  -0.2751  0  3.875018  0  0  -0.063042  -0.270219  0  3.865991  0
C  C56  1  0.09798835  0.54302306  0.84464164  1  0  -0.204849  0  3.629045  0  0  -0.272456  0  3.869778  0  0  -0.275081  0  3.875017  0  0  -0.063022  -0.270216  0  3.866037  0
C  C57  1  0.90200644  0.04302129  0.65535887  1  0  -0.204875  0  3.629064  0  0  -0.272452  0  3.869712  0  0  -0.275098  0  3.874999  0  0  -0.063043  -0.270214  0  3.865974  0
C  C58  1  0.39030708  0.53092110  0.28671893  1  0  0.107058  0  3.783409  0  0  0.107243  0  4.061981  0  0  0.106487  0  4.083149  0  0  0.079634  0.107808  0  4.04721  0
C  C59  1  0.60969531  0.03092986  0.21328053  1  0  0.10706  0  3.78362  0  0  0.107274  0  4.062091  0  0  0.106493  0  4.083267  0  0  0.079699  0.107841  0  4.047319  0
C  C60  1  0.60969671  0.46907150  0.71328065  1  0  0.107063  0  3.78363  0  0  0.107309  0  4.062126  0  0  0.106534  0  4.083297  0  0  0.07971  0.107876  0  4.047359  0
C  C61  1  0.39030645  0.96907478  0.78671853  1  0  0.107122  0  3.783409  0  0  0.107325  0  4.06194  0  0  0.106567  0  4.083108  0  0  0.07968  0.107891  0  4.047172  0
C  C62  1  0.26479017  0.42891281  0.24553904  1  0  -0.068036  0  3.609073  0  0  -0.138661  0  3.874184  0  0  -0.134301  0  3.886883  0  0  0.03121  -0.141331  0  3.865892  0
C  C63  1  0.73521467  0.92891769  0.25446039  1  0  -0.067993  0  3.608989  0  0  -0.138609  0  3.874048  0  0  -0.134244  0  3.886754  0  0  0.031205  -0.141285  0  3.865761  0
C  C64  1  0.73521563  0.57108307  0.75446057  1  0  -0.068055  0  3.609076  0  0  -0.138667  0  3.874149  0  0  -0.134308  0  3.886858  0  0  0.031167  -0.141342  0  3.865863  0
C  C65  1  0.26478709  0.07108476  0.74553867  1  0  -0.068055  0  3.608909  0  0  -0.138737  0  3.874055  0  0  -0.134377  0  3.886754  0  0  0.031173  -0.141412  0  3.86577  0
N  N66  1  0.49136606  0.42014719  0.39231184  1  0  -0.067346  0  3.586536  0  0  0.028405  0  3.801233  0  0  0.012736  0  3.828844  0  0  -0.242393  0.0389  0  3.782003  0
N  N67  1  0.50863074  0.92015266  0.10768745  1  0  -0.067066  0  3.586458  0  0  0.028657  0  3.801079  0  0  0.012976  0  3.828683  0  0  -0.242357  0.039156  0  3.781851  0
N  N68  1  0.50863167  0.57984869  0.60768764  1  0  -0.067113  0  3.586436  0  0  0.02866  0  3.801067  0  0  0.012977  0  3.828674  0  0  -0.242334  0.039157  0  3.781842  0
N  N69  1  0.49136698  0.07985198  0.89231154  1  0  -0.067258  0  3.586512  0  0  0.028479  0  3.801189  0  0  0.012809  0  3.8288  0  0  -0.242364  0.038975  0  3.781962  0
N  N70  1  0.41010313  0.22432404  0.44966419  1  0  -0.383697  0  3.234238  0  0  -0.307884  0  3.511277  0  0  -0.328732  0  3.528114  0  0  -0.352501  -0.293391  0  3.499354  0
N  N71  1  0.58989445  0.72433021  0.05033491  1  0  -0.383663  0  3.234191  0  0  -0.307851  0  3.511227  0  0  -0.328701  0  3.528071  0  0  -0.352482  -0.293355  0  3.499299  0
N  N72  1  0.58989257  0.77567074  0.55033429  1  0  -0.383638  0  3.234253  0  0  -0.307828  0  3.511311  0  0  -0.328676  0  3.528152  0  0  -0.352475  -0.293333  0  3.499384  0
N  N73  1  0.41010529  0.27567553  0.94966364  1  0  -0.383702  0  3.234231  0  0  -0.30789  0  3.511262  0  0  -0.328739  0  3.528101  0  0  -0.352504  -0.293395  0  3.499335  0
N  N74  1  0.08511844  0.50732167  0.20794185  1  0  0.09995  0  3.604506  0  0  0.217508  0  3.787211  0  0  0.211359  0  3.809136  0  0  -0.128687  0.221256  0  3.772523  0
N  N75  1  0.91488006  0.00732827  0.29206039  1  0  0.099879  0  3.604404  0  0  0.217401  0  3.787124  0  0  0.211249  0  3.80905  0  0  -0.128773  0.221156  0  3.77243  0
N  N76  1  0.91487935  0.49267203  0.79206049  1  0  0.099904  0  3.604468  0  0  0.217455  0  3.787153  0  0  0.211304  0  3.809087  0  0  -0.128755  0.22121  0  3.772461  0
N  N77  1  0.08512173  0.99267308  0.70794011  1  0  0.099875  0  3.604557  0  0  0.217399  0  3.787296  0  0  0.211248  0  3.809223  0  0  -0.128784  0.221154  0  3.772607  0
N  N78  1  0.28270319  0.66510961  0.27161719  1  0  -0.258931  0  3.047775  0  0  -0.234529  0  3.340391  0  0  -0.240085  0  3.354092  0  0  -0.207137  -0.230479  0  3.33146  0
N  N79  1  0.71730471  0.16511722  0.22838250  1  0  -0.258933  0  3.047988  0  0  -0.234555  0  3.340589  0  0  -0.240109  0  3.354302  0  0  -0.207132  -0.230502  0  3.331654  0
N  N80  1  0.71730865  0.33488518  0.72838204  1  0  -0.25896  0  3.048045  0  0  -0.234602  0  3.340669  0  0  -0.240159  0  3.354382  0  0  -0.207139  -0.230548  0  3.331736  0
N  N81  1  0.28269909  0.83488743  0.77161803  1  0  -0.258929  0  3.047808  0  0  -0.234544  0  3.34041  0  0  -0.240102  0  3.354115  0  0  -0.20712  -0.230492  0  3.33148  0
N  N82  1  0.09826891  0.65123422  0.22337790  1  0  -0.138468  0  2.890573  0  0  -0.149394  0  3.173356  0  0  -0.150159  0  3.185227  0  0  -0.106779  -0.149016  0  3.166133  0
N  N83  1  0.90173705  0.15123967  0.27662271  1  0  -0.138473  0  2.890511  0  0  -0.149379  0  3.173306  0  0  -0.150145  0  3.185179  0  0  -0.106786  -0.149006  0  3.166082  0
N  N84  1  0.90173691  0.34876166  0.77662267  1  0  -0.138434  0  2.890572  0  0  -0.149339  0  3.173348  0  0  -0.150106  0  3.185222  0  0  -0.106754  -0.148964  0  3.166124  0
N  N85  1  0.09826675  0.84876279  0.72337782  1  0  -0.138479  0  2.890582  0  0  -0.149382  0  3.17337  0  0  -0.150148  0  3.185245  0  0  -0.106775  -0.149008  0  3.16615  0
O  O86  1  0.88821005  0.37784098  0.04694049  1  0  -0.659242  0  2.003745  0  0  -0.602212  0  2.260283  0  0  -0.628691  0  2.2481  0  0  -0.338314  -0.583664  0  2.268717  0
O  O87  1  0.11179297  0.87783892  0.45305886  1  0  -0.65934  0  2.003745  0  0  -0.602303  0  2.260296  0  0  -0.628778  0  2.248115  0  0  -0.338334  -0.583761  0  2.268726  0
O  O88  1  0.11178970  0.62216148  0.95305949  1  0  -0.659374  0  2.003761  0  0  -0.602322  0  2.260301  0  0  -0.6288  0  2.248121  0  0  -0.338342  -0.583776  0  2.26873  0
O  O89  1  0.88820276  0.12215916  0.54694106  1  0  -0.65923  0  2.003685  0  0  -0.602247  0  2.260287  0  0  -0.628724  0  2.248108  0  0  -0.338304  -0.583706  0  2.268713  0
O  O90  1  0.29124365  0.44865724  0.09417805  1  0  -0.644755  0  2.008903  0  0  -0.581633  0  2.262628  0  0  -0.609717  0  2.252752  0  0  -0.327445  -0.561814  0  2.26854  0
O  O91  1  0.70875304  0.94864871  0.40582126  1  0  -0.644804  0  2.008806  0  0  -0.581711  0  2.262594  0  0  -0.609794  0  2.252717  0  0  -0.327463  -0.56188  0  2.268465  0
O  O92  1  0.70875408  0.55135179  0.90582142  1  0  -0.644808  0  2.008821  0  0  -0.581718  0  2.262617  0  0  -0.609805  0  2.252738  0  0  -0.327458  -0.561889  0  2.268496  0
O  O93  1  0.29124065  0.05135155  0.59417766  1  0  -0.644862  0  2.008919  0  0  -0.581758  0  2.262697  0  0  -0.609842  0  2.252818  0  0  -0.327469  -0.561923  0  2.268557  0
