# generated using pymatgen
data_HgH11C11I2N3
_symmetry_space_group_name_H-M   'P 1'
_cell_length_a   8.65837260
_cell_length_b   12.43842467
_cell_length_c   13.43230000
_cell_angle_alpha   90.00000000
_cell_angle_beta   90.00000000
_cell_angle_gamma   94.96623002
_symmetry_Int_Tables_number   1
_chemical_formula_structural   HgH11C11I2N3
_chemical_formula_sum   'Hg4 H44 C44 I8 N12'
_cell_volume   1441.18116975
_cell_formula_units_Z   4
loop_
 _symmetry_equiv_pos_site_id
 _symmetry_equiv_pos_as_xyz
  1  'x, y, z'
loop_
 _atom_site_type_symbol
 _atom_site_label
 _atom_site_symmetry_multiplicity
 _atom_site_fract_x
 _atom_site_fract_y
 _atom_site_fract_z
 _atom_site_occupancy
 _atom_site_hle17_bader_spin_density
 _atom_site_hle17_ddec_charge
 _atom_site_hle17_ddec_spin_density
 _atom_site_hle17_ddec_sum_bond_order
 _atom_site_hle17_magmom
 _atom_site_hse06_10hf_bader_spin_density
 _atom_site_hse06_10hf_ddec_charge
 _atom_site_hse06_10hf_ddec_spin_density
 _atom_site_hse06_10hf_ddec_sum_bond_order
 _atom_site_hse06_10hf_magmom
 _atom_site_hse06_bader_spin_density
 _atom_site_hse06_ddec_charge
 _atom_site_hse06_ddec_spin_density
 _atom_site_hse06_ddec_sum_bond_order
 _atom_site_hse06_magmom
 _atom_site_pbe_bader_charge
 _atom_site_pbe_bader_spin_density
 _atom_site_pbe_cm5_charge
 _atom_site_pbe_ddec_charge
 _atom_site_pbe_ddec_spin_density
 _atom_site_pbe_ddec_sum_bond_order
 _atom_site_pbe_magmom
Hg  Hg0  1  0.76760936  0.21538156  0.35229633  1  0  0.561653  0  2.160003  0  0  0.423977  0  2.647615  0  0  0.469587  0  2.621524  0  0.553759  0  0.412743  0.393645  0  2.664491  0
Hg  Hg1  1  0.73239158  0.28461725  0.85229707  1  0  0.56159  0  2.160052  0  0  0.423901  0  2.647677  0  0  0.469511  0  2.621585  0  0.553873  0  0.41271  0.393569  0  2.664552  0
Hg  Hg2  1  0.23239197  0.78461606  0.64770367  1  0  0.56161  0  2.159992  0  0  0.42392  0  2.647613  0  0  0.469533  0  2.621517  0  0.553815  0  0.412716  0.393589  0  2.664489  0
Hg  Hg3  1  0.26760302  0.71538198  0.14770293  1  0  0.561623  0  2.159972  0  0  0.423923  0  2.647611  0  0  0.469532  0  2.621521  0  0.553823  0  0.412731  0.393595  0  2.66448  0
H  H4  1  0.78340574  0.45285043  0.24419347  1  0  0.259793  0  0.929554  0  0  0.248471  0  0.992533  0  0  0.254176  0  0.988772  0  0.440616  0  0.28643  0.244369  0  0.995326  0
H  H5  1  0.71659395  0.04714758  0.74419198  1  0  0.259742  0  0.929561  0  0  0.248433  0  0.992506  0  0  0.254136  0  0.988746  0  0.440619  0  0.286418  0.244331  0  0.995298  0
H  H6  1  0.21659434  0.54714638  0.75580578  1  0  0.259755  0  0.929563  0  0  0.24844  0  0.992509  0  0  0.254147  0  0.988748  0  0.44061  0  0.286415  0.244338  0  0.9953  0
H  H7  1  0.28340633  0.95285085  0.25580504  1  0  0.259772  0  0.929526  0  0  0.248442  0  0.992502  0  0  0.254149  0  0.988741  0  0.440614  0  0.2864  0.244341  0  0.995294  0
H  H8  1  0.64380919  0.63441185  0.45559361  1  0  0.106609  0  0.967727  0  0  0.115215  0  1.032635  0  0  0.118646  0  1.03155  0  0.062014  0  0.094945  0.112701  0  1.033639  0
H  H9  1  0.85619031  0.86558781  0.95559286  1  0  0.106611  0  0.967764  0  0  0.115215  0  1.032674  0  0  0.118647  0  1.031591  0  0.062015  0  0.094946  0.112699  0  1.033679  0
H  H10  1  0.35618857  0.36558497  0.54441086  1  0  0.106547  0  0.967742  0  0  0.115178  0  1.032633  0  0  0.118617  0  1.031534  0  0.061961  0  0.094936  0.112665  0  1.033637  0
H  H11  1  0.14380208  0.13441223  0.04440490  1  0  0.106634  0  0.967642  0  0  0.115203  0  1.032589  0  0  0.118631  0  1.031517  0  0.061915  0  0.094923  0.112689  0  1.033595  0
H  H12  1  0.79847988  0.64983423  0.61449938  1  0  0.078738  0  0.986993  0  0  0.084971  0  1.060388  0  0  0.08797  0  1.057556  0  0.082452  0  0.088657  0.082746  0  1.062466  0
H  H13  1  0.70151857  0.85016623  0.11450012  1  0  0.078737  0  0.986949  0  0  0.08496  0  1.060363  0  0  0.087959  0  1.057533  0  0.082463  0  0.088663  0.082737  0  1.06244  0
H  H14  1  0.20151808  0.35016420  0.38550211  1  0  0.078726  0  0.987004  0  0  0.084955  0  1.060405  0  0  0.087954  0  1.057576  0  0.082459  0  0.088663  0.082731  0  1.062483  0
H  H15  1  0.29848075  0.14983381  0.88550062  1  0  0.078724  0  0.986997  0  0  0.08495  0  1.060409  0  0  0.08795  0  1.057577  0  0.082461  0  0.088665  0.082725  0  1.062488  0
H  H16  1  0.92976185  0.48851776  0.67264430  1  0  0.088025  0  0.99336  0  0  0.091163  0  1.069032  0  0  0.094759  0  1.067533  0  0.128872  0  0.085589  0.088582  0  1.070264  0
H  H17  1  0.57024075  0.01148508  0.17264355  1  0  0.088047  0  0.99332  0  0  0.091224  0  1.068942  0  0  0.094821  0  1.067441  0  0.128912  0  0.085581  0.088638  0  1.07018  0
H  H18  1  0.07024586  0.51148470  0.32735645  1  0  0.088033  0  0.99332  0  0  0.091204  0  1.068952  0  0  0.094802  0  1.067449  0  0.128984  0  0.085579  0.088618  0  1.070191  0
H  H19  1  0.42976339  0.98851657  0.82735794  1  0  0.088049  0  0.993339  0  0  0.091198  0  1.068978  0  0  0.094795  0  1.067477  0  0.128894  0  0.0856  0.088614  0  1.070213  0
H  H20  1  0.91073359  0.32356823  0.56684187  1  0  0.070314  0  0.966672  0  0  0.078862  0  1.031446  0  0  0.07986  0  1.031992  0  0.065554  0  0.107281  0.078099  0  1.031108  0
H  H21  1  0.58926630  0.17643139  0.06683889  1  0  0.070331  0  0.966651  0  0  0.07887  0  1.03145  0  0  0.079867  0  1.031999  0  0.065568  0  0.107282  0.078107  0  1.031112  0
H  H22  1  0.08927015  0.67643019  0.43316037  1  0  0.070259  0  0.966762  0  0  0.078829  0  1.031523  0  0  0.079806  0  1.032117  0  0.065606  0  0.107288  0.078066  0  1.031184  0
H  H23  1  0.41073322  0.82357027  0.93316111  1  0  0.070266  0  0.966692  0  0  0.078823  0  1.031466  0  0  0.079811  0  1.032037  0  0.065597  0  0.107282  0.078062  0  1.031127  0
H  H24  1  0.49876888  0.39117381  0.35788212  1  0  0.066875  0  0.958678  0  0  0.080928  0  1.030119  0  0  0.080738  0  1.030711  0  0.069278  0  0.096669  0.081028  0  1.029745  0
H  H25  1  0.00123130  0.10882581  0.85788212  1  0  0.066893  0  0.958626  0  0  0.080936  0  1.030062  0  0  0.080746  0  1.030652  0  0.069263  0  0.096666  0.081036  0  1.029688  0
H  H26  1  0.50123370  0.60882462  0.64211937  1  0  0.066855  0  0.9587  0  0  0.080928  0  1.030165  0  0  0.080737  0  1.030758  0  0.069275  0  0.096671  0.081029  0  1.029789  0
H  H27  1  0.99876656  0.89117181  0.14212011  1  0  0.066817  0  0.958697  0  0  0.080899  0  1.030173  0  0  0.080708  0  1.030763  0  0.069249  0  0.096644  0.080999  0  1.029797  0
H  H28  1  0.53354776  0.53073705  0.32850591  1  0  0.058694  0  0.978015  0  0  0.072028  0  1.048973  0  0  0.072749  0  1.048503  0  0.094174  0  0.084511  0.071471  0  1.049382  0
H  H29  1  0.96644829  0.96926260  0.82850666  1  0  0.058677  0  0.978025  0  0  0.072003  0  1.048966  0  0  0.072722  0  1.048498  0  0.094191  0  0.084508  0.071446  0  1.049375  0
H  H30  1  0.46645136  0.46926137  0.67149334  1  0  0.058652  0  0.978055  0  0  0.072018  0  1.049003  0  0  0.072737  0  1.048535  0  0.094148  0  0.084501  0.07146  0  1.049411  0
H  H31  1  0.03354516  0.03073663  0.17149334  1  0  0.058649  0  0.97804  0  0  0.072021  0  1.049011  0  0  0.072741  0  1.048543  0  0.09415  0  0.084514  0.071464  0  1.049419  0
H  H32  1  0.79595992  0.38282550  0.07581948  1  0  0.077445  0  0.978215  0  0  0.079768  0  1.057195  0  0  0.083326  0  1.053994  0  0.098581  0  0.093806  0.077238  0  1.059534  0
H  H33  1  0.70404343  0.11717412  0.57581725  1  0  0.07754  0  0.978192  0  0  0.079812  0  1.057211  0  0  0.083363  0  1.054015  0  0.098612  0  0.093821  0.077279  0  1.059552  0
H  H34  1  0.20404151  0.61717293  0.92417978  1  0  0.077435  0  0.978205  0  0  0.079771  0  1.057185  0  0  0.083321  0  1.053988  0  0.098591  0  0.093794  0.077237  0  1.059528  0
H  H35  1  0.29596146  0.88282431  0.42418201  1  0  0.077441  0  0.978198  0  0  0.079753  0  1.057186  0  0  0.083311  0  1.053983  0  0.098558  0  0.093799  0.077223  0  1.059523  0
H  H36  1  0.35836649  0.41809095  0.22455797  1  0  0.10155  0  0.963276  0  0  0.112648  0  1.026843  0  0  0.115503  0  1.025392  0  0.087276  0  0.100322  0.110636  0  1.027856  0
H  H37  1  0.14163380  0.08190947  0.72455871  1  0  0.10155  0  0.963258  0  0  0.112649  0  1.026816  0  0  0.115503  0  1.025366  0  0.08726  0  0.100327  0.110636  0  1.027828  0
H  H38  1  0.64163273  0.58190828  0.77544129  1  0  0.101518  0  0.963265  0  0  0.112623  0  1.026825  0  0  0.115478  0  1.025374  0  0.087259  0  0.100304  0.11061  0  1.027838  0
H  H39  1  0.85836989  0.91809783  0.27544426  1  0  0.101555  0  0.963231  0  0  0.112657  0  1.026795  0  0  0.115511  0  1.025344  0  0.087377  0  0.10032  0.110643  0  1.027808  0
H  H40  1  0.22749155  0.37721530  0.06243458  1  0  0.095452  0  0.975248  0  0  0.104185  0  1.040044  0  0  0.107418  0  1.038293  0  0.09596  0  0.087876  0.101871  0  1.041421  0
H  H41  1  0.27250652  0.12278593  0.56243830  1  0  0.095478  0  0.975265  0  0  0.104195  0  1.040067  0  0  0.107428  0  1.038318  0  0.096003  0  0.087886  0.101882  0  1.041445  0
H  H42  1  0.77251048  0.62278796  0.93756244  1  0  0.095511  0  0.975211  0  0  0.104246  0  1.039994  0  0  0.107481  0  1.038243  0  0.095955  0  0.087903  0.101932  0  1.041371  0
H  H43  1  0.72749099  0.87721815  0.43756542  1  0  0.095444  0  0.975239  0  0  0.104162  0  1.040049  0  0  0.107395  0  1.038301  0  0.095982  0  0.087881  0.101851  0  1.041427  0
H  H44  1  0.38766234  0.33733548  0.91314592  1  0  0.061941  0  0.9958  0  0  0.066649  0  1.074431  0  0  0.069553  0  1.071901  0  0.096715  0  0.085846  0.064533  0  1.076344  0
H  H45  1  0.11234428  0.16266010  0.41314518  1  0  0.061978  0  0.995702  0  0  0.066644  0  1.074374  0  0  0.06957  0  1.071829  0  0.09667  0  0.085838  0.064526  0  1.076287  0
H  H46  1  0.61233979  0.66266860  0.08685259  1  0  0.061988  0  0.995785  0  0  0.066698  0  1.074411  0  0  0.069599  0  1.071883  0  0.096728  0  0.085864  0.064581  0  1.076322  0
H  H47  1  0.88765896  0.83733429  0.58685408  1  0  0.061952  0  0.995814  0  0  0.066665  0  1.074439  0  0  0.069569  0  1.071911  0  0.096689  0  0.085861  0.064549  0  1.076351  0
C  C48  1  0.69412787  0.47012324  0.43011770  1  0  0.230518  0  3.712122  0  0  0.239533  0  3.946585  0  0  0.247453  0  3.967139  0  0.497593  0  0.117446  0.234303  0  3.932567  0
C  C49  1  0.80587202  0.02987638  0.93011621  1  0  0.23047  0  3.712184  0  0  0.239549  0  3.946539  0  0  0.247471  0  3.96709  0  0.497921  0  0.117445  0.234318  0  3.93252  0
C  C50  1  0.30587597  0.52987599  0.56988304  1  0  0.230475  0  3.712203  0  0  0.23964  0  3.946524  0  0  0.24756  0  3.967078  0  0.497558  0  0.117516  0.234407  0  3.932505  0
C  C51  1  0.19412394  0.97012447  0.06988304  1  0  0.23046  0  3.712213  0  0  0.23964  0  3.946528  0  0  0.247561  0  3.96708  0  0.497407  0  0.117521  0.234409  0  3.932508  0
C  C52  1  0.70403075  0.56699834  0.48328730  1  0  -0.156347  0  3.698651  0  0  -0.171374  0  3.933674  0  0  -0.179621  0  3.955873  0  0.002596  0  -0.086232  -0.165988  0  3.918759  0
C  C53  1  0.79596760  0.93300132  0.98328804  1  0  -0.156296  0  3.698714  0  0  -0.171351  0  3.93371  0  0  -0.179601  0  3.955909  0  0.002269  0  -0.086196  -0.16597  0  3.918808  0
C  C54  1  0.29597068  0.43300009  0.51671196  1  0  -0.156253  0  3.69862  0  0  -0.171346  0  3.933611  0  0  -0.179595  0  3.955812  0  0.002567  0  -0.086224  -0.165963  0  3.918695  0
C  C55  1  0.20402951  0.06699953  0.01671344  1  0  -0.156354  0  3.698609  0  0  -0.17138  0  3.933587  0  0  -0.179635  0  3.955788  0  0.002682  0  -0.086217  -0.165993  0  3.918666  0
C  C56  1  0.78940654  0.57525949  0.57134221  1  0  -0.002909  0  3.746964  0  0  -0.017252  0  3.988539  0  0  -0.014351  0  4.008648  0  -0.025249  0  -0.073035  -0.018777  0  3.974715  0
C  C57  1  0.71059422  0.92474097  0.07134147  1  0  -0.002919  0  3.746906  0  0  -0.017257  0  3.98848  0  0  -0.014356  0  4.008591  0  -0.025238  0  -0.073061  -0.018782  0  3.974654  0
C  C58  1  0.21059498  0.42473974  0.42865928  1  0  -0.002921  0  3.74705  0  0  -0.017267  0  3.988631  0  0  -0.014368  0  4.008744  0  -0.025262  0  -0.073055  -0.018791  0  3.974806  0
C  C59  1  0.28940520  0.07525987  0.92865928  1  0  -0.002865  0  3.747013  0  0  -0.017207  0  3.988575  0  0  -0.014305  0  4.008685  0  -0.025228  0  -0.073022  -0.018731  0  3.974751  0
C  C60  1  0.86341413  0.48661085  0.60358464  1  0  -0.128143  0  3.754266  0  0  -0.138519  0  4.00108  0  0  -0.146894  0  4.024365  0  -0.116602  0  -0.094152  -0.133142  0  3.985453  0
C  C61  1  0.63658837  0.01339119  0.10358688  1  0  -0.128251  0  3.754131  0  0  -0.138649  0  4.000914  0  0  -0.147026  0  4.024199  0  -0.116146  0  -0.094169  -0.133269  0  3.985288  0
C  C62  1  0.13658971  0.51338838  0.39641461  1  0  -0.128193  0  3.754234  0  0  -0.138582  0  4.001014  0  0  -0.146956  0  4.024295  0  -0.116542  0  -0.094127  -0.133201  0  3.985385  0
C  C63  1  0.36341115  0.98661046  0.89641536  1  0  -0.128253  0  3.754262  0  0  -0.138628  0  4.001087  0  0  -0.147003  0  4.02437  0  -0.116581  0  -0.094182  -0.133248  0  3.985459  0
C  C64  1  0.85202612  0.39384171  0.54496103  1  0  0.128936  0  3.726643  0  0  0.099444  0  3.981118  0  0  0.106759  0  4.000801  0  0.54128  0  0.040266  0.094742  0  3.967713  0
C  C65  1  0.64797387  0.10615871  0.04495954  1  0  0.12907  0  3.726502  0  0  0.099578  0  3.980972  0  0  0.106891  0  4.000653  0  0.540793  0  0.040323  0.094877  0  3.967564  0
C  C66  1  0.14797772  0.60615752  0.45503897  1  0  0.129074  0  3.726594  0  0  0.099547  0  3.981107  0  0  0.106858  0  4.000779  0  0.541162  0  0.040228  0.094844  0  3.967698  0
C  C67  1  0.35202439  0.89384214  0.95504046  1  0  0.129111  0  3.726477  0  0  0.099608  0  3.980959  0  0  0.106923  0  4.000635  0  0.541285  0  0.040296  0.094906  0  3.967551  0
C  C68  1  0.59025270  0.45577496  0.34060585  1  0  -0.034439  0  3.731632  0  0  -0.095138  0  3.975596  0  0  -0.091566  0  3.987405  0  0.276078  0  -0.069554  -0.097448  0  3.967228  0
C  C69  1  0.90974487  0.04422466  0.84060511  1  0  -0.034368  0  3.731586  0  0  -0.095048  0  3.975504  0  0  -0.091475  0  3.98731  0  0.276104  0  -0.069493  -0.097359  0  3.967138  0
C  C70  1  0.40974873  0.54422347  0.65939340  1  0  -0.034301  0  3.731522  0  0  -0.095158  0  3.975588  0  0  -0.091581  0  3.987399  0  0.276046  0  -0.069545  -0.097467  0  3.96722  0
C  C71  1  0.09024973  0.95577457  0.15939489  1  0  -0.034263  0  3.731604  0  0  -0.095183  0  3.97575  0  0  -0.091607  0  3.987558  0  0.276152  0  -0.069566  -0.097493  0  3.967381  0
C  C72  1  0.66971627  0.38196686  0.07635476  1  0  0.001814  0  3.685115  0  0  -0.03203  0  3.940754  0  0  -0.028922  0  3.957837  0  0.48161  0  0.025255  -0.034016  0  3.929198  0
C  C73  1  0.83028613  0.11803437  0.57635178  1  0  0.001664  0  3.685187  0  0  -0.03211  0  3.940807  0  0  -0.028995  0  3.95789  0  0.481581  0  0.025247  -0.034098  0  3.929262  0
C  C74  1  0.33028421  0.61803318  0.92364673  1  0  0.001821  0  3.685191  0  0  -0.032016  0  3.94079  0  0  -0.028898  0  3.957874  0  0.4816  0  0.025259  -0.034003  0  3.929239  0
C  C75  1  0.16971560  0.88196648  0.42364748  1  0  0.001796  0  3.685225  0  0  -0.031974  0  3.940873  0  0  -0.028862  0  3.95795  0  0.481645  0  0.025273  -0.033962  0  3.92932  0
C  C76  1  0.58963113  0.40354335  0.16484444  1  0  0.207754  0  3.83223  0  0  0.20519  0  4.077481  0  0  0.211818  0  4.099189  0  0.43651  0  0.097502  0.200359  0  4.062876  0
C  C77  1  0.91036875  0.09645627  0.66484370  1  0  0.207815  0  3.832458  0  0  0.20522  0  4.077724  0  0  0.211847  0  4.099429  0  0.43662  0  0.097532  0.200388  0  4.063115  0
C  C78  1  0.41036798  0.59645508  0.83515630  1  0  0.207772  0  3.832298  0  0  0.205165  0  4.077569  0  0  0.211797  0  4.099274  0  0.436593  0  0.097496  0.200333  0  4.062961  0
C  C79  1  0.08963308  0.90354538  0.33515630  1  0  0.207811  0  3.832284  0  0  0.205071  0  4.077726  0  0  0.211701  0  4.099433  0  0.436681  0  0.097448  0.200239  0  4.063118  0
C  C80  1  0.42673528  0.40068015  0.15942839  1  0  -0.130416  0  3.696268  0  0  -0.152637  0  3.944678  0  0  -0.154341  0  3.963015  0  -0.070019  0  -0.090507  -0.151277  0  3.932291  0
C  C81  1  0.07326481  0.09931866  0.65942914  1  0  -0.130373  0  3.696322  0  0  -0.152599  0  3.94476  0  0  -0.154304  0  3.963097  0  -0.070061  0  -0.090474  -0.151238  0  3.932371  0
C  C82  1  0.57326520  0.59931989  0.84057086  1  0  -0.130339  0  3.696244  0  0  -0.152561  0  3.944665  0  0  -0.154264  0  3.963001  0  -0.070025  0  -0.090484  -0.151201  0  3.932278  0
C  C83  1  0.92673501  0.90068541  0.34057235  1  0  -0.130398  0  3.696156  0  0  -0.15258  0  3.944611  0  0  -0.154284  0  3.962947  0  -0.070198  0  -0.090444  -0.151219  0  3.932224  0
C  C84  1  0.35299454  0.37742109  0.06905668  1  0  -0.088519  0  3.780916  0  0  -0.098003  0  4.027271  0  0  -0.101108  0  4.047637  0  -0.011382  0  -0.093501  -0.095971  0  4.013406  0
C  C85  1  0.14700535  0.12257611  0.56905668  1  0  -0.088605  0  3.780985  0  0  -0.098084  0  4.027317  0  0  -0.101192  0  4.047696  0  -0.011128  0  -0.09354  -0.096053  0  4.013454  0
C  C86  1  0.64700709  0.62257895  0.93094183  1  0  -0.088628  0  3.780971  0  0  -0.09812  0  4.027315  0  0  -0.101228  0  4.047683  0  -0.011383  0  -0.093525  -0.096086  0  4.013444  0
C  C87  1  0.85299638  0.87742474  0.43094481  1  0  -0.088523  0  3.781007  0  0  -0.097998  0  4.027364  0  0  -0.101103  0  4.04773  0  -0.011338  0  -0.09353  -0.095969  0  4.013495  0
C  C88  1  0.44037573  0.35606006  0.98560410  1  0  0.06659  0  3.744793  0  0  0.030064  0  4.004586  0  0  0.034496  0  4.024615  0  0.43647  0  0.009227  0.027224  0  3.990899  0
C  C89  1  0.05962415  0.14393713  0.48560113  1  0  0.066575  0  3.744722  0  0  0.030104  0  4.004507  0  0  0.034511  0  4.024529  0  0.436257  0  0.009214  0.027266  0  3.99082  0
C  C90  1  0.55962399  0.64394320  0.01439366  1  0  0.066545  0  3.744757  0  0  0.030012  0  4.004542  0  0  0.03445  0  4.024571  0  0.436518  0  0.009203  0.027173  0  3.990857  0
C  C91  1  0.94037727  0.85606129  0.51439590  1  0  0.066566  0  3.744963  0  0  0.030025  0  4.004764  0  0  0.034457  0  4.024792  0  0.436479  0  0.00919  0.027187  0  3.991078  0
I  I92  1  0.00303166  0.25387739  0.21852549  1  0  -0.357396  0  1.155777  0  0  -0.316621  0  1.500909  0  0  -0.332663  0  1.481031  0  -0.354662  0  -0.15542  -0.305894  0  1.514503  0
I  I93  1  0.49696958  0.24612141  0.71852698  1  0  -0.357369  0  1.155804  0  0  -0.316596  0  1.500927  0  0  -0.332639  0  1.481041  0  -0.354766  0  -0.155416  -0.305867  0  1.514521  0
I  I94  1  0.99696736  0.74612022  0.78147376  1  0  -0.357386  0  1.155768  0  0  -0.316619  0  1.500916  0  0  -0.332661  0  1.481029  0  -0.35469  0  -0.155426  -0.305891  0  1.514509  0
I  I95  1  0.50302397  0.75387862  0.28147302  1  0  -0.357388  0  1.155764  0  0  -0.31659  0  1.50086  0  0  -0.332631  0  1.480972  0  -0.354727  0  -0.155425  -0.305864  0  1.514452  0
I  I96  1  0.46603865  0.13562352  0.36043492  1  0  -0.362911  0  1.087372  0  0  -0.321505  0  1.417597  0  0  -0.33682  0  1.397824  0  -0.357888  0  -0.179079  -0.31135  0  1.431106  0
I  I97  1  0.03396260  0.36437529  0.86043567  1  0  -0.362893  0  1.08738  0  0  -0.321486  0  1.417611  0  0  -0.336802  0  1.397838  0  -0.357903  0  -0.17907  -0.311331  0  1.43112  0
I  I98  1  0.53396394  0.86437490  0.63956582  1  0  -0.362892  0  1.087369  0  0  -0.321485  0  1.417583  0  0  -0.336802  0  1.397809  0  -0.357879  0  -0.179072  -0.311331  0  1.431091  0
I  I99  1  0.96603326  0.63562475  0.13956582  1  0  -0.362921  0  1.087398  0  0  -0.321499  0  1.417625  0  0  -0.336814  0  1.397848  0  -0.357918  0  -0.179082  -0.311346  0  1.431132  0
N  N100  1  0.76953059  0.38535622  0.46028230  1  0  -0.328447  0  3.175469  0  0  -0.264403  0  3.434379  0  0  -0.283778  0  3.45422  0  -1.212263  0  -0.3095  -0.251278  0  3.420581  0
N  N101  1  0.73046930  0.11464340  0.96028156  1  0  -0.32853  0  3.175434  0  0  -0.264512  0  3.434312  0  0  -0.283885  0  3.454152  0  -1.212287  0  -0.309558  -0.251386  0  3.420518  0
N  N102  1  0.23047315  0.61464221  0.53971770  1  0  -0.328485  0  3.175484  0  0  -0.264485  0  3.434359  0  0  -0.283856  0  3.454196  0  -1.21224  0  -0.30952  -0.251367  0  3.420583  0
N  N103  1  0.26952656  0.88535664  0.03971770  1  0  -0.328523  0  3.175446  0  0  -0.264516  0  3.43431  0  0  -0.283889  0  3.454148  0  -1.21226  0  -0.309564  -0.251397  0  3.420532  0
N  N104  1  0.67051453  0.42356477  0.25203651  1  0  -0.405602  0  3.38396  0  0  -0.343043  0  3.619061  0  0  -0.363606  0  3.633689  0  -1.188472  0  -0.444932  -0.328546  0  3.608527  0
N  N105  1  0.82948786  0.07643647  0.75203353  1  0  -0.405585  0  3.384045  0  0  -0.343022  0  3.619142  0  0  -0.363578  0  3.633769  0  -1.188565  0  -0.444967  -0.328524  0  3.608605  0
N  N106  1  0.32948680  0.57643285  0.74796498  1  0  -0.405662  0  3.383869  0  0  -0.343035  0  3.618987  0  0  -0.363609  0  3.633626  0  -1.188502  0  -0.444943  -0.328536  0  3.608451  0
N  N107  1  0.17051311  0.92356761  0.24796424  1  0  -0.405664  0  3.38394  0  0  -0.342968  0  3.619089  0  0  -0.363535  0  3.633722  0  -1.188528  0  -0.444889  -0.328472  0  3.608553  0
N  N108  1  0.59578046  0.35848588  0.99078341  1  0  -0.267538  0  3.348468  0  0  -0.182524  0  3.602267  0  0  -0.201089  0  3.62672  0  -1.210846  0  -0.318437  -0.169805  0  3.585271  0
N  N109  1  0.90422259  0.14151132  0.49078043  1  0  -0.267553  0  3.348607  0  0  -0.182552  0  3.602359  0  0  -0.201117  0  3.626818  0  -1.210896  0  -0.318458  -0.169834  0  3.585361  0
N  N110  1  0.40421896  0.64151497  0.00921585  1  0  -0.267542  0  3.34851  0  0  -0.182544  0  3.602337  0  0  -0.201106  0  3.626783  0  -1.210854  0  -0.318436  -0.169826  0  3.585338  0
N  N111  1  0.09578115  0.85848711  0.50921733  1  0  -0.267555  0  3.348667  0  0  -0.182545  0  3.602448  0  0  -0.201105  0  3.626892  0  -1.210931  0  -0.318433  -0.169826  0  3.585449  0
