# generated using pymatgen
data_NaH11C6(NO3)2
_symmetry_space_group_name_H-M   'P 1'
_cell_length_a   6.18160803
_cell_length_b   10.68492220
_cell_length_c   13.97852342
_cell_angle_alpha   89.99939768
_cell_angle_beta   94.66088061
_cell_angle_gamma   89.99970815
_symmetry_Int_Tables_number   1
_chemical_formula_structural   NaH11C6(NO3)2
_chemical_formula_sum   'Na4 H44 C24 N8 O24'
_cell_volume   920.22828270
_cell_formula_units_Z   4
loop_
 _symmetry_equiv_pos_site_id
 _symmetry_equiv_pos_as_xyz
  1  'x, y, z'
loop_
 _atom_site_type_symbol
 _atom_site_label
 _atom_site_symmetry_multiplicity
 _atom_site_fract_x
 _atom_site_fract_y
 _atom_site_fract_z
 _atom_site_occupancy
 _atom_site_hle17_bader_spin_density
 _atom_site_hle17_ddec_charge
 _atom_site_hle17_ddec_spin_density
 _atom_site_hle17_ddec_sum_bond_order
 _atom_site_hle17_magmom
 _atom_site_hse06_10hf_bader_spin_density
 _atom_site_hse06_10hf_ddec_charge
 _atom_site_hse06_10hf_ddec_spin_density
 _atom_site_hse06_10hf_ddec_sum_bond_order
 _atom_site_hse06_10hf_magmom
 _atom_site_hse06_bader_spin_density
 _atom_site_hse06_ddec_charge
 _atom_site_hse06_ddec_spin_density
 _atom_site_hse06_ddec_sum_bond_order
 _atom_site_hse06_magmom
 _atom_site_pbe_bader_spin_density
 _atom_site_pbe_cm5_charge
 _atom_site_pbe_ddec_charge
 _atom_site_pbe_ddec_spin_density
 _atom_site_pbe_ddec_sum_bond_order
 _atom_site_pbe_magmom
Na  Na0  1  0.95928703  0.73189880  0.01551349  1  0  0.90009  0  0.396376  0  0  0.861417  0  0.546399  0  0  0.870529  0  0.524679  0  0  0.676945  0.854592  0  0.562084  0
Na  Na1  1  0.54071563  0.23190326  0.98448556  1  0  0.900084  0  0.396404  0  0  0.86143  0  0.546394  0  0  0.870537  0  0.524672  0  0  0.676946  0.854571  0  0.56212  0
Na  Na2  1  0.04071912  0.26810277  0.98448760  1  0  0.900099  0  0.396363  0  0  0.861427  0  0.546394  0  0  0.870542  0  0.524674  0  0  0.676934  0.854579  0  0.562096  0
Na  Na3  1  0.45928401  0.76810111  0.01551387  1  0  0.90008  0  0.396388  0  0  0.861418  0  0.546398  0  0  0.870534  0  0.524677  0  0  0.676939  0.854582  0  0.562088  0
H  H4  1  0.22823467  0.75853447  0.19320395  1  0  0.421684  0  0.879505  0  0  0.392423  0  0.941045  0  0  0.40233  0  0.926354  0  0  0.293514  0.385452  0  0.951395  0
H  H5  1  0.27176685  0.25853872  0.80679182  1  0  0.421655  0  0.879539  0  0  0.392455  0  0.940972  0  0  0.402366  0  0.926272  0  0  0.293526  0.385491  0  0.951306  0
H  H6  1  0.77177634  0.24146897  0.80679659  1  0  0.421709  0  0.879484  0  0  0.392493  0  0.940937  0  0  0.402398  0  0.92625  0  0  0.293555  0.385523  0  0.951282  0
H  H7  1  0.72823599  0.74145910  0.19320414  1  0  0.421712  0  0.879459  0  0  0.392451  0  0.941  0  0  0.40236  0  0.926305  0  0  0.293515  0.38548  0  0.951347  0
H  H8  1  0.17173624  0.89706178  0.15924459  1  0  0.425528  0  0.875104  0  0  0.395825  0  0.937344  0  0  0.405236  0  0.923435  0  0  0.295215  0.389212  0  0.947124  0
H  H9  1  0.32825915  0.39707006  0.84075057  1  0  0.425513  0  0.875142  0  0  0.395798  0  0.937404  0  0  0.405211  0  0.92349  0  0  0.295163  0.389181  0  0.947189  0
H  H10  1  0.82826502  0.10293980  0.84075490  1  0  0.425552  0  0.875081  0  0  0.395846  0  0.937321  0  0  0.405257  0  0.923412  0  0  0.295209  0.389226  0  0.947112  0
H  H11  1  0.67174529  0.60292964  0.15924402  1  0  0.425605  0  0.875  0  0  0.395849  0  0.937339  0  0  0.405266  0  0.923424  0  0  0.295211  0.389229  0  0.947125  0
H  H12  1  0.28601806  0.57249247  0.92180854  1  0  0.409434  0  0.901953  0  0  0.377734  0  0.968333  0  0  0.38904  0  0.951531  0  0  0.287205  0.369721  0  0.980233  0
H  H13  1  0.21398682  0.07248911  0.07819171  1  0  0.409441  0  0.901937  0  0  0.377747  0  0.968304  0  0  0.389054  0  0.951502  0  0  0.287214  0.369731  0  0.980208  0
H  H14  1  0.71399293  0.42750630  0.07819056  1  0  0.409417  0  0.901974  0  0  0.377715  0  0.968368  0  0  0.389023  0  0.951564  0  0  0.287186  0.369692  0  0.980285  0
H  H15  1  0.78601444  0.92751247  0.92180778  1  0  0.409419  0  0.901965  0  0  0.37772  0  0.968338  0  0  0.389027  0  0.951537  0  0  0.287214  0.3697  0  0.980251  0
H  H16  1  0.25683763  0.50588052  0.01993845  1  0  0.420355  0  0.881229  0  0  0.39602  0  0.934972  0  0  0.405112  0  0.92151  0  0  0.297981  0.389589  0  0.944516  0
H  H17  1  0.24316948  0.00588156  0.98006170  1  0  0.420363  0  0.881231  0  0  0.396036  0  0.93496  0  0  0.405128  0  0.921498  0  0  0.297985  0.389606  0  0.944501  0
H  H18  1  0.74317014  0.49412199  0.98006269  1  0  0.420372  0  0.8812  0  0  0.396045  0  0.93493  0  0  0.405137  0  0.921468  0  0  0.298009  0.389614  0  0.944473  0
H  H19  1  0.75683018  0.99411908  0.01993917  1  0  0.420347  0  0.88123  0  0  0.396011  0  0.934977  0  0  0.405103  0  0.921516  0  0  0.297987  0.389583  0  0.944516  0
H  H20  1  0.02336247  0.78904432  0.58074778  1  0  0.311722  0  0.929127  0  0  0.291539  0  0.995285  0  0  0.300462  0  0.987942  0  0  0.305269  0.285251  0  1.000538  0
H  H21  1  0.47663237  0.28903353  0.41925467  1  0  0.311695  0  0.929186  0  0  0.291531  0  0.995307  0  0  0.300461  0  0.987961  0  0  0.305283  0.285239  0  1.00056  0
H  H22  1  0.97661124  0.21095351  0.41925436  1  0  0.311692  0  0.929224  0  0  0.291509  0  0.995365  0  0  0.300432  0  0.988026  0  0  0.305253  0.28522  0  1.000611  0
H  H23  1  0.52338189  0.71096897  0.58074669  1  0  0.311634  0  0.929208  0  0  0.291504  0  0.99531  0  0  0.300432  0  0.987956  0  0  0.305262  0.285215  0  1.000567  0
H  H24  1  0.90627718  0.22099419  0.65755251  1  0  0.304381  0  0.922808  0  0  0.287302  0  0.982764  0  0  0.295626  0  0.976507  0  0  0.311429  0.281478  0  0.987178  0
H  H25  1  0.59372230  0.72098366  0.34244366  1  0  0.304596  0  0.922777  0  0  0.287441  0  0.982739  0  0  0.295773  0  0.97648  0  0  0.311478  0.281614  0  0.987164  0
H  H26  1  0.09371597  0.77900645  0.34244742  1  0  0.304451  0  0.922785  0  0  0.287323  0  0.982721  0  0  0.295648  0  0.976471  0  0  0.311415  0.281497  0  0.987141  0
H  H27  1  0.40628540  0.27901697  0.65755176  1  0  0.304579  0  0.922805  0  0  0.287428  0  0.982761  0  0  0.295761  0  0.976503  0  0  0.311483  0.281604  0  0.98718  0
H  H28  1  0.26754910  0.77775497  0.73667405  1  0  0.124622  0  0.930228  0  0  0.136606  0  0.99396  0  0  0.13911  0  0.993358  0  0  0.108892  0.134844  0  0.994383  0
H  H29  1  0.23246203  0.27774714  0.26332618  1  0  0.124694  0  0.93033  0  0  0.136684  0  0.994045  0  0  0.13919  0  0.993438  0  0  0.108922  0.134918  0  0.994463  0
H  H30  1  0.73243918  0.22224567  0.26332572  1  0  0.124609  0  0.930244  0  0  0.136627  0  0.993951  0  0  0.139132  0  0.993346  0  0  0.10888  0.134864  0  0.994363  0
H  H31  1  0.76754744  0.72225162  0.73668145  1  0  0.124613  0  0.930273  0  0  0.136646  0  0.993953  0  0  0.139154  0  0.993346  0  0  0.108879  0.134881  0  0.994375  0
H  H32  1  0.41073935  0.91380975  0.77365112  1  0  0.12965  0  0.914369  0  0  0.144467  0  0.971398  0  0  0.147497  0  0.96933  0  0  0.115087  0.142292  0  0.972962  0
H  H33  1  0.08926401  0.41380103  0.22634488  1  0  0.129737  0  0.914287  0  0  0.144533  0  0.971352  0  0  0.147564  0  0.969281  0  0  0.11511  0.142355  0  0.972919  0
H  H34  1  0.58925211  0.08618808  0.22634303  1  0  0.129654  0  0.914366  0  0  0.144454  0  0.97144  0  0  0.147481  0  0.969375  0  0  0.115052  0.142276  0  0.973004  0
H  H35  1  0.91074866  0.58619492  0.77365928  1  0  0.129586  0  0.914434  0  0  0.14444  0  0.971441  0  0  0.147469  0  0.96938  0  0  0.115046  0.142262  0  0.97301  0
H  H36  1  0.30742324  0.94046450  0.60840583  1  0  0.076272  0  0.927704  0  0  0.083597  0  0.993639  0  0  0.085564  0  0.992604  0  0  0.11922  0.082163  0  0.994512  0
H  H37  1  0.19256367  0.44045598  0.39159155  1  0  0.076359  0  0.927629  0  0  0.083623  0  0.99362  0  0  0.085589  0  0.992587  0  0  0.119259  0.082184  0  0.994494  0
H  H38  1  0.69255522  0.05953239  0.39158717  1  0  0.076313  0  0.927614  0  0  0.083629  0  0.993558  0  0  0.085599  0  0.992517  0  0  0.119235  0.082195  0  0.994428  0
H  H39  1  0.80744576  0.55954372  0.60841322  1  0  0.076325  0  0.927622  0  0  0.083654  0  0.993529  0  0  0.085617  0  0.992501  0  0  0.119267  0.082221  0  0.994401  0
H  H40  1  0.64756021  0.09834400  0.55358154  1  0  0.11413  0  0.940508  0  0  0.1243  0  1.004678  0  0  0.12746  0  1.00191  0  0  0.117416  0.122  0  1.006749  0
H  H41  1  0.85242428  0.59832837  0.44642513  1  0  0.114274  0  0.940277  0  0  0.124336  0  1.004567  0  0  0.127491  0  1.001804  0  0  0.117431  0.122033  0  1.006636  0
H  H42  1  0.35240708  0.90165383  0.44642611  1  0  0.114198  0  0.940509  0  0  0.12429  0  1.00473  0  0  0.127458  0  1.001961  0  0  0.117407  0.121992  0  1.006802  0
H  H43  1  0.14760122  0.40167133  0.55356658  1  0  0.11426  0  0.940295  0  0  0.12432  0  1.004577  0  0  0.127475  0  1.001813  0  0  0.117425  0.122021  0  1.006648  0
H  H44  1  0.63615030  0.05379630  0.67449571  1  0  0.107836  0  0.92708  0  0  0.117  0  0.996441  0  0  0.119798  0  0.993677  0  0  0.119079  0.114984  0  0.998482  0
H  H45  1  0.86385082  0.55378230  0.32551188  1  0  0.107886  0  0.927015  0  0  0.117004  0  0.996411  0  0  0.119816  0  0.993636  0  0  0.119109  0.114984  0  0.998452  0
H  H46  1  0.36384295  0.94619872  0.32551281  1  0  0.107818  0  0.92704  0  0  0.11698  0  0.996378  0  0  0.119749  0  0.993663  0  0  0.119054  0.114966  0  0.998416  0
H  H47  1  0.13615197  0.44621834  0.67447979  1  0  0.10786  0  0.926944  0  0  0.116989  0  0.996322  0  0  0.119795  0  0.993555  0  0  0.119101  0.114973  0  0.998364  0
C  C48  1  0.10319930  0.89562630  0.83122666  1  0  0.726841  0  3.845176  0  0  0.67982  0  4.145083  0  0  0.712231  0  4.137495  0  0  0.218517  0.657913  0  4.149402  0
C  C49  1  0.39680263  0.39562203  0.16877087  1  0  0.726711  0  3.845321  0  0  0.679696  0  4.145233  0  0  0.712106  0  4.137648  0  0  0.218469  0.657793  0  4.149552  0
C  C50  1  0.89679057  0.10437620  0.16877030  1  0  0.726733  0  3.845258  0  0  0.679757  0  4.145114  0  0  0.712166  0  4.137528  0  0  0.218488  0.657851  0  4.149436  0
C  C51  1  0.60320028  0.60437487  0.83123082  1  0  0.72669  0  3.845347  0  0  0.67965  0  4.14532  0  0  0.712061  0  4.137736  0  0  0.218414  0.657752  0  4.149633  0
C  C52  1  0.24852538  0.87877484  0.74904575  1  0  -0.31384  0  3.625618  0  0  -0.36007  0  3.879535  0  0  -0.36553  0  3.885232  0  0  -0.158547  -0.356219  0  3.875516  0
C  C53  1  0.25147996  0.37876711  0.25095347  1  0  -0.313863  0  3.625819  0  0  -0.360139  0  3.879791  0  0  -0.365593  0  3.885485  0  0  -0.158559  -0.35629  0  3.875776  0
C  C54  1  0.75146451  0.12122486  0.25095264  1  0  -0.313775  0  3.625763  0  0  -0.360064  0  3.879702  0  0  -0.365522  0  3.8854  0  0  -0.158525  -0.356206  0  3.875671  0
C  C55  1  0.74853108  0.62122978  0.74905064  1  0  -0.313634  0  3.625763  0  0  -0.360008  0  3.879831  0  0  -0.365478  0  3.885544  0  0  -0.158441  -0.356154  0  3.875809  0
C  C56  1  0.17041032  0.94354726  0.65434223  1  0  0.077189  0  3.648578  0  0  0.055111  0  3.892689  0  0  0.056188  0  3.905408  0  0  0.019912  0.054306  0  3.884154  0
C  C57  1  0.32958308  0.44354079  0.34565749  1  0  0.077039  0  3.648648  0  0  0.055042  0  3.892761  0  0  0.056114  0  3.905512  0  0  0.019912  0.054238  0  3.884224  0
C  C58  1  0.82957469  0.05644963  0.34565528  1  0  0.077185  0  3.648622  0  0  0.05513  0  3.89272  0  0  0.056205  0  3.905458  0  0  0.01993  0.054324  0  3.884183  0
C  C59  1  0.67042471  0.55646078  0.65434580  1  0  0.077029  0  3.648577  0  0  0.054997  0  3.892665  0  0  0.056056  0  3.905408  0  0  0.019895  0.054195  0  3.884128  0
C  C60  1  0.12817676  0.08095601  0.67103643  1  0  0.55185  0  3.792744  0  0  0.495284  0  4.096226  0  0  0.524132  0  4.096027  0  0  0.253355  0.475843  0  4.09579  0
C  C61  1  0.37184109  0.58093912  0.32896920  1  0  0.551657  0  3.792506  0  0  0.494976  0  4.096032  0  0  0.523763  0  4.095916  0  0  0.253207  0.475533  0  4.095591  0
C  C62  1  0.87182613  0.91904744  0.32896383  1  0  0.551739  0  3.792753  0  0  0.495093  0  4.096195  0  0  0.523913  0  4.096035  0  0  0.253313  0.475648  0  4.095755  0
C  C63  1  0.62818299  0.41905964  0.67103893  1  0  0.551515  0  3.792836  0  0  0.494966  0  4.096149  0  0  0.523793  0  4.095975  0  0  0.253186  0.475523  0  4.095703  0
C  C64  1  0.74255906  0.05503473  0.61482704  1  0  -0.101728  0  3.673454  0  0  -0.163134  0  3.939566  0  0  -0.162466  0  3.945304  0  0  -0.057856  -0.163588  0  3.935758  0
C  C65  1  0.75743554  0.55502026  0.38517818  1  0  -0.101693  0  3.672993  0  0  -0.163089  0  3.939126  0  0  -0.162438  0  3.944853  0  0  -0.057888  -0.163531  0  3.935323  0
C  C66  1  0.25742604  0.94496591  0.38517763  1  0  -0.101834  0  3.673326  0  0  -0.163207  0  3.93927  0  0  -0.162556  0  3.945069  0  0  -0.057888  -0.163661  0  3.935465  0
C  C67  1  0.24258028  0.44497944  0.61481823  1  0  -0.101731  0  3.673232  0  0  -0.16311  0  3.939295  0  0  -0.162457  0  3.945039  0  0  -0.057922  -0.163561  0  3.935495  0
C  C68  1  0.78640779  0.92174400  0.58804422  1  0  0.581513  0  3.820385  0  0  0.529648  0  4.127874  0  0  0.558691  0  4.126698  0  0  0.244756  0.510052  0  4.128053  0
C  C69  1  0.71356558  0.42174075  0.41195589  1  0  0.581372  0  3.819982  0  0  0.529582  0  4.127402  0  0  0.55863  0  4.126223  0  0  0.244686  0.509972  0  4.12759  0
C  C70  1  0.21358054  0.07825851  0.41195984  1  0  0.581745  0  3.820476  0  0  0.52986  0  4.127922  0  0  0.558924  0  4.126731  0  0  0.244797  0.510252  0  4.128114  0
C  C71  1  0.28644862  0.57825988  0.58804046  1  0  0.581352  0  3.820005  0  0  0.529585  0  4.127379  0  0  0.558609  0  4.126234  0  0  0.244733  0.509984  0  4.127557  0
N  N72  1  0.98865522  0.87862953  0.60334904  1  0  -0.434819  0  3.296295  0  0  -0.382756  0  3.547432  0  0  -0.404371  0  3.556044  0  0  -0.410157  -0.36808  0  3.541403  0
N  N73  1  0.51134131  0.37861781  0.39665506  1  0  -0.434714  0  3.296271  0  0  -0.382656  0  3.547317  0  0  -0.404254  0  3.555897  0  0  -0.410219  -0.367983  0  3.541287  0
N  N74  1  0.01132822  0.12136923  0.39665272  1  0  -0.434979  0  3.29612  0  0  -0.382958  0  3.547365  0  0  -0.404559  0  3.555946  0  0  -0.410282  -0.368274  0  3.541328  0
N  N75  1  0.48866809  0.62138470  0.60334685  1  0  -0.434472  0  3.296031  0  0  -0.382521  0  3.547119  0  0  -0.404103  0  3.555699  0  0  -0.410164  -0.367851  0  3.541091  0
N  N76  1  0.93545047  0.12860425  0.64129931  1  0  -0.389207  0  3.328263  0  0  -0.333981  0  3.580923  0  0  -0.35444  0  3.589241  0  0  -0.412905  -0.320089  0  3.575002  0
N  N77  1  0.56453038  0.62859360  0.35869770  1  0  -0.389314  0  3.328376  0  0  -0.3338  0  3.580803  0  0  -0.354253  0  3.589147  0  0  -0.412787  -0.319905  0  3.57487  0
N  N78  1  0.06452642  0.87139265  0.35869793  1  0  -0.389227  0  3.3285  0  0  -0.333773  0  3.580895  0  0  -0.35421  0  3.589226  0  0  -0.412805  -0.319876  0  3.574976  0
N  N79  1  0.43546925  0.37140610  0.64130174  1  0  -0.389389  0  3.328344  0  0  -0.333916  0  3.580726  0  0  -0.354382  0  3.589048  0  0  -0.412856  -0.320021  0  3.574798  0
O  O80  1  0.18050682  0.85900391  0.91340288  1  0  -0.742827  0  1.96533  0  0  -0.690946  0  2.203553  0  0  -0.713726  0  2.190717  0  0  -0.424784  -0.674944  0  2.211935  0
O  O81  1  0.31950685  0.35899634  0.08659892  1  0  -0.742794  0  1.9655  0  0  -0.690886  0  2.203677  0  0  -0.713674  0  2.190868  0  0  -0.424774  -0.674863  0  2.212018  0
O  O82  1  0.81949611  0.14100982  0.08660024  1  0  -0.742802  0  1.965551  0  0  -0.690923  0  2.20374  0  0  -0.713711  0  2.190923  0  0  -0.424835  -0.674897  0  2.212087  0
O  O83  1  0.68049769  0.64100430  0.91340354  1  0  -0.742811  0  1.965517  0  0  -0.690903  0  2.20372  0  0  -0.713692  0  2.190911  0  0  -0.424805  -0.674883  0  2.212062  0
O  O84  1  0.91570495  0.94460249  0.81364018  1  0  -0.672263  0  1.954335  0  0  -0.600138  0  2.162619  0  0  -0.627033  0  2.154398  0  0  -0.316127  -0.58151  0  2.167931  0
O  O85  1  0.58429904  0.44459527  0.18636005  1  0  -0.67222  0  1.9543  0  0  -0.600052  0  2.162596  0  0  -0.626956  0  2.154389  0  0  -0.316108  -0.581433  0  2.167907  0
O  O86  1  0.08428978  0.05539814  0.18635623  1  0  -0.672187  0  1.954168  0  0  -0.600062  0  2.162429  0  0  -0.626953  0  2.154204  0  0  -0.316045  -0.581462  0  2.167758  0
O  O87  1  0.41570874  0.55540068  0.81364252  1  0  -0.672162  0  1.954339  0  0  -0.600006  0  2.162629  0  0  -0.626904  0  2.154416  0  0  -0.31603  -0.581411  0  2.167957  0
O  O88  1  0.28118639  0.14590495  0.71005113  1  0  -0.599171  0  1.992779  0  0  -0.542109  0  2.215501  0  0  -0.564597  0  2.207243  0  0  -0.299492  -0.526794  0  2.220956  0
O  O89  1  0.21878201  0.64590689  0.28993871  1  0  -0.599206  0  1.991835  0  0  -0.542072  0  2.214499  0  0  -0.564496  0  2.206234  0  0  -0.299462  -0.526749  0  2.21998  0
O  O90  1  0.71878882  0.85409007  0.28994104  1  0  -0.599257  0  1.992332  0  0  -0.542137  0  2.215004  0  0  -0.564594  0  2.206734  0  0  -0.299521  -0.526828  0  2.220505  0
O  O91  1  0.78121120  0.35409749  0.71006551  1  0  -0.599  0  1.992434  0  0  -0.541951  0  2.215032  0  0  -0.564373  0  2.206739  0  0  -0.299381  -0.526639  0  2.220522  0
O  O92  1  0.63224610  0.85663314  0.55062049  1  0  -0.5953  0  1.947796  0  0  -0.544762  0  2.172085  0  0  -0.56634  0  2.16402  0  0  -0.313465  -0.529798  0  2.17731  0
O  O93  1  0.86776369  0.35660640  0.44939138  1  0  -0.59526  0  1.946755  0  0  -0.544793  0  2.171063  0  0  -0.56635  0  2.162966  0  0  -0.313337  -0.529827  0  2.17629  0
O  O94  1  0.36773416  0.14336656  0.44938687  1  0  -0.595255  0  1.948068  0  0  -0.544736  0  2.172364  0  0  -0.566328  0  2.164311  0  0  -0.313338  -0.529763  0  2.177583  0
O  O95  1  0.13225046  0.64338956  0.55060139  1  0  -0.59533  0  1.946808  0  0  -0.54486  0  2.171084  0  0  -0.566392  0  2.162981  0  0  -0.313382  -0.529886  0  2.1763  0
O  O96  1  0.21717515  0.81438086  0.13680850  1  0  -0.913804  0  1.771964  0  0  -0.871429  0  1.943043  0  0  -0.886475  0  1.910496  0  0  -0.692543  -0.860759  0  1.965788  0
O  O97  1  0.28282423  0.31438805  0.86318603  1  0  -0.913759  0  1.772055  0  0  -0.871402  0  1.943096  0  0  -0.886435  0  1.910528  0  0  -0.692446  -0.860735  0  1.965834  0
O  O98  1  0.78282774  0.18561884  0.86319176  1  0  -0.913859  0  1.771973  0  0  -0.871495  0  1.943032  0  0  -0.886541  0  1.910484  0  0  -0.692553  -0.860822  0  1.965784  0
O  O99  1  0.71718186  0.68561446  0.13681004  1  0  -0.913884  0  1.771769  0  0  -0.871461  0  1.942832  0  0  -0.886509  0  1.910275  0  0  -0.692496  -0.86079  0  1.965588  0
O  O100  1  0.22527934  0.58466069  0.98495074  1  0  -0.920174  0  1.783281  0  0  -0.878879  0  1.950171  0  0  -0.894176  0  1.917172  0  0  -0.697996  -0.868001  0  1.973371  0
O  O101  1  0.27472543  0.08465892  0.01504941  1  0  -0.920197  0  1.78326  0  0  -0.878893  0  1.950121  0  0  -0.894189  0  1.917121  0  0  -0.698007  -0.868006  0  1.973331  0
O  O102  1  0.77472515  0.41533901  0.01504743  1  0  -0.920169  0  1.783258  0  0  -0.878885  0  1.95013  0  0  -0.894179  0  1.917131  0  0  -0.698026  -0.867999  0  1.973341  0
O  O103  1  0.72528071  0.91533984  0.98495096  1  0  -0.92015  0  1.783275  0  0  -0.878851  0  1.950166  0  0  -0.894147  0  1.917168  0  0  -0.698007  -0.86797  0  1.973373  0
