# generated using pymatgen
data_CdH7C8(NO3)2
_symmetry_space_group_name_H-M   'P 1'
_cell_length_a   6.88823450
_cell_length_b   9.74315615
_cell_length_c   15.14550523
_cell_angle_alpha   90.00002489
_cell_angle_beta   89.99999571
_cell_angle_gamma   106.25306259
_symmetry_Int_Tables_number   1
_chemical_formula_structural   CdH7C8(NO3)2
_chemical_formula_sum   'Cd4 H28 C32 N8 O24'
_cell_volume   975.83944949
_cell_formula_units_Z   4
loop_
 _symmetry_equiv_pos_site_id
 _symmetry_equiv_pos_as_xyz
  1  'x, y, z'
loop_
 _atom_site_type_symbol
 _atom_site_label
 _atom_site_symmetry_multiplicity
 _atom_site_fract_x
 _atom_site_fract_y
 _atom_site_fract_z
 _atom_site_occupancy
 _atom_site_hle17_bader_spin_density
 _atom_site_hle17_ddec_charge
 _atom_site_hle17_ddec_spin_density
 _atom_site_hle17_ddec_sum_bond_order
 _atom_site_hle17_magmom
 _atom_site_hse06_10hf_bader_spin_density
 _atom_site_hse06_10hf_ddec_charge
 _atom_site_hse06_10hf_ddec_spin_density
 _atom_site_hse06_10hf_ddec_sum_bond_order
 _atom_site_hse06_10hf_magmom
 _atom_site_hse06_bader_spin_density
 _atom_site_hse06_ddec_charge
 _atom_site_hse06_ddec_spin_density
 _atom_site_hse06_ddec_sum_bond_order
 _atom_site_hse06_magmom
 _atom_site_pbe_bader_spin_density
 _atom_site_pbe_cm5_charge
 _atom_site_pbe_ddec_charge
 _atom_site_pbe_ddec_spin_density
 _atom_site_pbe_ddec_sum_bond_order
 _atom_site_pbe_magmom
Cd  Cd0  1  0.64170101  0.09405237  0.25000025  1  0  1.236672  0  1.603429  0  0  1.039816  0  2.058181  0  0  1.092737  0  2.005107  0  0  0.813629  1.001213  0  2.095565  0
Cd  Cd1  1  0.35830003  0.90594791  0.74999953  1  0  1.236673  0  1.603421  0  0  1.039804  0  2.058183  0  0  1.092726  0  2.00511  0  0  0.813637  1.001203  0  2.095565  0
Cd  Cd2  1  0.49999927  0.50000067  0.49999923  1  0  1.173272  0  1.648119  0  0  0.987641  0  2.092432  0  0  1.039924  0  2.042149  0  0  0.784707  0.949086  0  2.128152  0
Cd  Cd3  1  0.49999883  0.49999942  0.00000072  1  0  1.173257  0  1.648129  0  0  0.987614  0  2.092445  0  0  1.039901  0  2.042162  0  0  0.784703  0.949058  0  2.128164  0
H  H4  1  0.15623543  0.92259411  0.51126798  1  0  0.394816  0  0.899397  0  0  0.359483  0  0.984448  0  0  0.372405  0  0.971772  0  0  0.298153  0.350533  0  0.993055  0
H  H5  1  0.84376454  0.07740707  0.01126671  1  0  0.394783  0  0.899461  0  0  0.35952  0  0.984389  0  0  0.372442  0  0.971712  0  0  0.298187  0.350569  0  0.992998  0
H  H6  1  0.84376643  0.07740831  0.48873377  1  0  0.394761  0  0.899499  0  0  0.359484  0  0.984451  0  0  0.372407  0  0.971773  0  0  0.298182  0.350533  0  0.993061  0
H  H7  1  0.15623650  0.92259321  0.98873175  1  0  0.394835  0  0.899381  0  0  0.359511  0  0.984418  0  0  0.372432  0  0.971743  0  0  0.29818  0.350562  0  0.993024  0
H  H8  1  0.07678884  0.11458666  0.30093946  1  0  0.435697  0  0.839806  0  0  0.408277  0  0.903482  0  0  0.417731  0  0.889638  0  0  0.308558  0.401327  0  0.913728  0
H  H9  1  0.92321221  0.88541365  0.80093938  1  0  0.435679  0  0.839821  0  0  0.40826  0  0.903501  0  0  0.417713  0  0.889657  0  0  0.308553  0.401311  0  0.913745  0
H  H10  1  0.92321220  0.88541362  0.69906031  1  0  0.435696  0  0.839787  0  0  0.408277  0  0.903472  0  0  0.41773  0  0.889629  0  0  0.308563  0.401328  0  0.913716  0
H  H11  1  0.07678738  0.11458662  0.19906039  1  0  0.435709  0  0.839791  0  0  0.408296  0  0.903448  0  0  0.417749  0  0.889604  0  0  0.308568  0.401347  0  0.913692  0
H  H12  1  0.74575681  0.38021424  0.30408828  1  0  0.436861  0  0.850284  0  0  0.404379  0  0.918208  0  0  0.414692  0  0.903454  0  0  0.301176  0.396889  0  0.928901  0
H  H13  1  0.25424423  0.61978607  0.80408815  1  0  0.436872  0  0.85026  0  0  0.404389  0  0.918188  0  0  0.414705  0  0.903431  0  0  0.30119  0.396898  0  0.928881  0
H  H14  1  0.25424423  0.61978604  0.69591150  1  0  0.436875  0  0.850255  0  0  0.404391  0  0.918185  0  0  0.414706  0  0.903429  0  0  0.301187  0.3969  0  0.928879  0
H  H15  1  0.74575681  0.38021421  0.19591163  1  0  0.436879  0  0.850262  0  0  0.404399  0  0.91818  0  0  0.414712  0  0.903425  0  0  0.301185  0.396908  0  0.928874  0
H  H16  1  0.88729262  0.67827729  0.58594752  1  0  0.418394  0  0.880937  0  0  0.386294  0  0.946715  0  0  0.397185  0  0.9307  0  0  0.287136  0.378438  0  0.95825  0
H  H17  1  0.11270695  0.32172287  0.08594831  1  0  0.41836  0  0.880967  0  0  0.386257  0  0.946735  0  0  0.397145  0  0.930724  0  0  0.287127  0.378405  0  0.958263  0
H  H18  1  0.11270696  0.32172299  0.41405226  1  0  0.4184  0  0.880938  0  0  0.386303  0  0.946698  0  0  0.39719  0  0.930689  0  0  0.287149  0.378451  0  0.958227  0
H  H19  1  0.88729409  0.67827741  0.91405278  1  0  0.418323  0  0.881031  0  0  0.38621  0  0.94682  0  0  0.397099  0  0.93081  0  0  0.287105  0.378357  0  0.95835  0
H  H20  1  0.69599125  0.71593303  0.62054789  1  0  0.415836  0  0.886278  0  0  0.385183  0  0.949398  0  0  0.396085  0  0.933424  0  0  0.287063  0.376736  0  0.961811  0
H  H21  1  0.30400769  0.28406928  0.12054867  1  0  0.415865  0  0.886243  0  0  0.385228  0  0.949368  0  0  0.39613  0  0.933393  0  0  0.287091  0.376781  0  0.961783  0
H  H22  1  0.30400916  0.28406937  0.37945123  1  0  0.415871  0  0.886234  0  0  0.385239  0  0.949352  0  0  0.396141  0  0.933375  0  0  0.287088  0.376791  0  0.961767  0
H  H23  1  0.69599231  0.71593206  0.87945243  1  0  0.415822  0  0.886299  0  0  0.385169  0  0.949423  0  0  0.396072  0  0.933447  0  0  0.287065  0.376722  0  0.961837  0
H  H24  1  0.90266537  0.69025590  0.41318471  1  0  0.092472  0  0.962545  0  0  0.100382  0  1.03089  0  0  0.103396  0  1.029183  0  0  0.099837  0.098362  0  1.031921  0
H  H25  1  0.09733091  0.30974339  0.91318516  1  0  0.092478  0  0.962546  0  0  0.100398  0  1.030881  0  0  0.10341  0  1.029174  0  0  0.09984  0.098376  0  1.031911  0
H  H26  1  0.09733235  0.30974329  0.58681440  1  0  0.092456  0  0.962512  0  0  0.100358  0  1.030866  0  0  0.103371  0  1.029161  0  0  0.099821  0.098336  0  1.031898  0
H  H27  1  0.90266680  0.69025580  0.08681330  1  0  0.092447  0  0.962547  0  0  0.100377  0  1.030872  0  0  0.10339  0  1.029164  0  0  0.099819  0.098355  0  1.031903  0
H  H28  1  0.15207906  0.59594258  0.33192496  1  0  0.103572  0  0.952623  0  0  0.114861  0  1.01032  0  0  0.117378  0  1.009577  0  0  0.102254  0.112944  0  1.011155  0
H  H29  1  0.84791452  0.40405344  0.83192475  1  0  0.10357  0  0.952595  0  0  0.114868  0  1.010285  0  0  0.117386  0  1.00954  0  0  0.102245  0.112946  0  1.011124  0
H  H30  1  0.84791556  0.40405233  0.66807482  1  0  0.103566  0  0.952604  0  0  0.114871  0  1.010279  0  0  0.117389  0  1.009533  0  0  0.102258  0.11295  0  1.011118  0
H  H31  1  0.15208051  0.59594253  0.16807437  1  0  0.103578  0  0.952575  0  0  0.114854  0  1.010279  0  0  0.11737  0  1.009538  0  0  0.102258  0.112936  0  1.011115  0
C  C32  1  0.31616284  0.01800078  0.41044982  1  0  0.63182  0  3.878718  0  0  0.574947  0  4.183486  0  0  0.609052  0  4.175709  0  0  0.224352  0.551727  0  4.188367  0
C  C33  1  0.68383430  0.98199319  0.91044714  1  0  0.631884  0  3.878668  0  0  0.574972  0  4.18355  0  0  0.609073  0  4.175768  0  0  0.224345  0.551751  0  4.188426  0
C  C34  1  0.68383469  0.98199415  0.58955259  1  0  0.631887  0  3.878638  0  0  0.575004  0  4.183467  0  0  0.609106  0  4.175693  0  0  0.224366  0.551785  0  4.188348  0
C  C35  1  0.31616282  0.01800066  0.08955000  1  0  0.631797  0  3.87875  0  0  0.574932  0  4.183518  0  0  0.609037  0  4.175744  0  0  0.224345  0.551714  0  4.188397  0
C  C36  1  0.41336348  0.90288467  0.40744179  1  0  -0.028606  0  3.850473  0  0  -0.037377  0  4.11472  0  0  -0.041615  0  4.138727  0  0  0.065569  -0.034878  0  4.098879  0
C  C37  1  0.58663881  0.09711893  0.90744150  1  0  -0.028579  0  3.850335  0  0  -0.037397  0  4.114646  0  0  -0.041629  0  4.138646  0  0  0.065551  -0.0349  0  4.0988  0
C  C38  1  0.58663734  0.09711881  0.59255864  1  0  -0.028649  0  3.850416  0  0  -0.037512  0  4.114753  0  0  -0.041748  0  4.138757  0  0  0.06548  -0.035015  0  4.098908  0
C  C39  1  0.41336159  0.90288348  0.09255827  1  0  -0.028621  0  3.850464  0  0  -0.037424  0  4.114754  0  0  -0.041659  0  4.138756  0  0  0.065536  -0.034927  0  4.098909  0
C  C40  1  0.38816493  0.77732031  0.45704593  1  0  -0.008648  0  3.807679  0  0  -0.017025  0  4.069009  0  0  -0.018844  0  4.091242  0  0  0.069973  -0.015981  0  4.054049  0
C  C41  1  0.61183800  0.22268119  0.95704436  1  0  -0.00871  0  3.807705  0  0  -0.016991  0  4.068937  0  0  -0.018812  0  4.091169  0  0  0.069973  -0.015948  0  4.053972  0
C  C42  1  0.61183611  0.22267997  0.54295583  1  0  -0.008582  0  3.807655  0  0  -0.016863  0  4.068908  0  0  -0.018682  0  4.091141  0  0  0.070017  -0.01582  0  4.053945  0
C  C43  1  0.38816345  0.77732016  0.04295410  1  0  -0.008581  0  3.807657  0  0  -0.016947  0  4.068978  0  0  -0.018765  0  4.091206  0  0  0.069969  -0.015903  0  4.054014  0
C  C44  1  0.25774756  0.72183037  0.53373270  1  0  0.629981  0  3.920776  0  0  0.575498  0  4.22011  0  0  0.609382  0  4.213034  0  0  0.209746  0.552669  0  4.223942  0
C  C45  1  0.74225200  0.27816975  0.03373215  1  0  0.629955  0  3.920774  0  0  0.575439  0  4.220129  0  0  0.609324  0  4.213057  0  0  0.209721  0.552611  0  4.223957  0
C  C46  1  0.74225389  0.27817098  0.46626905  1  0  0.629827  0  3.920758  0  0  0.57528  0  4.22017  0  0  0.609163  0  4.2131  0  0  0.209659  0.552454  0  4.223998  0
C  C47  1  0.25774758  0.72183052  0.96626697  1  0  0.629883  0  3.920838  0  0  0.575393  0  4.220178  0  0  0.609278  0  4.2131  0  0  0.209707  0.552566  0  4.224005  0
C  C48  1  0.61021856  0.78408752  0.35285396  1  0  0.370091  0  3.707977  0  0  0.337733  0  3.979728  0  0  0.352256  0  3.994852  0  0  0.221263  0.327866  0  3.969154  0
C  C49  1  0.38977875  0.21591068  0.85285437  1  0  0.370039  0  3.707828  0  0  0.337679  0  3.979608  0  0  0.352203  0  3.994732  0  0  0.221243  0.327817  0  3.969031  0
C  C50  1  0.38978061  0.21591168  0.64714582  1  0  0.370023  0  3.707895  0  0  0.337675  0  3.979653  0  0  0.352196  0  3.994778  0  0  0.221239  0.327813  0  3.969074  0
C  C51  1  0.61022187  0.78408853  0.14714541  1  0  0.370043  0  3.708051  0  0  0.337714  0  3.979757  0  0  0.352236  0  3.994882  0  0  0.221268  0.327846  0  3.969182  0
C  C52  1  0.75902070  0.74161253  0.29703409  1  0  -0.020567  0  3.711101  0  0  -0.007281  0  3.943816  0  0  -0.008973  0  3.965261  0  0  -0.000535  -0.006262  0  3.929467  0
C  C53  1  0.24098139  0.25838672  0.79703320  1  0  -0.020531  0  3.711088  0  0  -0.007277  0  3.943879  0  0  -0.00897  0  3.965325  0  0  -0.00053  -0.006272  0  3.929547  0
C  C54  1  0.24098180  0.25838776  0.70296767  1  0  -0.020524  0  3.711085  0  0  -0.007297  0  3.943884  0  0  -0.008988  0  3.96533  0  0  -0.000535  -0.006285  0  3.929547  0
C  C55  1  0.75901987  0.74161036  0.20296658  1  0  -0.020555  0  3.711131  0  0  -0.007296  0  3.943864  0  0  -0.008988  0  3.965309  0  0  -0.000545  -0.006276  0  3.929513  0
C  C56  1  0.90382024  0.69034829  0.34129078  1  0  -0.08889  0  3.736908  0  0  -0.11306  0  3.992278  0  0  -0.115127  0  4.012813  0  0  -0.090151  -0.111626  0  3.978361  0
C  C57  1  0.09617812  0.30964884  0.84129056  1  0  -0.088915  0  3.73688  0  0  -0.113077  0  3.992246  0  0  -0.115141  0  4.012782  0  0  -0.090174  -0.111637  0  3.978324  0
C  C58  1  0.09617770  0.30964770  0.65870966  1  0  -0.088894  0  3.736842  0  0  -0.113033  0  3.992218  0  0  -0.115091  0  4.012734  0  0  -0.090149  -0.111596  0  3.978297  0
C  C59  1  0.90382250  0.69035037  0.15870855  1  0  -0.088857  0  3.736941  0  0  -0.11304  0  3.992305  0  0  -0.115104  0  4.012839  0  0  -0.09015  -0.111604  0  3.978384  0
C  C60  1  0.04500457  0.63886674  0.29600804  1  0  -0.061241  0  3.752346  0  0  -0.076715  0  4.004937  0  0  -0.077719  0  4.024946  0  0  -0.091873  -0.075803  0  3.991261  0
C  C61  1  0.95499378  0.36113036  0.79600847  1  0  -0.06124  0  3.752296  0  0  -0.076716  0  4.004875  0  0  -0.077722  0  4.024886  0  0  -0.091848  -0.075801  0  3.991192  0
C  C62  1  0.95499378  0.36113033  0.70399108  1  0  -0.061239  0  3.752302  0  0  -0.076715  0  4.004869  0  0  -0.07772  0  4.024887  0  0  -0.091866  -0.075801  0  3.991189  0
C  C63  1  0.04500498  0.63886777  0.20399196  1  0  -0.06124  0  3.752297  0  0  -0.076688  0  4.004901  0  0  -0.077691  0  4.024909  0  0  -0.091852  -0.075774  0  3.991223  0
N  N64  1  0.55472306  0.90574043  0.34407051  1  0  -0.449367  0  3.229544  0  0  -0.384042  0  3.50611  0  0  -0.404905  0  3.524486  0  0  -0.355155  -0.369147  0  3.493335  0
N  N65  1  0.44527612  0.09425883  0.84407089  1  0  -0.449361  0  3.229461  0  0  -0.384022  0  3.506048  0  0  -0.404883  0  3.524419  0  0  -0.355133  -0.369126  0  3.493267  0
N  N66  1  0.44527652  0.09425984  0.65592992  1  0  -0.449333  0  3.229451  0  0  -0.383955  0  3.505995  0  0  -0.40482  0  3.524374  0  0  -0.3551  -0.36906  0  3.493214  0
N  N67  1  0.55472305  0.90574037  0.15592889  1  0  -0.449352  0  3.229539  0  0  -0.384027  0  3.506099  0  0  -0.404891  0  3.524476  0  0  -0.35515  -0.369132  0  3.493323  0
N  N68  1  0.51360852  0.70465895  0.42224417  1  0  -0.453166  0  3.162739  0  0  -0.385943  0  3.436982  0  0  -0.40765  0  3.454129  0  0  -0.347258  -0.37012  0  3.4249  0
N  N69  1  0.48639295  0.29534252  0.92224395  1  0  -0.453152  0  3.162628  0  0  -0.385943  0  3.436849  0  0  -0.40765  0  3.453997  0  0  -0.347269  -0.37012  0  3.424762  0
N  N70  1  0.48639293  0.29534240  0.57775560  1  0  -0.453163  0  3.162665  0  0  -0.385953  0  3.436871  0  0  -0.40766  0  3.45402  0  0  -0.347244  -0.370129  0  3.424785  0
N  N71  1  0.51360891  0.70465989  0.07775583  1  0  -0.45319  0  3.162808  0  0  -0.385963  0  3.437023  0  0  -0.407669  0  3.454169  0  0  -0.347237  -0.370139  0  3.424938  0
O  O72  1  0.18076364  0.01561887  0.47103810  1  0  -0.509836  0  2.148577  0  0  -0.454408  0  2.376046  0  0  -0.476566  0  2.364543  0  0  -0.312129  -0.43905  0  2.383406  0
O  O73  1  0.81923702  0.98438049  0.97103871  1  0  -0.509878  0  2.148497  0  0  -0.454515  0  2.375981  0  0  -0.476672  0  2.364476  0  0  -0.312204  -0.43916  0  2.383345  0
O  O74  1  0.81923740  0.98438141  0.52896102  1  0  -0.509853  0  2.148548  0  0  -0.454495  0  2.376042  0  0  -0.476657  0  2.364537  0  0  -0.312196  -0.439136  0  2.383399  0
O  O75  1  0.18076466  0.01561766  0.02896173  1  0  -0.509857  0  2.148615  0  0  -0.454449  0  2.376103  0  0  -0.476609  0  2.364601  0  0  -0.31215  -0.439086  0  2.383445  0
O  O76  1  0.35969298  0.11752856  0.35418892  1  0  -0.613937  0  2.029515  0  0  -0.543264  0  2.257137  0  0  -0.568666  0  2.245741  0  0  -0.289552  -0.525014  0  2.264929  0
O  O77  1  0.64030557  0.88247284  0.85418885  1  0  -0.61391  0  2.0298  0  0  -0.543182  0  2.257383  0  0  -0.568603  0  2.246039  0  0  -0.28951  -0.524939  0  2.265186  0
O  O78  1  0.64030742  0.88247385  0.64581152  1  0  -0.613934  0  2.029714  0  0  -0.543217  0  2.257319  0  0  -0.568605  0  2.245905  0  0  -0.289519  -0.524962  0  2.265095  0
O  O79  1  0.35969297  0.11752849  0.14581159  1  0  -0.613929  0  2.029501  0  0  -0.543241  0  2.257117  0  0  -0.568635  0  2.245703  0  0  -0.289547  -0.524989  0  2.264894  0
O  O80  1  0.26780551  0.60690028  0.57066048  1  0  -0.619937  0  2.004861  0  0  -0.547242  0  2.240408  0  0  -0.574693  0  2.23056  0  0  -0.308483  -0.527813  0  2.246338  0
O  O81  1  0.73219551  0.39309988  0.07065995  1  0  -0.619933  0  2.004871  0  0  -0.547234  0  2.240432  0  0  -0.574688  0  2.230586  0  0  -0.30848  -0.527804  0  2.246355  0
O  O82  1  0.73219739  0.39310108  0.42934194  1  0  -0.619887  0  2.004875  0  0  -0.547172  0  2.240441  0  0  -0.574618  0  2.230593  0  0  -0.308453  -0.527745  0  2.24637  0
O  O83  1  0.26780844  0.60690042  0.92933917  1  0  -0.619897  0  2.004842  0  0  -0.547194  0  2.240388  0  0  -0.574645  0  2.230544  0  0  -0.308463  -0.527763  0  2.246308  0
O  O84  1  0.13835718  0.79381005  0.56118509  1  0  -0.625165  0  2.032202  0  0  -0.560905  0  2.259362  0  0  -0.586083  0  2.248159  0  0  -0.306914  -0.543509  0  2.266721  0
O  O85  1  0.86164425  0.20619116  0.06118516  1  0  -0.625105  0  2.0322  0  0  -0.560883  0  2.259342  0  0  -0.586056  0  2.24813  0  0  -0.306907  -0.54349  0  2.266698  0
O  O86  1  0.86164760  0.20619238  0.43881601  1  0  -0.62509  0  2.032178  0  0  -0.560835  0  2.259315  0  0  -0.586012  0  2.248114  0  0  -0.306906  -0.543441  0  2.266671  0
O  O87  1  0.13835865  0.79381019  0.93881461  1  0  -0.625099  0  2.032224  0  0  -0.560856  0  2.259409  0  0  -0.586032  0  2.248208  0  0  -0.306891  -0.543462  0  2.266764  0
O  O88  1  0.98600655  0.09605508  0.25000024  1  0  -0.829889  0  1.85556  0  0  -0.773205  0  2.059168  0  0  -0.79225  0  2.026006  0  0  -0.583368  -0.759641  0  2.082937  0
O  O89  1  0.01399408  0.90394413  0.75000020  1  0  -0.829842  0  1.855541  0  0  -0.773164  0  2.059193  0  0  -0.792206  0  2.026033  0  0  -0.583351  -0.759605  0  2.082969  0
O  O90  1  0.68643318  0.32878794  0.25000028  1  0  -0.826534  0  1.916097  0  0  -0.752468  0  2.1163  0  0  -0.775887  0  2.082112  0  0  -0.575558  -0.735746  0  2.14067  0
O  O91  1  0.31356681  0.67121340  0.75000016  1  0  -0.826535  0  1.916056  0  0  -0.752472  0  2.116329  0  0  -0.775896  0  2.082118  0  0  -0.57557  -0.735753  0  2.140704  0
O  O92  1  0.74450604  0.63359316  0.60252141  1  0  -0.826957  0  1.839618  0  0  -0.770681  0  2.024254  0  0  -0.791006  0  1.989561  0  0  -0.592732  -0.755755  0  2.050016  0
O  O93  1  0.25549248  0.36640807  0.10252551  1  0  -0.826946  0  1.839623  0  0  -0.77068  0  2.024208  0  0  -0.791003  0  1.989525  0  0  -0.592738  -0.755758  0  2.049967  0
O  O94  1  0.25549250  0.36640817  0.39747639  1  0  -0.826995  0  1.839618  0  0  -0.77074  0  2.024191  0  0  -0.791061  0  1.989505  0  0  -0.592759  -0.755816  0  2.049952  0
O  O95  1  0.74450710  0.63359220  0.89747822  1  0  -0.826881  0  1.839703  0  0  -0.770577  0  2.02435  0  0  -0.790897  0  1.989662  0  0  -0.592701  -0.755651  0  2.050111  0
