# generated using pymatgen
data_ZnH10C6S2(NO2)4
_symmetry_space_group_name_H-M   'P 1'
_cell_length_a   7.06076478
_cell_length_b   7.28849446
_cell_length_c   7.32422568
_cell_angle_alpha   63.02666819
_cell_angle_beta   67.64583694
_cell_angle_gamma   72.06907778
_symmetry_Int_Tables_number   1
_chemical_formula_structural   ZnH10C6S2(NO2)4
_chemical_formula_sum   'Zn1 H10 C6 S2 N4 O8'
_cell_volume   306.45720415
_cell_formula_units_Z   1
loop_
 _symmetry_equiv_pos_site_id
 _symmetry_equiv_pos_as_xyz
  1  'x, y, z'
loop_
 _atom_site_type_symbol
 _atom_site_label
 _atom_site_symmetry_multiplicity
 _atom_site_fract_x
 _atom_site_fract_y
 _atom_site_fract_z
 _atom_site_occupancy
 _atom_site_hle17_bader_spin_density
 _atom_site_hle17_ddec_charge
 _atom_site_hle17_ddec_spin_density
 _atom_site_hle17_ddec_sum_bond_order
 _atom_site_hle17_magmom
 _atom_site_hse06_10hf_bader_spin_density
 _atom_site_hse06_10hf_ddec_charge
 _atom_site_hse06_10hf_ddec_spin_density
 _atom_site_hse06_10hf_ddec_sum_bond_order
 _atom_site_hse06_10hf_magmom
 _atom_site_hse06_bader_spin_density
 _atom_site_hse06_ddec_charge
 _atom_site_hse06_ddec_spin_density
 _atom_site_hse06_ddec_sum_bond_order
 _atom_site_hse06_magmom
 _atom_site_pbe_bader_spin_density
 _atom_site_pbe_cm5_charge
 _atom_site_pbe_ddec_charge
 _atom_site_pbe_ddec_spin_density
 _atom_site_pbe_ddec_sum_bond_order
 _atom_site_pbe_magmom
Zn  Zn0  1  0.99999794  0.00000180  0.00000110  1  0  1.080664  0  1.802096  0  0  0.910565  0  2.24625  0  0  0.953381  0  2.195346  0  0  0.697932  0.880558  0  2.281127  0
H  H1  1  0.19804484  0.32992069  0.82704552  1  0  0.445122  0  0.850133  0  0  0.413901  0  0.914002  0  0  0.424296  0  0.898884  0  0  0.300106  0.406528  0  0.924716  0
H  H2  1  0.80195803  0.67007846  0.17294989  1  0  0.445135  0  0.850124  0  0  0.413889  0  0.914023  0  0  0.424299  0  0.898888  0  0  0.300102  0.406504  0  0.924748  0
H  H3  1  0.98596915  0.39297761  0.76063049  1  0  0.428209  0  0.852241  0  0  0.396096  0  0.930302  0  0  0.406206  0  0.915428  0  0  0.300981  0.388955  0  0.939668  0
H  H4  1  0.01403356  0.60702318  0.23936969  1  0  0.428188  0  0.852276  0  0  0.39607  0  0.930346  0  0  0.406181  0  0.915472  0  0  0.300962  0.38893  0  0.93972  0
H  H5  1  0.23819855  0.28052718  0.50371289  1  0  0.301912  0  0.915567  0  0  0.278342  0  0.983297  0  0  0.286513  0  0.976825  0  0  0.326897  0.272551  0  0.988012  0
H  H6  1  0.76179824  0.71947203  0.49628754  1  0  0.301945  0  0.915525  0  0  0.27839  0  0.983259  0  0  0.286562  0  0.976784  0  0  0.326902  0.272596  0  0.987978  0
H  H7  1  0.39677491  0.17448126  0.18605684  1  0  0.136893  0  0.938659  0  0  0.146495  0  0.997215  0  0  0.150096  0  0.993364  0  0  0.134186  0.143782  0  1.000056  0
H  H8  1  0.60322780  0.82551953  0.81394333  1  0  0.136839  0  0.938627  0  0  0.146454  0  0.997182  0  0  0.150053  0  0.993331  0  0  0.134166  0.143738  0  1.000025  0
H  H9  1  0.12484167  0.67932076  0.76697441  1  0  0.121012  0  0.95252  0  0  0.129755  0  1.015894  0  0  0.132661  0  1.012547  0  0  0.125616  0.127589  0  1.018328  0
H  H10  1  0.87515495  0.32068009  0.23303079  1  0  0.121001  0  0.952544  0  0  0.129756  0  1.015908  0  0  0.132661  0  1.012559  0  0  0.125625  0.127591  0  1.018341  0
C  C11  1  0.32126739  0.07427401  0.34565132  1  0  0.093047  0  3.596541  0  0  0.029249  0  3.866832  0  0  0.0419  0  3.877075  0  0  0.040218  0.021308  0  3.85978  0
C  C12  1  0.67873066  0.92572674  0.65434655  1  0  0.093094  0  3.596502  0  0  0.029339  0  3.866784  0  0  0.04199  0  3.877023  0  0  0.04026  0.021396  0  3.859732  0
C  C13  1  0.28445188  0.87060320  0.42536466  1  0  -0.257617  0  3.766354  0  0  -0.232457  0  4.044074  0  0  -0.247012  0  4.064124  0  0  -0.044626  -0.2232  0  4.030844  0
C  C14  1  0.71554751  0.12939916  0.57463605  1  0  -0.257613  0  3.766344  0  0  -0.232444  0  4.044033  0  0  -0.246991  0  4.064078  0  0  -0.044644  -0.223186  0  4.030804  0
C  C15  1  0.18230745  0.82045022  0.64460273  1  0  0.085115  0  3.665095  0  0  0.028001  0  3.942318  0  0  0.039432  0  3.955  0  0  0.031006  0.020667  0  3.933726  0
C  C16  1  0.81769089  0.17954900  0.35539847  1  0  0.085097  0  3.665183  0  0  0.027969  0  3.942418  0  0  0.039402  0  3.955091  0  0  0.030985  0.020634  0  3.933827  0
S  S17  1  0.34289009  0.72273173  0.27174233  1  0  1.367185  0  5.610185  0  0  1.261228  0  6.129646  0  0  1.311422  0  6.103591  0  0  0.528815  1.226534  0  6.146788  0
S  S18  1  0.65711109  0.27726906  0.72825843  1  0  1.367076  0  5.610416  0  0  1.261104  0  6.129902  0  0  1.311291  0  6.103851  0  0  0.528781  1.226405  0  6.14705  0
N  N19  1  0.15772977  0.98300832  0.69523414  1  0  -0.251063  0  3.164341  0  0  -0.195896  0  3.450589  0  0  -0.211208  0  3.467831  0  0  -0.243949  -0.185589  0  3.438911  0
N  N20  1  0.84226807  0.01699402  0.30476580  1  0  -0.251048  0  3.164346  0  0  -0.195844  0  3.450623  0  0  -0.211155  0  3.467863  0  0  -0.243936  -0.185538  0  3.438944  0
N  N21  1  0.24450042  0.13395536  0.51210737  1  0  -0.146486  0  3.489551  0  0  -0.084004  0  3.728183  0  0  -0.096961  0  3.747364  0  0  -0.27515  -0.075554  0  3.715437  0
N  N22  1  0.75549898  0.86604700  0.48789334  1  0  -0.146498  0  3.489534  0  0  -0.084126  0  3.728272  0  0  -0.097085  0  3.747454  0  0  -0.275173  -0.075671  0  3.715523  0
O  O23  1  0.29927268  0.87443814  0.06794979  1  0  -0.692073  0  2.060024  0  0  -0.629811  0  2.340494  0  0  -0.653674  0  2.324025  0  0  -0.336878  -0.612942  0  2.351265  0
O  O24  1  0.70072283  0.12555951  0.93205185  1  0  -0.692066  0  2.060103  0  0  -0.6298  0  2.340565  0  0  -0.653662  0  2.324102  0  0  -0.336892  -0.612933  0  2.351342  0
O  O25  1  0.20103697  0.56755253  0.39195682  1  0  -0.68934  0  2.008619  0  0  -0.629817  0  2.258697  0  0  -0.65124  0  2.243115  0  0  -0.335693  -0.614705  0  2.268893  0
O  O26  1  0.79896807  0.43244361  0.60804735  1  0  -0.689326  0  2.00876  0  0  -0.629786  0  2.258817  0  0  -0.651209  0  2.243237  0  0  -0.335671  -0.614671  0  2.269015  0
O  O27  1  0.56127929  0.62582142  0.23834742  1  0  -0.665393  0  1.996329  0  0  -0.612414  0  2.247478  0  0  -0.634715  0  2.232132  0  0  -0.333223  -0.596672  0  2.25754  0
O  O28  1  0.43872226  0.37417614  0.76164650  1  0  -0.665344  0  1.996385  0  0  -0.612366  0  2.247532  0  0  -0.634659  0  2.232183  0  0  -0.333202  -0.596628  0  2.257599  0
O  O29  1  0.05008011  0.31161767  0.87864247  1  0  -0.816835  0  1.897719  0  0  -0.753935  0  2.1097  0  0  -0.774395  0  2.076204  0  0  -0.567267  -0.739512  0  2.131897  0
O  O30  1  0.94992257  0.68838310  0.12135635  1  0  -0.816832  0  1.897739  0  0  -0.753901  0  2.10975  0  0  -0.774377  0  2.076221  0  0  -0.567235  -0.739464  0  2.131983  0
