# generated using pymatgen
data_NaH12C5N7O4
_symmetry_space_group_name_H-M   'P 1'
_cell_length_a   6.92518812
_cell_length_b   9.36586877
_cell_length_c   9.52339379
_cell_angle_alpha   106.98775788
_cell_angle_beta   92.10877073
_cell_angle_gamma   107.47404501
_symmetry_Int_Tables_number   1
_chemical_formula_structural   NaH12C5N7O4
_chemical_formula_sum   'Na2 H24 C10 N14 O8'
_cell_volume   558.20403907
_cell_formula_units_Z   2
loop_
 _symmetry_equiv_pos_site_id
 _symmetry_equiv_pos_as_xyz
  1  'x, y, z'
loop_
 _atom_site_type_symbol
 _atom_site_label
 _atom_site_symmetry_multiplicity
 _atom_site_fract_x
 _atom_site_fract_y
 _atom_site_fract_z
 _atom_site_occupancy
 _atom_site_hle17_bader_spin_density
 _atom_site_hle17_ddec_charge
 _atom_site_hle17_ddec_spin_density
 _atom_site_hle17_ddec_sum_bond_order
 _atom_site_hle17_magmom
 _atom_site_hse06_10hf_bader_spin_density
 _atom_site_hse06_10hf_ddec_charge
 _atom_site_hse06_10hf_ddec_spin_density
 _atom_site_hse06_10hf_ddec_sum_bond_order
 _atom_site_hse06_10hf_magmom
 _atom_site_hse06_bader_spin_density
 _atom_site_hse06_ddec_charge
 _atom_site_hse06_ddec_spin_density
 _atom_site_hse06_ddec_sum_bond_order
 _atom_site_hse06_magmom
 _atom_site_pbe_bader_spin_density
 _atom_site_pbe_cm5_charge
 _atom_site_pbe_ddec_charge
 _atom_site_pbe_ddec_spin_density
 _atom_site_pbe_ddec_sum_bond_order
 _atom_site_pbe_magmom
Na  Na0  1  0.49998243  0.99999553  0.49999892  1  0  0.886557  0  0.398419  0  0  0.84735  0  0.547485  0  0  0.857424  0  0.525133  0  0  0.684293  0.839671  0  0.564364  0
Na  Na1  1  0.99999114  0.99999186  0.50000204  1  0  0.908473  0  0.365784  0  0  0.871152  0  0.512883  0  0  0.879371  0  0.492753  0  0  0.652232  0.864704  0  0.528227  0
H  H2  1  0.21862897  0.19743136  0.34030538  1  0  0.386358  0  0.939039  0  0  0.341785  0  1.025621  0  0  0.353052  0  1.009536  0  0  0.283377  0.333948  0  1.036771  0
H  H3  1  0.78135425  0.80256064  0.65969360  1  0  0.386377  0  0.939004  0  0  0.341789  0  1.025611  0  0  0.353055  0  1.009527  0  0  0.283402  0.33395  0  1.036761  0
H  H4  1  0.16970102  0.32745710  0.46737755  1  0  0.413698  0  0.839134  0  0  0.397642  0  0.893525  0  0  0.405024  0  0.885041  0  0  0.31584  0.392211  0  0.89993  0
H  H5  1  0.83026130  0.67252379  0.53262783  1  0  0.413902  0  0.838929  0  0  0.397807  0  0.893381  0  0  0.405189  0  0.884895  0  0  0.315934  0.392377  0  0.899787  0
H  H6  1  0.32972363  0.73713644  0.58658409  1  0  0.392803  0  0.924109  0  0  0.354911  0  1.002106  0  0  0.365482  0  0.986649  0  0  0.278494  0.347077  0  1.013615  0
H  H7  1  0.67025187  0.26286788  0.41341452  1  0  0.392857  0  0.92402  0  0  0.354951  0  1.00205  0  0  0.365522  0  0.986593  0  0  0.278487  0.347119  0  1.013557  0
H  H8  1  0.50765109  0.70901178  0.49431989  1  0  0.414976  0  0.885933  0  0  0.388454  0  0.942998  0  0  0.398578  0  0.928016  0  0  0.284075  0.381046  0  0.953968  0
H  H9  1  0.49231958  0.29097721  0.50567466  1  0  0.41483  0  0.886117  0  0  0.388301  0  0.943199  0  0  0.398423  0  0.92822  0  0  0.284035  0.380894  0  0.954167  0
H  H10  1  0.22153589  0.77783758  0.35385535  1  0  0.421651  0  0.874244  0  0  0.398291  0  0.926169  0  0  0.407279  0  0.912809  0  0  0.289724  0.391379  0  0.93658  0
H  H11  1  0.77843744  0.22215068  0.64613377  1  0  0.421633  0  0.874275  0  0  0.398258  0  0.926224  0  0  0.407245  0  0.912863  0  0  0.28965  0.391347  0  0.936632  0
H  H12  1  0.20350173  0.85394994  0.22590080  1  0  0.408727  0  0.903378  0  0  0.370525  0  0.981472  0  0  0.38105  0  0.96613  0  0  0.283013  0.362588  0  0.993028  0
H  H13  1  0.79648161  0.14604250  0.77408887  1  0  0.408613  0  0.903504  0  0  0.370443  0  0.981563  0  0  0.380966  0  0.966225  0  0  0.282973  0.362504  0  0.993122  0
H  H14  1  0.29604980  0.48307874  0.00539141  1  0  0.103696  0  0.995733  0  0  0.118139  0  1.069274  0  0  0.118964  0  1.069215  0  0  0.109678  0.118341  0  1.067399  0
H  H15  1  0.70402520  0.51693760  0.99459977  1  0  0.103773  0  0.995855  0  0  0.118276  0  1.069272  0  0  0.1191  0  1.069213  0  0  0.109783  0.118476  0  1.0674  0
H  H16  1  0.13436408  0.59246149  0.08368765  1  0  0.098206  0  0.942849  0  0  0.122853  0  0.999307  0  0  0.122934  0  0.999978  0  0  0.105102  0.122035  0  0.999214  0
H  H17  1  0.86565743  0.40750946  0.91629485  1  0  0.098443  0  0.942531  0  0  0.122967  0  0.999109  0  0  0.123049  0  0.999777  0  0  0.105177  0.122151  0  0.999017  0
H  H18  1  0.40507937  0.68400876  0.11679540  1  0  0.099925  0  0.952092  0  0  0.116606  0  1.019841  0  0  0.117387  0  1.019545  0  0  0.105522  0.115743  0  1.019573  0
H  H19  1  0.59493552  0.31602844  0.88320854  1  0  0.100088  0  0.952127  0  0  0.116722  0  1.019909  0  0  0.117477  0  1.019641  0  0  0.105527  0.11587  0  1.01963  0
H  H20  1  0.23905913  0.41222035  0.77250740  1  0  0.111099  0  0.944533  0  0  0.129091  0  1.010355  0  0  0.130596  0  1.00925  0  0  0.114526  0.128293  0  1.010594  0
H  H21  1  0.76091204  0.58777946  0.22748123  1  0  0.1111  0  0.944527  0  0  0.129047  0  1.010406  0  0  0.130553  0  1.0093  0  0  0.114528  0.128248  0  1.010641  0
H  H22  1  0.41341285  0.56049813  0.71437074  1  0  0.096038  0  0.943781  0  0  0.113545  0  1.011327  0  0  0.114215  0  1.010969  0  0  0.101395  0.112614  0  1.012098  0
H  H23  1  0.58658771  0.43948446  0.28563083  1  0  0.095986  0  0.943782  0  0  0.11351  0  1.011332  0  0  0.114182  0  1.010971  0  0  0.101334  0.112576  0  1.012107  0
H  H24  1  0.14420291  0.51994149  0.67598210  1  0  0.091379  0  0.938764  0  0  0.111921  0  1.001133  0  0  0.113071  0  0.999839  0  0  0.102836  0.110972  0  1.002225  0
H  H25  1  0.85582727  0.48008909  0.32401163  1  0  0.091353  0  0.938703  0  0  0.111923  0  1.001044  0  0  0.113068  0  0.999749  0  0  0.102839  0.110974  0  1.002134  0
C  C26  1  0.26250853  0.78700027  0.90826913  1  0  0.549273  0  3.811284  0  0  0.48057  0  4.118361  0  0  0.510097  0  4.124442  0  0  0.340521  0.461588  0  4.112285  0
C  C27  1  0.73750068  0.21300515  0.09173168  1  0  0.549352  0  3.811009  0  0  0.480644  0  4.118117  0  0  0.51017  0  4.124195  0  0  0.340467  0.461664  0  4.112045  0
C  C28  1  0.24502621  0.02287922  0.04630716  1  0  0.485566  0  3.862014  0  0  0.425602  0  4.156765  0  0  0.448797  0  4.167211  0  0  0.340054  0.410396  0  4.149141  0
C  C29  1  0.75499094  0.97712372  0.95370878  1  0  0.485816  0  3.86149  0  0  0.425925  0  4.156244  0  0  0.449111  0  4.166696  0  0  0.340296  0.410726  0  4.148617  0
C  C30  1  0.26324629  0.96853323  0.78169317  1  0  0.697997  0  3.919881  0  0  0.63  0  4.231449  0  0  0.665134  0  4.225049  0  0  0.338392  0.60658  0  4.23488  0
C  C31  1  0.73675229  0.03147531  0.21829999  1  0  0.698085  0  3.919503  0  0  0.630233  0  4.230967  0  0  0.665371  0  4.224566  0  0  0.338576  0.606817  0  4.234393  0
C  C32  1  0.27628126  0.59878497  0.03431773  1  0  -0.17318  0  3.654657  0  0  -0.27754  0  3.903624  0  0  -0.273402  0  3.913297  0  0  -0.139266  -0.279235  0  3.895028  0
C  C33  1  0.72375434  0.40122139  0.96567769  1  0  -0.17371  0  3.65485  0  0  -0.278029  0  3.903888  0  0  -0.273874  0  3.913575  0  0  -0.139487  -0.279722  0  3.895267  0
C  C34  1  0.26678102  0.52783685  0.75741246  1  0  -0.162158  0  3.654874  0  0  -0.26389  0  3.901942  0  0  -0.260078  0  3.912228  0  0  -0.132626  -0.26618  0  3.894763  0
C  C35  1  0.73321888  0.47217119  0.24259319  1  0  -0.1621  0  3.654737  0  0  -0.263832  0  3.901803  0  0  -0.260013  0  3.912084  0  0  -0.132591  -0.266119  0  3.894625  0
N  N36  1  0.24794887  0.06828304  0.92176750  1  0  -0.204056  0  3.500992  0  0  -0.119447  0  3.735441  0  0  -0.139462  0  3.754966  0  0  -0.12278  -0.106917  0  3.72239  0
N  N37  1  0.75207350  0.93172265  0.07824736  1  0  -0.203979  0  3.500649  0  0  -0.119694  0  3.73547  0  0  -0.139717  0  3.754997  0  0  -0.122923  -0.107164  0  3.722414  0
N  N38  1  0.26732154  0.82568085  0.78040687  1  0  -0.623743  0  3.016719  0  0  -0.572237  0  3.297358  0  0  -0.598823  0  3.30202  0  0  -0.340807  -0.553607  0  3.293038  0
N  N39  1  0.73267949  0.17432162  0.21959488  1  0  -0.623769  0  3.0167  0  0  -0.572253  0  3.297282  0  0  -0.598835  0  3.30194  0  0  -0.340808  -0.553629  0  3.292967  0
N  N40  1  0.25455678  0.88278925  0.04535330  1  0  -0.571312  0  3.043234  0  0  -0.523467  0  3.327761  0  0  -0.547566  0  3.335611  0  0  -0.338537  -0.5072  0  3.321142  0
N  N41  1  0.74544897  0.11721435  0.95465629  1  0  -0.571473  0  3.043034  0  0  -0.523664  0  3.327588  0  0  -0.547755  0  3.335429  0  0  -0.338639  -0.507403  0  3.320976  0
N  N42  1  0.22973798  0.14419295  0.15844671  1  0  -0.371323  0  2.963523  0  0  -0.325602  0  3.246267  0  0  -0.342669  0  3.255121  0  0  -0.216767  -0.314102  0  3.240279  0
N  N43  1  0.77027701  0.85581694  0.84156724  1  0  -0.371406  0  2.963631  0  0  -0.325627  0  3.246315  0  0  -0.342693  0  3.255171  0  0  -0.216917  -0.314134  0  3.240332  0
N  N44  1  0.23617556  0.21757469  0.95801767  1  0  -0.070414  0  2.862559  0  0  -0.073773  0  3.157616  0  0  -0.071207  0  3.164934  0  0  -0.068361  -0.075483  0  3.151499  0
N  N45  1  0.76384203  0.78242508  0.04199199  1  0  -0.070377  0  2.862091  0  0  -0.073634  0  3.157168  0  0  -0.071066  0  3.164487  0  0  -0.068317  -0.075342  0  3.151051  0
N  N46  1  0.26833025  0.64236435  0.89963196  1  0  -0.130522  0  3.416471  0  0  -0.026139  0  3.652506  0  0  -0.047091  0  3.676848  0  0  -0.272092  -0.012205  0  3.634956  0
N  N47  1  0.73168269  0.35764827  0.10037023  1  0  -0.130473  0  3.416161  0  0  -0.026055  0  3.652153  0  0  -0.047007  0  3.676487  0  0  -0.272009  -0.012122  0  3.634608  0
N  N48  1  0.22553263  0.25907477  0.09902368  1  0  -0.036845  0  2.957544  0  0  -0.037751  0  3.265562  0  0  -0.031261  0  3.272034  0  0  -0.075026  -0.041779  0  3.260182  0
N  N49  1  0.77448022  0.74093296  0.90098322  1  0  -0.036833  0  2.957443  0  0  -0.037746  0  3.265413  0  0  -0.03125  0  3.271881  0  0  -0.07492  -0.041775  0  3.260037  0
O  O50  1  0.21877393  0.23771548  0.45163263  1  0  -0.847951  0  1.826414  0  0  -0.795442  0  2.001045  0  0  -0.813034  0  1.974363  0  0  -0.607645  -0.782884  0  2.020135  0
O  O51  1  0.78120372  0.76226804  0.54836451  1  0  -0.848172  0  1.826199  0  0  -0.795646  0  2.000841  0  0  -0.813236  0  1.974157  0  0  -0.60775  -0.783089  0  2.019933  0
O  O52  1  0.18705550  0.86417234  0.33142499  1  0  -0.916219  0  1.787042  0  0  -0.87572  0  1.962632  0  0  -0.891127  0  1.930625  0  0  -0.695464  -0.864852  0  1.987132  0
O  O53  1  0.81292195  0.13581980  0.66856234  1  0  -0.916106  0  1.787222  0  0  -0.875613  0  1.962749  0  0  -0.89102  0  1.930746  0  0  -0.695354  -0.864744  0  1.987245  0
O  O54  1  0.36544880  0.71091960  0.48407056  1  0  -0.872774  0  1.783081  0  0  -0.819567  0  1.931079  0  0  -0.836687  0  1.899237  0  0  -0.632627  -0.807124  0  1.955152  0
O  O55  1  0.63452297  0.28907747  0.51592770  1  0  -0.872713  0  1.783147  0  0  -0.819468  0  1.93108  0  0  -0.836586  0  1.899245  0  0  -0.632555  -0.807026  0  1.955147  0
O  O56  1  0.27206177  0.01841724  0.67346045  1  0  -0.688394  0  1.947206  0  0  -0.648568  0  2.196293  0  0  -0.667608  0  2.181803  0  0  -0.418827  -0.635395  0  2.206709  0
O  O57  1  0.72793652  0.98158111  0.32655040  1  0  -0.688629  0  1.94657  0  0  -0.648828  0  2.195621  0  0  -0.667869  0  2.181131  0  0  -0.418987  -0.635652  0  2.206031  0
