# generated using pymatgen
data_ZnH10C15N4
_symmetry_space_group_name_H-M   'P 1'
_cell_length_a   17.35839648
_cell_length_b   18.02682856
_cell_length_c   19.39869893
_cell_angle_alpha   98.13443909
_cell_angle_beta   89.98889103
_cell_angle_gamma   89.92344870
_symmetry_Int_Tables_number   1
_chemical_formula_structural   ZnH10C15N4
_chemical_formula_sum   'Zn8 H80 C120 N32'
_cell_volume   6009.10033794
_cell_formula_units_Z   8
loop_
 _symmetry_equiv_pos_site_id
 _symmetry_equiv_pos_as_xyz
  1  'x, y, z'
loop_
 _atom_site_type_symbol
 _atom_site_label
 _atom_site_symmetry_multiplicity
 _atom_site_fract_x
 _atom_site_fract_y
 _atom_site_fract_z
 _atom_site_occupancy
 _atom_site_pbe_bader_charge
 _atom_site_pbe_bader_spin_density
 _atom_site_pbe_cm5_charge
 _atom_site_pbe_ddec_charge
 _atom_site_pbe_ddec_spin_density
 _atom_site_pbe_ddec_sum_bond_order
 _atom_site_pbe_magmom
Zn  Zn0  1  0.05009527  0.02409612  0.39133560  1  1.183227  0  0.731475  0.616659  0  2.387128  0
Zn  Zn1  1  0.94990907  0.97589379  0.60865718  1  1.183124  0  0.731583  0.616692  0  2.387298  0
Zn  Zn2  1  0.44983437  0.52350909  0.89009623  1  1.180957  0  0.731478  0.618335  0  2.383627  0
Zn  Zn3  1  0.55015443  0.47651034  0.10990068  1  1.18096  0  0.731549  0.618487  0  2.383346  0
Zn  Zn4  1  0.89638639  0.07870832  0.52175657  1  1.180562  0  0.729959  0.623007  0  2.378096  0
Zn  Zn5  1  0.10361333  0.92127711  0.47824663  1  1.180573  0  0.729978  0.623002  0  2.377922  0
Zn  Zn6  1  0.39857110  0.42029559  0.97762341  1  1.182119  0  0.729312  0.622089  0  2.376376  0
Zn  Zn7  1  0.60142287  0.57970678  0.02236728  1  1.182171  0  0.729437  0.622365  0  2.376238  0
H  H8  1  0.95689259  0.89399453  0.30960982  1  0.09309  0  0.115732  0.103859  0  1.040227  0
H  H9  1  0.98168211  0.62602954  0.81378372  1  0.04256  0  0.098872  0.098913  0  1.000959  0
H  H10  1  0.69810758  0.94810341  0.89585736  1  0.048477  0  0.099509  0.100344  0  0.996454  0
H  H11  1  0.30190944  0.05190655  0.10415049  1  0.048822  0  0.099473  0.100305  0  0.996743  0
H  H12  1  0.19731858  0.54956355  0.60355984  1  0.029862  0  0.100243  0.101304  0  0.996571  0
H  H13  1  0.80267193  0.45042428  0.39644441  1  0.030265  0  0.100212  0.101244  0  0.996589  0
H  H14  1  0.51916026  0.12398513  0.31358125  1  0.069655  0  0.097961  0.09871  0  1.00018  0
H  H15  1  0.48080494  0.87606737  0.68645730  1  0.0703  0  0.098151  0.098826  0  1.000208  0
H  H16  1  0.94391487  0.81452771  0.66523808  1  0.070114  0  0.116915  0.103572  0  1.001947  0
H  H17  1  0.05606411  0.18546264  0.33475003  1  0.069671  0  0.116832  0.103522  0  1.002081  0
H  H18  1  0.19867050  0.10171274  0.33154963  1  0.066558  0  0.112731  0.102359  0  1.003356  0
H  H19  1  0.04311519  0.10597254  0.69041112  1  0.094551  0  0.115646  0.103654  0  1.04025  0
H  H20  1  0.80132346  0.89826832  0.66844681  1  0.066627  0  0.11267  0.10236  0  1.00306  0
H  H21  1  0.69880813  0.39707745  0.16714318  1  0.075857  0  0.111819  0.101536  0  1.003829  0
H  H22  1  0.30118124  0.60292652  0.83285063  1  0.076033  0  0.111836  0.101614  0  1.003698  0
H  H23  1  0.44770543  0.68321740  0.82930935  1  0.075875  0  0.116906  0.10397  0  1.000936  0
H  H24  1  0.55228107  0.31680792  0.17070422  1  0.076055  0  0.116894  0.103925  0  1.000769  0
H  H25  1  0.68914120  0.08019139  0.58435029  1  0.091747  0  0.116358  0.107812  0  0.991259  0
H  H26  1  0.31085795  0.91979166  0.41565552  1  0.091509  0  0.116324  0.107775  0  0.991142  0
H  H27  1  0.87336502  0.24009659  0.48481407  1  0.052177  0  0.115368  0.099404  0  1.012947  0
H  H28  1  0.12663875  0.75989446  0.51518964  1  0.052008  0  0.115376  0.099187  0  1.013127  0
H  H29  1  0.38125332  0.25743568  0.01058155  1  0.07941  0  0.115626  0.099832  0  1.015106  0
H  H30  1  0.87280679  0.08749441  0.77333370  1  0.049303  0  0.112851  0.100456  0  0.996373  0
H  H31  1  0.61874296  0.74256759  0.98942945  1  0.079159  0  0.115648  0.09975  0  1.015041  0
H  H32  1  0.18983955  0.41934859  0.91472907  1  0.090717  0  0.115803  0.107624  0  0.991767  0
H  H33  1  0.81016708  0.58063799  0.08526007  1  0.090387  0  0.115747  0.107597  0  0.991832  0
H  H34  1  0.22386071  0.66973116  0.31353922  1  0.016838  0  0.08705  0.06811  0  1.012772  0
H  H35  1  0.77615400  0.33027637  0.68643478  1  0.016825  0  0.087008  0.068256  0  1.012753  0
H  H36  1  0.21766879  0.25719358  0.58893888  1  0.057079  0  0.090486  0.074926  0  1.003822  0
H  H37  1  0.78234763  0.74277050  0.41105914  1  0.056633  0  0.090441  0.074704  0  1.004068  0
H  H38  1  0.72411020  0.24805726  0.91248777  1  0.043996  0  0.090298  0.075072  0  1.003468  0
H  H39  1  0.27588320  0.75195127  0.08748884  1  0.044401  0  0.090246  0.075021  0  1.003359  0
H  H40  1  0.72168042  0.83092878  0.18923773  1  0.032583  0  0.08796  0.069521  0  1.010866  0
H  H41  1  0.12719526  0.91252991  0.22666633  1  0.048894  0  0.112853  0.10046  0  0.996435  0
H  H42  1  0.27832508  0.16906734  0.81077015  1  0.032021  0  0.088027  0.069535  0  1.011036  0
H  H43  1  0.37133175  0.70408192  0.26387020  1  0.041166  0  0.090143  0.074257  0  1.005862  0
H  H44  1  0.62867202  0.29592713  0.73609911  1  0.039624  0  0.090173  0.074328  0  1.005876  0
H  H45  1  0.36814247  0.22540010  0.63491599  1  0.071021  0  0.088127  0.071087  0  1.00974  0
H  H46  1  0.63187165  0.77456573  0.36508619  1  0.071459  0  0.088057  0.071084  0  1.009621  0
H  H47  1  0.87244021  0.28036326  0.86200301  1  0.04578  0  0.088102  0.070784  0  1.010295  0
H  H48  1  0.12754973  0.71964790  0.13797986  1  0.045625  0  0.088124  0.070736  0  1.010374  0
H  H49  1  0.87130956  0.79703987  0.23449382  1  0.040125  0  0.089987  0.073943  0  1.005596  0
H  H50  1  0.12871033  0.20296042  0.76551248  1  0.039729  0  0.089911  0.073927  0  1.00552  0
H  H51  1  0.02163039  0.29902968  0.28550544  1  0.052542  0  0.097164  0.100436  0  1.009023  0
H  H52  1  0.37224861  0.41386881  0.72643268  1  0.084756  0  0.112688  0.100893  0  0.996816  0
H  H53  1  0.97836761  0.70096430  0.71449567  1  0.052572  0  0.097151  0.100457  0  1.008964  0
H  H54  1  0.72644892  0.99034512  0.78154123  1  0.032073  0  0.096215  0.096208  0  1.020223  0
H  H55  1  0.27354621  0.00965238  0.21847185  1  0.031819  0  0.096283  0.096241  0  1.019961  0
H  H56  1  0.22633481  0.50870558  0.71859953  1  0.077567  0  0.095824  0.096422  0  1.019304  0
H  H57  1  0.77365397  0.49128335  0.28140107  1  0.077459  0  0.095847  0.096424  0  1.019411  0
H  H58  1  0.52336685  0.19930130  0.21452464  1  0.042607  0  0.09778  0.100917  0  1.008269  0
H  H59  1  0.47659949  0.80072975  0.78552592  1  0.043129  0  0.097814  0.101055  0  1.00851  0
H  H60  1  0.86326684  0.35423245  0.45671136  1  0.05602  0  0.097738  0.097436  0  1.009417  0
H  H61  1  0.13672366  0.64574640  0.54328145  1  0.055965  0  0.097701  0.098389  0  1.007956  0
H  H62  1  0.56447042  0.94379681  0.61311776  1  0.08242  0  0.097759  0.099618  0  1.000785  0
H  H63  1  0.62774536  0.58613167  0.27356374  1  0.084765  0  0.11271  0.100904  0  0.996785  0
H  H64  1  0.43552298  0.05620680  0.38689896  1  0.082096  0  0.097744  0.099568  0  1.000732  0
H  H65  1  0.06527639  0.55829836  0.88744694  1  0.07393  0  0.09817  0.100059  0  1.000162  0
H  H66  1  0.93472105  0.44170920  0.11257030  1  0.074168  0  0.09812  0.099956  0  1.000118  0
H  H67  1  0.36310196  0.14802277  0.04446593  1  0.059187  0  0.097629  0.097877  0  1.010406  0
H  H68  1  0.63692889  0.85198409  0.95554348  1  0.058603  0  0.0978  0.098262  0  1.01027  0
H  H69  1  0.13942828  0.76357949  0.38290576  1  0.078808  0  0.106844  0.091126  0  1.02913  0
H  H70  1  0.86059276  0.23641084  0.61706826  1  0.078207  0  0.106919  0.09125  0  1.028861  0
H  H71  1  0.20889118  0.06498316  0.52380559  1  0.110651  0  0.118636  0.114119  0  1.030584  0
H  H72  1  0.79110567  0.93501306  0.47620281  1  0.110442  0  0.118607  0.11392  0  1.030624  0
H  H73  1  0.71292729  0.44250662  0.97292605  1  0.106286  0  0.118594  0.113712  0  1.030254  0
H  H74  1  0.45771823  0.60959479  0.18809759  1  0.112752  0  0.115148  0.103776  0  1.043141  0
H  H75  1  0.28707072  0.55749138  0.02705787  1  0.106013  0  0.118542  0.11354  0  1.030293  0
H  H76  1  0.64072114  0.73632241  0.11853950  1  0.063795  0  0.10841  0.093046  0  1.027182  0
H  H77  1  0.35931374  0.26367556  0.88146628  1  0.063791  0  0.108508  0.093197  0  1.026944  0
H  H78  1  0.68961835  0.16448297  0.78068210  1  0.061768  0  0.090387  0.077565  0  1.009135  0
H  H79  1  0.31038311  0.83552666  0.21929815  1  0.062177  0  0.090543  0.077755  0  1.009131  0
H  H80  1  0.68872169  0.90911692  0.32292638  1  0.056727  0  0.089995  0.074213  0  1.005081  0
H  H81  1  0.31129128  0.09084822  0.67708935  1  0.056643  0  0.090063  0.074359  0  1.005281  0
H  H82  1  0.18853893  0.58763206  0.18213603  1  0.031052  0  0.09006  0.073672  0  1.005863  0
H  H83  1  0.81145620  0.41237687  0.81784683  1  0.030985  0  0.09004  0.073496  0  1.005946  0
H  H84  1  0.18566138  0.33684763  0.72289626  1  0.077339  0  0.090942  0.078605  0  1.009622  0
H  H85  1  0.54228266  0.39044003  0.81188419  1  0.112485  0  0.115066  0.103579  0  1.043484  0
H  H86  1  0.81435621  0.66313997  0.27709599  1  0.076944  0  0.090906  0.078455  0  1.009719  0
H  H87  1  0.01831763  0.37398609  0.18622830  1  0.042139  0  0.09896  0.099099  0  1.000749  0
C  C88  1  0.92437167  0.91364013  0.35626063  1  0.410149  0  0.002139  -0.045564  0  3.98898  0
C  C89  1  0.68305550  0.29258278  0.76416915  1  -0.042556  0  -0.08444  -0.087149  0  3.66182  0
C  C90  1  0.76815411  0.76170450  0.36136582  1  -0.048788  0  -0.084418  -0.086699  0  3.65815  0
C  C91  1  0.73636244  0.26554277  0.86178520  1  -0.045456  0  -0.083852  -0.088391  0  3.658506  0
C  C92  1  0.26363096  0.73447290  0.13819817  1  -0.045585  0  -0.083921  -0.088494  0  3.658762  0
C  C93  1  0.73517228  0.81095709  0.23864333  1  -0.039194  0  -0.086836  -0.089434  0  3.672832  0
C  C94  1  0.26484243  0.18903077  0.76136508  1  -0.039023  0  -0.086915  -0.089119  0  3.673167  0
C  C95  1  0.71626127  0.22008754  0.78922774  1  -0.054742  0  -0.083008  -0.083717  0  3.645834  0
C  C96  1  0.28373674  0.77992613  0.21074990  1  -0.05411  0  -0.083084  -0.083958  0  3.646284  0
C  C97  1  0.71617598  0.85394508  0.31248542  1  -0.04938  0  -0.083066  -0.086065  0  3.659582  0
C  C98  1  0.28384160  0.14602528  0.68752457  1  -0.049738  0  -0.083119  -0.086515  0  3.65935  0
C  C99  1  0.21518355  0.64321091  0.19056868  1  -0.022409  0  -0.084804  -0.087388  0  3.661754  0
C  C100  1  0.31459951  0.21993095  0.66368657  1  -0.074287  0  -0.08785  -0.093061  0  3.66597  0
C  C101  1  0.78481158  0.35679429  0.80941158  1  -0.0242  0  -0.084599  -0.086776  0  3.661708  0
C  C102  1  0.21307531  0.28162637  0.71242935  1  -0.069867  0  -0.082905  -0.085267  0  3.644146  0
C  C103  1  0.78694284  0.71835814  0.28756812  1  -0.069893  0  -0.082782  -0.084949  0  3.644616  0
C  C104  1  0.79849188  0.23845497  0.76048844  1  0.045075  0  -0.003103  0.081815  0  3.702472  0
C  C105  1  0.20150498  0.76155316  0.23949286  1  0.044209  0  -0.003031  0.082226  0  3.702297  0
C  C106  1  0.80002485  0.83634994  0.33769022  1  0.043065  0  -0.001118  0.087476  0  3.693291  0
C  C107  1  0.19998870  0.16362587  0.66231195  1  0.043585  0  -0.001165  0.08751  0  3.693132  0
C  C108  1  0.29783236  0.66119016  0.16296310  1  0.046848  0  -0.000104  0.088648  0  3.694531  0
C  C109  1  0.70215354  0.33881552  0.83701300  1  0.047298  0  -0.00034  0.088264  0  3.69502  0
C  C110  1  0.29654959  0.26347121  0.73871281  1  0.046111  0  -0.00306  0.081867  0  3.704146  0
C  C111  1  0.68541691  0.78004550  0.33632342  1  -0.075651  0  -0.087867  -0.093426  0  3.666652  0
C  C112  1  0.70347029  0.73651133  0.26129351  1  0.046313  0  -0.002954  0.082122  0  3.704001  0
C  C113  1  0.81790035  0.28425097  0.83431144  1  -0.04982  0  -0.08658  -0.090852  0  3.666184  0
C  C114  1  0.18209190  0.71576319  0.16566933  1  -0.049627  0  -0.086605  -0.09074  0  3.666051  0
C  C115  1  0.81788796  0.79222634  0.26360766  1  -0.036553  0  -0.084159  -0.085978  0  3.660003  0
C  C116  1  0.18212732  0.20775430  0.73639346  1  -0.036154  0  -0.083874  -0.085831  0  3.659332  0
C  C117  1  0.94354671  0.31550561  0.37284294  1  -0.024953  0  -0.011276  0.08685  0  4.062917  0
C  C118  1  0.05644207  0.68448045  0.62714985  1  -0.025506  0  -0.011155  0.086852  0  4.062983  0
C  C119  1  0.65389321  0.96783052  0.69146644  1  0.031735  0  -0.012818  0.08882  0  4.049826  0
C  C120  1  0.07562574  0.08633842  0.64375197  1  0.407855  0  0.002188  -0.045252  0  3.988758  0
C  C121  1  0.34610883  0.03217084  0.30854299  1  0.031971  0  -0.012814  0.088818  0  4.049894  0
C  C122  1  0.15417666  0.53282270  0.80878202  1  0.069265  0  -0.013265  0.088555  0  4.048576  0
C  C123  1  0.84581386  0.46718169  0.19122533  1  0.068392  0  -0.013348  0.088658  0  4.04853  0
C  C124  1  0.44450789  0.18469637  0.12777565  1  0.08413  0  -0.012728  0.085196  0  4.063293  0
C  C125  1  0.55547459  0.81534097  0.87226186  1  0.084358  0  -0.012553  0.085852  0  4.063194  0
C  C126  1  0.14950732  0.58297476  0.62781397  1  0.020496  0  -0.098136  -0.137652  0  4.029571  0
C  C127  1  0.85048377  0.41701512  0.37219288  1  0.020811  0  -0.097989  -0.137304  0  4.029024  0
C  C128  1  0.46536337  0.09883558  0.29257705  1  -0.106154  0  -0.098307  -0.141005  0  4.016937  0
C  C129  1  0.53462370  0.90118794  0.70745007  1  -0.106635  0  -0.098508  -0.141331  0  4.017372  0
C  C130  1  0.96473115  0.39977195  0.20724827  1  -0.05539  0  -0.097908  -0.139807  0  4.016651  0
C  C131  1  0.87693431  0.11515621  0.72714736  1  0.427317  0  0.002558  -0.049955  0  3.996671  0
C  C132  1  0.03525533  0.60023014  0.79275857  1  -0.056364  0  -0.097717  -0.139338  0  4.016409  0
C  C133  1  0.64971383  0.91563689  0.87169885  1  -0.047554  0  -0.095549  -0.134817  0  4.026746  0
C  C134  1  0.35028246  0.08438691  0.12831941  1  -0.048185  0  -0.095432  -0.134781  0  4.027309  0
C  C135  1  0.11580162  0.63701998  0.59451233  1  -0.097247  0  -0.097995  -0.138606  0  4.016902  0
C  C136  1  0.88419350  0.36296664  0.40548775  1  -0.09767  0  -0.097981  -0.138005  0  4.017423  0
C  C137  1  0.41899488  0.06055095  0.33332687  1  -0.028467  0  -0.094795  -0.135377  0  4.016228  0
C  C138  1  0.58099909  0.93944892  0.66668361  1  -0.028718  0  -0.094818  -0.135468  0  4.016181  0
C  C139  1  0.91841169  0.43795677  0.16630257  1  -0.082006  0  -0.095332  -0.13598  0  4.015759  0
C  C140  1  0.08157364  0.56204565  0.83371000  1  -0.082552  0  -0.095587  -0.136343  0  4.015445  0
C  C141  1  0.61555834  0.86173150  0.90476516  1  -0.11644  0  -0.098616  -0.138972  0  4.017725  0
C  C142  1  0.12306370  0.88485512  0.27284747  1  0.427575  0  0.002665  -0.049823  0  3.996627  0
C  C143  1  0.38444486  0.13829103  0.09525935  1  -0.117158  0  -0.098432  -0.138295  0  4.017869  0
C  C144  1  0.02547492  0.66732179  0.68910963  1  -0.057411  0  -0.096049  -0.192965  0  3.943242  0
C  C145  1  0.97451963  0.33267179  0.31088524  1  -0.057039  0  -0.096042  -0.192848  0  3.943312  0
C  C146  1  0.32785828  0.03407301  0.23906381  1  -0.085902  0  -0.095763  -0.196933  0  3.966844  0
C  C147  1  0.67213973  0.96593027  0.76095084  1  -0.087016  0  -0.095779  -0.196974  0  3.967245  0
C  C148  1  0.82779709  0.46623596  0.26088525  1  -0.135703  0  -0.095816  -0.195947  0  3.967685  0
C  C149  1  0.17219112  0.53375995  0.73912108  1  -0.135172  0  -0.095719  -0.195781  0  3.967965  0
C  C150  1  0.52443925  0.83335835  0.81063036  1  -0.115498  0  -0.095013  -0.192603  0  3.9416  0
C  C151  1  0.47552882  0.16667252  0.18941186  1  -0.117067  0  -0.094709  -0.191732  0  3.94116  0
C  C152  1  0.05929803  0.61231083  0.72507990  1  -0.028597  0  -0.011582  0.079834  0  4.016614  0
C  C153  1  0.37623682  0.38577841  0.77235910  1  0.373406  0  0.00333  -0.051349  0  3.996011  0
C  C154  1  0.94069422  0.38769103  0.27492901  1  -0.029504  0  -0.011546  0.079901  0  4.016526  0
C  C155  1  0.37368499  0.07356356  0.19633587  1  0.057469  0  -0.012841  0.080758  0  4.020862  0
C  C156  1  0.62630554  0.92645424  0.80368292  1  0.057893  0  -0.012561  0.080998  0  4.020559  0
C  C157  1  0.87353897  0.42681339  0.30382011  1  0.052821  0  -0.011588  0.078764  0  4.024196  0
C  C158  1  0.12644924  0.57318063  0.69618830  1  0.053195  0  -0.01148  0.078867  0  4.024513  0
C  C159  1  0.55871066  0.88826754  0.77487493  1  -0.027633  0  -0.012061  0.079086  0  4.015543  0
C  C160  1  0.44126950  0.11175560  0.22515324  1  -0.025607  0  -0.012108  0.078562  0  4.015861  0
C  C161  1  0.98743942  0.81239084  0.62477295  1  0.459862  0  0.007143  -0.051556  0  3.983088  0
C  C162  1  0.01253669  0.18759642  0.37520943  1  0.461177  0  0.007202  -0.051518  0  3.983561  0
C  C163  1  0.21432445  0.05527783  0.35888699  1  0.406855  0  -0.002413  -0.067706  0  4.020877  0
C  C164  1  0.62376868  0.61421895  0.22763523  1  0.371763  0  0.003331  -0.051287  0  3.995966  0
C  C165  1  0.78567240  0.94471419  0.64111933  1  0.406484  0  -0.002484  -0.067824  0  4.020617  0
C  C166  1  0.71427553  0.44400648  0.14042417  1  0.383918  0  -0.002988  -0.068192  0  4.02257  0
C  C167  1  0.28572075  0.55599868  0.85957380  1  0.383762  0  -0.003081  -0.068398  0  4.02258  0
C  C168  1  0.48828534  0.68650723  0.87224634  1  0.416737  0  0.009292  -0.050916  0  3.979837  0
C  C169  1  0.51169885  0.31351770  0.12776827  1  0.41615  0  0.009046  -0.05106  0  3.980392  0
C  C170  1  0.72764955  0.03700788  0.59797766  1  0.382862  0  0.006581  -0.049841  0  3.986342  0
C  C171  1  0.27235305  0.96298222  0.40202710  1  0.382876  0  0.006576  -0.049735  0  3.98608  0
C  C172  1  0.91986994  0.21544918  0.45174495  1  0.43544  0  0.008  -0.051337  0  3.988152  0
C  C173  1  0.08013670  0.78453679  0.54825825  1  0.435307  0  0.008039  -0.050923  0  3.987988  0
C  C174  1  0.42482463  0.28324147  0.04629387  1  0.390551  0  0.008334  -0.051936  0  3.991014  0
C  C175  1  0.42435000  0.58750840  0.14269703  1  0.406885  0  0.001539  -0.047479  0  3.990044  0
C  C176  1  0.57517223  0.71676901  0.95371347  1  0.390127  0  0.008437  -0.051516  0  3.990969  0
C  C177  1  0.22814455  0.46287092  0.90161445  1  0.381134  0  0.005154  -0.053585  0  3.989661  0
C  C178  1  0.77185460  0.53712939  0.09838092  1  0.381332  0  0.005241  -0.053413  0  3.98965  0
C  C179  1  0.12918097  0.80863882  0.35226065  1  0.373327  0  -0.007522  -0.071445  0  4.032629  0
C  C180  1  0.87081933  0.19135640  0.64772691  1  0.37362  0  -0.007696  -0.071753  0  4.032685  0
C  C181  1  0.15996774  0.06572910  0.55839097  1  0.384708  0  0.000235  -0.049179  0  3.970649  0
C  C182  1  0.84003199  0.93425982  0.44161692  1  0.385262  0  0.000163  -0.048991  0  3.970457  0
C  C183  1  0.66268459  0.43882483  0.93966644  1  0.405404  0  0.002255  -0.046673  0  3.966636  0
C  C184  1  0.33731226  0.56116945  0.06032217  1  0.405325  0  0.002363  -0.046042  0  3.966814  0
C  C185  1  0.63016911  0.69107049  0.14884737  1  0.351119  0  -0.009656  -0.074665  0  4.033723  0
C  C186  1  0.57565377  0.41250678  0.85728686  1  0.406866  0  0.001819  -0.047267  0  3.990106  0
C  C187  1  0.36985942  0.30892081  0.85114747  1  0.351554  0  -0.00968  -0.074657  0  4.033384  0
C  C188  1  0.85188131  0.89114005  0.37672027  1  0.001414  0  -0.037524  -0.03959  0  4.088084  0
C  C189  1  0.14811496  0.10884635  0.62328918  1  0.001979  0  -0.037546  -0.039581  0  4.08819  0
C  C190  1  0.84722155  0.18537429  0.71570535  1  0.004946  0  -0.042843  -0.049576  0  4.096014  0
C  C191  1  0.15278164  0.81463448  0.28428376  1  0.004528  0  -0.043034  -0.050011  0  4.096205  0
C  C192  1  0.34588926  0.31579786  0.78346726  1  0.045143  0  -0.040227  -0.044426  0  4.093105  0
C  C193  1  0.65413063  0.68419370  0.21652915  1  0.045558  0  -0.040291  -0.044715  0  4.093343  0
C  C194  1  0.35006590  0.60667954  0.12386484  1  -0.024408  0  -0.038598  -0.040232  0  4.089795  0
C  C195  1  0.64993326  0.39332629  0.87611594  1  -0.022968  0  -0.038585  -0.039653  0  4.089181  0
C  C196  1  0.03836150  0.75400720  0.59962710  1  -0.023495  0  -0.037944  -0.042045  0  4.085099  0
C  C197  1  0.31694596  0.70743626  0.23580380  1  -0.045373  0  -0.084431  -0.086957  0  3.661376  0
C  C198  1  0.96162786  0.24598132  0.40036725  1  -0.024182  0  -0.038026  -0.041986  0  4.08555  0
C  C199  1  0.28376794  0.01500758  0.35517442  1  0.029336  0  -0.041531  -0.049899  0  4.088059  0
C  C200  1  0.71623582  0.98498800  0.64483710  1  0.029534  0  -0.041587  -0.049833  0  4.088184  0
C  C201  1  0.78348235  0.48447069  0.14460725  1  0.037338  0  -0.040875  -0.047835  0  4.088075  0
C  C202  1  0.21651163  0.51553710  0.85539696  1  0.036992  0  -0.040908  -0.047736  0  4.088003  0
C  C203  1  0.53660016  0.74601911  0.89975637  1  0.036976  0  -0.038859  -0.043139  0  4.085514  0
C  C204  1  0.46338403  0.25400545  0.10027022  1  0.037601  0  -0.038681  -0.042787  0  4.085219  0
C  C205  1  0.23543149  0.68839266  0.26319991  1  -0.031738  0  -0.085328  -0.086743  0  3.673016  0
C  C206  1  0.76456651  0.31161372  0.73677723  1  -0.032438  0  -0.085376  -0.086986  0  3.673352  0
C  C207  1  0.23186519  0.23826314  0.63863375  1  -0.050036  0  -0.084647  -0.087299  0  3.658028  0
N  N208  1  0.95376215  0.96637663  0.40567203  1  -0.797043  0  -0.28536  -0.195585  0  3.633705  0
N  N209  1  0.00083756  0.12743238  0.40805686  1  -0.788437  0  -0.265972  -0.162659  0  3.539336  0
N  N210  1  0.16587318  0.02933287  0.40403735  1  -0.818799  0  -0.290693  -0.200293  0  3.630684  0
N  N211  1  0.83413461  0.97066088  0.59597678  1  -0.819148  0  -0.290526  -0.200122  0  3.630345  0
N  N212  1  0.66574847  0.47045592  0.09550642  1  -0.823644  0  -0.292009  -0.204608  0  3.632237  0
N  N213  1  0.33425184  0.52954684  0.90448687  1  -0.823802  0  -0.291786  -0.204272  0  3.632562  0
N  N214  1  0.49865437  0.62688650  0.90614183  1  -0.782937  0  -0.26712  -0.161291  0  3.536295  0
N  N215  1  0.50134134  0.37312738  0.09386238  1  -0.782668  0  -0.266967  -0.161245  0  3.536711  0
N  N216  1  0.79868041  0.02851015  0.56974475  1  -0.769315  0  -0.264418  -0.192979  0  3.494369  0
N  N217  1  0.20132969  0.97148446  0.43026781  1  -0.770078  0  -0.264409  -0.193024  0  3.494227  0
N  N218  1  0.94274560  0.14487497  0.45576788  1  -0.791606  0  -0.26846  -0.162079  0  3.533803  0
N  N219  1  0.04624391  0.03359723  0.59433900  1  -0.796673  0  -0.28534  -0.195581  0  3.633227  0
N  N220  1  0.05726738  0.85511424  0.54423844  1  -0.790743  0  -0.268489  -0.162267  0  3.533572  0
N  N221  1  0.44691315  0.35414711  0.04299839  1  -0.79128  0  -0.269092  -0.163946  0  3.53229  0
N  N222  1  0.55308947  0.64586295  0.95699905  1  -0.790838  0  -0.269205  -0.164237  0  3.532485  0
N  N223  1  0.29906997  0.47120388  0.92998175  1  -0.761461  0  -0.262899  -0.193537  0  3.489394  0
N  N224  1  0.70093091  0.52879618  0.07000842  1  -0.761579  0  -0.262915  -0.193691  0  3.489436  0
N  N225  1  0.08874073  0.87035818  0.37904749  1  -0.80405  0  -0.295279  -0.210901  0  3.602974  0
N  N226  1  0.91126072  0.12963832  0.62094841  1  -0.803768  0  -0.295323  -0.210952  0  3.603296  0
N  N227  1  0.09845624  0.02045385  0.54137126  1  -0.803425  0  -0.282082  -0.202122  0  3.611869  0
N  N228  1  0.90155098  0.97952873  0.45863871  1  -0.80382  0  -0.282004  -0.202103  0  3.61221  0
N  N229  1  0.59992376  0.48220875  0.95740276  1  -0.805882  0  -0.282585  -0.198237  0  3.619671  0
N  N230  1  0.91487651  0.08255867  0.67040067  1  -0.772262  0  -0.264937  -0.192467  0  3.516991  0
N  N231  1  0.40008519  0.51780230  0.04257957  1  -0.806194  0  -0.282352  -0.198172  0  3.619783  0
N  N232  1  0.58897124  0.63007957  0.12187848  1  -0.799711  0  -0.293572  -0.208234  0  3.599759  0
N  N233  1  0.41104981  0.36991926  0.87811115  1  -0.800159  0  -0.293593  -0.208504  0  3.60005  0
N  N234  1  0.08512495  0.91744403  0.32959939  1  -0.771901  0  -0.264999  -0.192517  0  3.517177  0
N  N235  1  0.41484513  0.41744653  0.82902363  1  -0.776378  0  -0.265544  -0.19052  0  3.514941  0
N  N236  1  0.58516037  0.58255424  0.17096757  1  -0.775147  0  -0.265565  -0.190585  0  3.514734  0
N  N237  1  0.45402770  0.53432433  0.09362395  1  -0.797516  0  -0.285495  -0.198902  0  3.628255  0
N  N238  1  0.54598472  0.46570255  0.90635315  1  -0.798175  0  -0.285423  -0.198837  0  3.627926  0
N  N239  1  0.99915698  0.87255223  0.59193021  1  -0.78879  0  -0.26616  -0.162739  0  3.539275  0
