# generated using pymatgen
data_Cu2H9C14N5O
_symmetry_space_group_name_H-M   'P 1'
_cell_length_a   7.24094508
_cell_length_b   20.34768102
_cell_length_c   21.52904612
_cell_angle_alpha   90.00053502
_cell_angle_beta   90.00069044
_cell_angle_gamma   89.99983939
_symmetry_Int_Tables_number   1
_chemical_formula_structural   Cu2H9C14N5O
_chemical_formula_sum   'Cu16 H72 C112 N40 O8'
_cell_volume   3172.01302874
_cell_formula_units_Z   8
loop_
 _symmetry_equiv_pos_site_id
 _symmetry_equiv_pos_as_xyz
  1  'x, y, z'
loop_
 _atom_site_type_symbol
 _atom_site_label
 _atom_site_symmetry_multiplicity
 _atom_site_fract_x
 _atom_site_fract_y
 _atom_site_fract_z
 _atom_site_occupancy
 _atom_site_pbe_bader_charge
 _atom_site_pbe_bader_spin_density
 _atom_site_pbe_cm5_charge
 _atom_site_pbe_ddec_charge
 _atom_site_pbe_ddec_spin_density
 _atom_site_pbe_ddec_sum_bond_order
 _atom_site_pbe_magmom
Cu  Cu0  1  0.41881475  0.32677961  0.41307958  1  0.74429  -0.277806  0.551811  0.484314  -0.40328  2.705707  -0.272
Cu  Cu1  1  0.58124761  0.32680052  0.08692611  1  0.744267  0.280075  0.551972  0.48448  0.351239  2.70573  0.274
Cu  Cu2  1  0.41873010  0.17316198  0.58698814  1  0.743818  -0.277915  0.552239  0.484433  -0.403468  2.705373  -0.272
Cu  Cu3  1  0.58129073  0.17316448  0.91302149  1  0.743765  0.280099  0.5521  0.4844  0.351286  2.705023  0.274
Cu  Cu4  1  0.58125249  0.67321003  0.58694701  1  0.744033  0.280309  0.551844  0.484109  0.351588  2.706021  0.275
Cu  Cu5  1  0.41872848  0.67319747  0.91307168  1  0.743498  0.280335  0.551769  0.484085  0.351633  2.705491  0.275
Cu  Cu6  1  0.58126256  0.82683405  0.41305332  1  0.743713  0.28044  0.551987  0.484358  0.351771  2.705395  0.275
Cu  Cu7  1  0.41873094  0.82684088  0.08697398  1  0.743634  0.280475  0.552084  0.484391  0.351827  2.705272  0.275
Cu  Cu8  1  0.50001083  0.49999728  0.49999193  1  0.993383  0.530669  0.744258  0.646322  0.71786  2.368833  0.531
Cu  Cu9  1  0.49997282  0.50000415  0.00000229  1  0.993179  0.530536  0.744101  0.645996  0.71767  2.368703  0.531
Cu  Cu10  1  0.49994257  0.99999234  0.49997138  1  0.99315  0.530667  0.744205  0.646289  0.717842  2.368822  0.531
Cu  Cu11  1  0.50003141  0.00000516  0.00000983  1  0.993045  0.530531  0.744116  0.646092  0.717663  2.36866  0.531
Cu  Cu12  1  0.99999089  0.82377372  0.25001255  1  0.672587  0.016148  0.445316  0.177757  0.017948  3.104033  0.015
Cu  Cu13  1  0.00002052  0.67625570  0.75001671  1  0.672562  0.016157  0.445207  0.17734  0.017961  3.104266  0.015
Cu  Cu14  1  0.99997207  0.17622475  0.75000630  1  0.672632  0.000269  0.445047  0.177132  -7.5e-05  3.104637  0.0
Cu  Cu15  1  0.00000875  0.32375852  0.25001065  1  0.672395  0.000253  0.445048  0.177424  -9.6e-05  3.10373  0.0
H  H16  1  0.77603439  0.28991160  0.46485066  1  0.080978  -0.003811  0.113307  0.087111  -0.002777  1.005746  0.0
H  H17  1  0.07844192  0.34640007  0.48683887  1  0.143653  -0.000574  0.106504  0.123548  -0.000257  1.027046  -0.001
H  H18  1  0.88568748  0.50828390  0.37473824  1  0.083342  -0.000393  0.115545  0.126819  -0.00017  0.98814  0.0
H  H19  1  0.59426133  0.44333305  0.35495943  1  0.099112  -0.00172  0.120496  0.101882  -0.001001  0.982146  -0.001
H  H20  1  0.54779438  0.62814668  0.43634137  1  0.160859  0.003161  0.122444  0.110216  0.001415  1.005474  0.002
H  H21  1  0.56119271  0.70546317  0.35036162  1  0.042667  0.000305  0.104976  0.109121  0.000149  1.02708  0.0
H  H22  1  0.39409146  0.78699850  0.28442189  1  0.094171  0.000297  0.112397  0.087495  0.000128  1.021703  0.0
H  H23  1  0.88558100  0.71179731  0.33498494  1  0.050796  6.9e-05  0.11228  0.080879  3.4e-05  1.006506  0.0
H  H24  1  0.02991798  0.62427703  0.40040421  1  0.124831  0.000269  0.109602  0.120431  0.000201  1.030306  0.0
H  H25  1  0.22404345  0.28992106  0.03515285  1  0.080821  0.003788  0.113259  0.087092  0.002365  1.005906  0.0
H  H26  1  0.92162028  0.34637569  0.01317257  1  0.144224  0.001189  0.106358  0.123483  0.000744  1.027303  0.001
H  H27  1  0.11430163  0.50828600  0.12525791  1  0.083105  0.000868  0.115536  0.126835  0.000522  0.988059  0.0
H  H28  1  0.40574348  0.44336013  0.14503103  1  0.099357  0.00206  0.120474  0.101825  0.001037  0.982187  0.001
H  H29  1  0.45221036  0.62814489  0.06365491  1  0.160783  0.003162  0.122418  0.110192  0.001411  1.005465  0.002
H  H30  1  0.43880589  0.70545978  0.14963488  1  0.042638  0.000305  0.104953  0.109161  0.00015  1.027129  0.0
H  H31  1  0.60589683  0.78699364  0.21557812  1  0.093222  0.000298  0.112352  0.087491  0.000129  1.021696  0.0
H  H32  1  0.11441341  0.71179342  0.16501951  1  0.050913  7e-05  0.112252  0.080749  3.6e-05  1.006541  0.0
H  H33  1  0.97008265  0.62427508  0.09959482  1  0.124762  0.000288  0.109583  0.120435  0.000217  1.0303  0.0
H  H34  1  0.77587715  0.21006206  0.53511724  1  0.080492  -0.003831  0.11326  0.087068  -0.002784  1.006079  0.0
H  H35  1  0.07830920  0.15360230  0.51312204  1  0.14373  -0.000577  0.106481  0.123479  -0.00026  1.027177  -0.001
H  H36  1  0.88573842  0.99172057  0.62525310  1  0.083391  -0.000393  0.115493  0.126704  -0.00017  0.988145  0.0
H  H37  1  0.59428190  0.05665209  0.64505093  1  0.099398  -0.001723  0.120552  0.101966  -0.001003  0.982158  -0.001
H  H38  1  0.54778605  0.87186402  0.56364024  1  0.160916  0.003161  0.122411  0.110123  0.001416  1.005507  0.002
H  H39  1  0.56118118  0.79455145  0.64964049  1  0.042773  0.000304  0.104952  0.109155  0.000149  1.027116  0.0
H  H40  1  0.39407053  0.71302906  0.71558047  1  0.09375  0.000297  0.112334  0.087493  0.000127  1.021768  0.0
H  H41  1  0.88557284  0.78822091  0.66500268  1  0.050629  6.9e-05  0.112294  0.08064  3.4e-05  1.006492  0.0
H  H42  1  0.02991091  0.87572878  0.59956882  1  0.124281  0.000269  0.109642  0.120477  0.0002  1.03046  0.0
H  H43  1  0.22416548  0.21006544  0.96487320  1  0.080622  0.003805  0.113272  0.087016  0.00237  1.006083  0.0
H  H44  1  0.92172836  0.15363272  0.98686094  1  0.143727  0.001191  0.106409  0.123453  0.000746  1.027265  0.001
H  H45  1  0.11424142  0.99172611  0.87474518  1  0.083412  0.000868  0.115599  0.126772  0.000522  0.98818  0.0
H  H46  1  0.40571637  0.05663454  0.85495488  1  0.099364  0.002061  0.120531  0.101978  0.001037  0.98221  0.001
H  H47  1  0.45220441  0.87187229  0.93634583  1  0.161237  0.003162  0.122427  0.110218  0.001413  1.005311  0.002
H  H48  1  0.43882784  0.79454857  0.85036534  1  0.042804  0.000306  0.104936  0.109167  0.00015  1.02722  0.0
H  H49  1  0.60593500  0.71301700  0.78443300  1  0.094787  0.000297  0.112364  0.087427  0.000129  1.021917  0.0
H  H50  1  0.11443071  0.78820788  0.83500820  1  0.050577  7e-05  0.112283  0.080696  3.6e-05  1.006511  0.0
H  H51  1  0.97009747  0.87572783  0.90042983  1  0.12414  0.000288  0.10962  0.120407  0.000216  1.030563  0.0
H  H52  1  0.22409776  0.71006870  0.53512019  1  0.080483  0.003791  0.113266  0.087068  0.002362  1.005998  0.0
H  H53  1  0.92167780  0.65361857  0.51312548  1  0.143347  0.001196  0.106406  0.123458  0.000751  1.027209  0.001
H  H54  1  0.11424442  0.49172147  0.62524887  1  0.0835  0.000868  0.115518  0.126703  0.000525  0.988181  0.0
H  H55  1  0.40569266  0.55664528  0.64504161  1  0.099382  0.002069  0.120543  0.101978  0.001048  0.981953  0.001
H  H56  1  0.45219552  0.37186065  0.56364945  1  0.160996  0.003151  0.122393  0.110139  0.001662  1.005465  0.002
H  H57  1  0.43881100  0.29454515  0.64962595  1  0.042638  -5.5e-05  0.104951  0.109214  -3.2e-05  1.026983  0.0
H  H58  1  0.60590120  0.21301669  0.71557218  1  0.093539  0.00028  0.112292  0.087412  0.000177  1.021791  0.0
H  H59  1  0.11441443  0.28820314  0.66500217  1  0.05068  8.5e-05  0.112263  0.080725  4.3e-05  1.006603  0.0
H  H60  1  0.97009264  0.37571949  0.59957964  1  0.124371  0.00026  0.109602  0.120436  0.000226  1.030509  0.0
H  H61  1  0.77587050  0.71007448  0.96487699  1  0.080402  0.003789  0.113225  0.086994  0.00236  1.005976  0.0
H  H62  1  0.07830057  0.65362771  0.98686563  1  0.143645  0.001194  0.106414  0.123475  0.00075  1.027277  0.001
H  H63  1  0.88573523  0.49172674  0.87474731  1  0.083467  0.000867  0.115527  0.126709  0.000522  0.988117  0.0
H  H64  1  0.59427266  0.55664720  0.85495886  1  0.099422  0.00207  0.120524  0.101993  0.001046  0.982015  0.001
H  H65  1  0.54780026  0.37187276  0.93633963  1  0.161267  0.003164  0.122433  0.110185  0.001412  1.005259  0.002
H  H66  1  0.56117987  0.29454362  0.85036663  1  0.042726  0.000286  0.104935  0.109151  0.000142  1.0272  0.0
H  H67  1  0.39407926  0.21301124  0.78442804  1  0.094553  0.000209  0.112307  0.087396  0.000107  1.021759  0.0
H  H68  1  0.88557373  0.28820310  0.83500568  1  0.050548  1.3e-05  0.112276  0.080684  8e-06  1.006588  0.0
H  H69  1  0.02991140  0.37572832  0.90041598  1  0.12436  0.000264  0.109611  0.120455  0.000203  1.030555  0.0
H  H70  1  0.22408789  0.78992217  0.46482807  1  0.081081  0.003783  0.113287  0.086987  0.002362  1.005971  0.0
H  H71  1  0.92164342  0.84635539  0.48680794  1  0.144432  0.001195  0.106294  0.123469  0.000752  1.027498  0.001
H  H72  1  0.11425562  0.00828382  0.37473772  1  0.083148  0.000869  0.115533  0.126853  0.000525  0.988196  0.0
H  H73  1  0.40571629  0.94336949  0.35495012  1  0.099434  0.00207  0.120445  0.101747  0.001048  0.982264  0.001
H  H74  1  0.45221076  0.12813643  0.43634826  1  0.161273  0.003149  0.122445  0.110262  0.001661  1.005364  0.002
H  H75  1  0.43882530  0.20545686  0.35036892  1  0.042742  -5.4e-05  0.10496  0.1092  -3.2e-05  1.027148  0.0
H  H76  1  0.60592766  0.28698368  0.28442847  1  0.094648  0.00028  0.11237  0.08755  0.000177  1.021771  0.0
H  H77  1  0.11442949  0.21178445  0.33498628  1  0.050694  8.5e-05  0.112296  0.080732  4.3e-05  1.00649  0.0
H  H78  1  0.97010661  0.12426872  0.40041690  1  0.124318  0.00026  0.109534  0.12038  0.000227  1.030413  0.0
H  H79  1  0.77589209  0.78992617  0.03517150  1  0.081142  0.00378  0.113308  0.087073  0.00236  1.00583  0.0
H  H80  1  0.07832783  0.84636085  0.01318423  1  0.144329  0.001195  0.106347  0.123527  0.000751  1.027304  0.001
H  H81  1  0.88573881  0.00828761  0.12526190  1  0.083013  0.000868  0.115519  0.126785  0.000522  0.988359  0.0
H  H82  1  0.59427767  0.94337573  0.14505127  1  0.099165  0.002071  0.120519  0.101784  0.001047  0.98218  0.001
H  H83  1  0.54779378  0.12813504  0.06365475  1  0.161036  0.003161  0.122384  0.110087  0.001411  1.005395  0.002
H  H84  1  0.56118416  0.20545581  0.14963756  1  0.042694  0.000285  0.104972  0.109207  0.000141  1.027066  0.0
H  H85  1  0.39409220  0.28698197  0.21558012  1  0.093531  0.00021  0.112363  0.087427  0.000107  1.021762  0.0
H  H86  1  0.88558267  0.21179011  0.16502025  1  0.050654  1.3e-05  0.112288  0.080842  8e-06  1.006423  0.0
H  H87  1  0.02989934  0.12427655  0.09958514  1  0.124483  0.000265  0.109596  0.120439  0.000204  1.03041  0.0
C  C88  1  0.38399472  0.27040841  0.47800178  1  -0.553684  -0.137603  -0.315708  -0.414434  -0.105168  4.067904  -0.071
C  C89  1  0.80734193  0.33837156  0.44605865  1  0.491658  8.5e-05  0.043811  0.092353  -0.000881  3.921266  0.0
C  C90  1  0.97228045  0.37021497  0.45886368  1  0.018509  -0.002312  -0.073836  -0.130774  -0.001829  3.900864  -0.002
C  C91  1  0.00116343  0.43316059  0.43429241  1  -0.085431  0.010231  0.013711  0.053329  0.007304  3.928419  0.008
C  C92  1  0.86512167  0.46021957  0.39574216  1  0.035768  -0.002614  -0.069725  -0.13334  -0.002173  3.934703  -0.002
C  C93  1  0.70427245  0.42482195  0.38486707  1  0.492284  0.001268  0.039986  0.056324  1.8e-05  3.977998  0.001
C  C94  1  0.17240916  0.46933719  0.44942782  1  1.274339  0.002876  0.216946  0.40323  0.00365  4.129435  0.001
C  C95  1  0.41182157  0.61195858  0.42038955  1  0.537187  -0.006114  0.070021  0.039829  -0.003728  3.832705  -0.004
C  C96  1  0.30928848  0.65696553  0.38067390  1  -0.00247  0.008301  0.007535  0.118815  0.005741  3.979942  0.007
C  C97  1  0.41099818  0.70417757  0.34726271  1  0.013422  -0.000411  -0.080631  -0.173228  -0.00029  3.954897  0.0
C  C98  1  0.31882704  0.74964060  0.31039671  1  0.505137  0.001525  0.039562  0.079984  0.000992  3.958044  0.001
C  C99  1  0.03537991  0.70752208  0.33858578  1  0.483841  0.000906  0.041959  0.08652  0.000631  3.945062  0.001
C  C100  1  0.11541728  0.65920713  0.37531193  1  0.014581  -0.001438  -0.078429  -0.157875  -0.001146  3.914917  -0.001
C  C101  1  0.80882328  0.85449797  0.30154965  1  0.710597  -9.2e-05  -0.055976  -0.082274  0.000161  3.839835  0.002
C  C102  1  0.61617166  0.27041145  0.02199784  1  -0.552838  0.138909  -0.315583  -0.414377  0.091318  4.066813  0.071
C  C103  1  0.19272448  0.33837583  0.05394482  1  0.492405  -0.000261  0.043838  0.092264  0.000106  3.921581  0.0
C  C104  1  0.02775809  0.37020503  0.04114425  1  0.018184  0.0022  -0.073636  -0.130655  0.001642  3.900981  0.001
C  C105  1  0.99882904  0.43315041  0.06571144  1  -0.092915  0.006118  0.013822  0.053584  0.004449  3.928171  0.005
C  C106  1  0.13487472  0.46021997  0.10425309  1  0.035926  0.004383  -0.069744  -0.133498  0.002976  3.934468  0.004
C  C107  1  0.29575599  0.42483212  0.11512462  1  0.491871  -0.001388  0.040029  0.056491  -0.000739  3.977918  -0.001
C  C108  1  0.82756230  0.46932162  0.05058053  1  1.283218  0.002606  0.217119  0.403281  0.003446  4.128813  0.001
C  C109  1  0.58818329  0.61195534  0.07960472  1  0.53725  -0.007399  0.069999  0.039865  -0.004762  3.83268  -0.005
C  C110  1  0.69070912  0.65696258  0.11932496  1  -0.002366  0.008363  0.00762  0.118983  0.00578  3.979957  0.007
C  C111  1  0.58899768  0.70417309  0.15273750  1  0.013468  -0.000666  -0.080611  -0.173322  -0.000483  3.955081  0.0
C  C112  1  0.68116845  0.74963590  0.18960621  1  0.50511  0.001553  0.039557  0.08003  0.001012  3.95807  0.001
C  C113  1  0.96461591  0.70751730  0.16141863  1  0.483766  0.000969  0.042184  0.087128  0.000674  3.945058  0.001
C  C114  1  0.88458031  0.65920257  0.12468788  1  0.01483  -0.001691  -0.078515  -0.158161  -0.001337  3.914842  -0.001
C  C115  1  0.19115067  0.85449875  0.19846303  1  0.709826  -9.5e-05  -0.055904  -0.082063  0.000158  3.83933  0.002
C  C116  1  0.38397634  0.22957793  0.52200216  1  -0.386291  -0.13073  -0.315409  -0.414446  -0.105398  4.065056  -0.071
C  C117  1  0.80724790  0.16161927  0.55391727  1  0.491732  8.1e-05  0.043731  0.09222  -0.000887  3.921411  0.0
C  C118  1  0.97219035  0.12978700  0.54110593  1  0.01887  -0.002313  -0.073645  -0.130198  -0.001831  3.90077  -0.002
C  C119  1  0.00112443  0.06684333  0.56567794  1  -0.086451  0.010237  0.01352  0.052896  0.007306  3.928588  0.008
C  C120  1  0.86511742  0.03978399  0.60424606  1  0.035651  -0.002611  -0.069524  -0.132953  -0.002171  3.934311  -0.002
C  C121  1  0.70425588  0.07517144  0.61513119  1  0.491709  0.001275  0.039841  0.056017  2.4e-05  3.978142  0.001
C  C122  1  0.17234642  0.03066018  0.55052929  1  1.275012  0.002875  0.217047  0.403122  0.003653  4.129079  0.001
C  C123  1  0.41180264  0.88804242  0.57959151  1  0.537351  -0.006107  0.070189  0.040145  -0.003724  3.832401  -0.004
C  C124  1  0.30929343  0.84304147  0.61931279  1  -0.003225  0.008296  0.007498  0.11904  0.005738  3.97992  0.007
C  C125  1  0.41099642  0.79583523  0.65273322  1  0.013396  -0.000408  -0.080654  -0.173353  -0.000289  3.955337  0.0
C  C126  1  0.31882835  0.75038064  0.68960070  1  0.505403  0.001524  0.039515  0.079878  0.000992  3.958138  0.001
C  C127  1  0.03538125  0.79249109  0.66140352  1  0.484746  0.000905  0.042108  0.087353  0.000631  3.944689  0.001
C  C128  1  0.11541001  0.84080006  0.62467073  1  0.014791  -0.001437  -0.078512  -0.158288  -0.001146  3.914907  -0.001
C  C129  1  0.80888650  0.64551837  0.69844695  1  0.709653  -8.7e-05  -0.055754  -0.08188  0.000163  3.838084  0.002
C  C130  1  0.61618905  0.22959186  0.97798474  1  -0.38698  0.131903  -0.315327  -0.414186  0.091456  4.064864  0.072
C  C131  1  0.19278960  0.16162298  0.94607414  1  0.492333  -0.000261  0.043955  0.092507  0.000107  3.921596  0.0
C  C132  1  0.02782116  0.12979936  0.95888334  1  0.01827  0.002204  -0.073666  -0.130393  0.001646  3.900907  0.001
C  C133  1  0.99885857  0.06685595  0.93431402  1  -0.084813  0.006091  0.013557  0.053231  0.004445  3.928401  0.005
C  C134  1  0.13485889  0.03978775  0.89575356  1  0.035766  0.004388  -0.069647  -0.133196  0.002979  3.934309  0.004
C  C135  1  0.29575468  0.07516462  0.88487014  1  0.491597  -0.001394  0.039967  0.056192  -0.000745  3.977954  -0.001
C  C136  1  0.82762443  0.03067656  0.94945724  1  1.273975  0.002632  0.217136  0.403155  0.003449  4.128933  0.001
C  C137  1  0.58820288  0.88804844  0.92040492  1  0.537175  -0.007393  0.070124  0.039972  -0.004757  3.832392  -0.005
C  C138  1  0.69072073  0.84304110  0.88068882  1  -0.002573  0.008359  0.007545  0.119061  0.005777  3.979985  0.007
C  C139  1  0.58900984  0.79583266  0.84727123  1  0.013168  -0.000666  -0.080672  -0.173492  -0.000483  3.955184  0.0
C  C140  1  0.68117826  0.75036975  0.81040892  1  0.50529  0.00155  0.039545  0.080108  0.00101  3.958195  0.001
C  C141  1  0.96463469  0.79248168  0.83860461  1  0.484523  0.000967  0.042144  0.087271  0.000673  3.944668  0.001
C  C142  1  0.88460003  0.84079944  0.87533179  1  0.014974  -0.00169  -0.078514  -0.158156  -0.001336  3.914894  -0.001
C  C143  1  0.19116651  0.64551427  0.80156360  1  0.710132  -9.3e-05  -0.055771  -0.081718  0.000159  3.839466  0.002
C  C144  1  0.61624791  0.72959745  0.52200158  1  -0.552138  0.13921  -0.315535  -0.414429  0.091538  4.066252  0.072
C  C145  1  0.19274741  0.66162103  0.55392289  1  0.492011  -0.000243  0.043829  0.092249  0.000119  3.92134  0.0
C  C146  1  0.02778679  0.62979088  0.54110995  1  0.019097  0.002243  -0.073737  -0.13039  0.001671  3.90072  0.001
C  C147  1  0.99883062  0.56684920  0.56568169  1  -0.086445  0.006105  0.01347  0.05295  0.00445  3.928671  0.005
C  C148  1  0.13484337  0.53978678  0.60424216  1  0.035706  0.004419  -0.069435  -0.132824  0.002992  3.934298  0.004
C  C149  1  0.29572022  0.57517506  0.61512421  1  0.492231  -0.00136  0.039902  0.05602  -0.000719  3.978033  -0.001
C  C150  1  0.82760008  0.53066670  0.55054025  1  1.275291  0.002743  0.217258  0.403396  0.003548  4.129139  0.001
C  C151  1  0.58819319  0.38804531  0.57959244  1  0.537083  -0.007839  0.07023  0.040262  -0.005141  3.832283  -0.005
C  C152  1  0.69071937  0.34303689  0.61930996  1  -0.002345  0.006425  0.007497  0.118803  0.004242  3.980094  0.006
C  C153  1  0.58900416  0.29582926  0.65272579  1  0.01345  -0.001679  -0.080687  -0.173476  -0.001415  3.954885  -0.001
C  C154  1  0.68116977  0.25036722  0.68959690  1  0.505157  9.3e-05  0.03961  0.080078  9.4e-05  3.957747  0.0
C  C155  1  0.96462518  0.29248034  0.66140318  1  0.484843  0.000681  0.042074  0.08704  0.000484  3.944784  0.001
C  C156  1  0.88459334  0.34079479  0.62467379  1  0.014622  -0.001851  -0.078421  -0.157974  -0.001359  3.914767  -0.001
C  C157  1  0.19113210  0.14550248  0.69844860  1  0.710105  0.00016  -0.055867  -0.081979  -0.000703  3.838579  -0.002
C  C158  1  0.38368981  0.72959293  0.97801482  1  -0.550867  0.139222  -0.315666  -0.414533  0.091546  4.06662  0.072
C  C159  1  0.80723090  0.66162560  0.94607526  1  0.49246  -0.000247  0.04392  0.09233  0.000114  3.921367  0.0
C  C160  1  0.97219177  0.62979739  0.95888420  1  0.018322  0.002214  -0.073804  -0.130455  0.00165  3.901028  0.001
C  C161  1  0.00114429  0.56685446  0.93431237  1  -0.084767  0.006095  0.013653  0.053224  0.004446  3.928478  0.005
C  C162  1  0.86512485  0.53979129  0.89575492  1  0.035764  0.004403  -0.069479  -0.132853  0.002995  3.934427  0.004
C  C163  1  0.70425187  0.57517668  0.88487642  1  0.49182  -0.001356  0.039868  0.05595  -0.000712  3.978424  -0.001
C  C164  1  0.17238341  0.53067489  0.94945256  1  1.27412  0.002643  0.217128  0.402944  0.003461  4.129277  0.001
C  C165  1  0.41179971  0.38805396  0.92040050  1  0.536743  -0.007403  0.070135  0.040052  -0.004769  3.832405  -0.005
C  C166  1  0.30927940  0.34304279  0.88068398  1  -0.002332  0.008459  0.007524  0.118781  0.005847  3.979973  0.007
C  C167  1  0.41098947  0.29583031  0.84726959  1  0.013408  -0.000718  -0.080618  -0.173291  -0.000517  3.95491  0.0
C  C168  1  0.31881179  0.25036455  0.81040319  1  0.505392  0.001598  0.039501  0.079949  0.001044  3.957874  0.001
C  C169  1  0.03536570  0.29247921  0.83859867  1  0.484957  0.000951  0.042096  0.087069  0.000622  3.944742  0.001
C  C170  1  0.11540407  0.34079936  0.87532431  1  0.01451  -0.001867  -0.078515  -0.158051  -0.001473  3.91492  -0.001
C  C171  1  0.80885719  0.14549335  0.80154405  1  0.710399  -3.5e-05  -0.055885  -0.081791  0.000303  3.839959  0.002
C  C172  1  0.61625663  0.77041122  0.47798542  1  -0.387672  0.132041  -0.315415  -0.414121  0.091555  4.065393  0.072
C  C173  1  0.19273372  0.83836840  0.44603826  1  0.492357  -0.000245  0.043856  0.092628  0.00012  3.921873  0.0
C  C174  1  0.02776227  0.87018888  0.45883891  1  0.017761  0.002242  -0.073458  -0.130639  0.001669  3.901484  0.001
C  C175  1  0.99880609  0.93313304  0.43427758  1  -0.092797  0.006127  0.013594  0.053562  0.004451  3.927846  0.005
C  C176  1  0.13484072  0.96021352  0.39573501  1  0.035788  0.004418  -0.069784  -0.133684  0.002992  3.934066  0.004
C  C177  1  0.29573540  0.92483490  0.38485639  1  0.492427  -0.001359  0.040135  0.056713  -0.000718  3.977436  -0.001
C  C178  1  0.82754404  0.96930587  0.44940766  1  1.2833  0.002719  0.217204  0.403289  0.003547  4.12852  0.001
C  C179  1  0.58818588  0.11195065  0.42039606  1  0.536935  -0.007842  0.070001  0.039868  -0.005143  3.832612  -0.005
C  C180  1  0.69071028  0.15695750  0.38068360  1  -0.00247  0.006427  0.007519  0.118857  0.004243  3.98001  0.006
C  C181  1  0.58900868  0.20417063  0.34726689  1  0.01327  -0.001679  -0.08067  -0.173379  -0.001415  3.955157  -0.001
C  C182  1  0.68117398  0.24962767  0.31039941  1  0.504977  9.6e-05  0.039536  0.079839  9.6e-05  3.957993  0.0
C  C183  1  0.96462384  0.20751083  0.33858776  1  0.484394  0.000686  0.042099  0.08704  0.000487  3.945025  0.001
C  C184  1  0.88458818  0.15919744  0.37531823  1  0.014956  -0.001855  -0.078391  -0.158005  -0.001362  3.914845  -0.001
C  C185  1  0.19119179  0.35451206  0.30155084  1  0.710344  0.000144  -0.055881  -0.082105  -0.000712  3.83956  -0.002
C  C186  1  0.38369589  0.77040466  0.02203627  1  -0.388359  0.132102  -0.315138  -0.413889  0.091594  4.065492  0.072
C  C187  1  0.80725002  0.83837452  0.05396035  1  0.492512  -0.000249  0.043909  0.092548  0.000115  3.921894  0.0
C  C188  1  0.97221570  0.87019618  0.04115487  1  0.018191  0.002215  -0.073627  -0.13076  0.001651  3.901291  0.001
C  C189  1  0.00117553  0.93314155  0.06571768  1  -0.092413  0.006118  0.013658  0.053417  0.004447  3.928214  0.005
C  C190  1  0.86514207  0.96021909  0.10426281  1  0.035654  0.004403  -0.069786  -0.13351  0.002996  3.934598  0.004
C  C191  1  0.70425456  0.92483927  0.11514252  1  0.492709  -0.001356  0.040066  0.056546  -0.000713  3.977567  -0.001
C  C192  1  0.17243314  0.96931210  0.05058328  1  1.283188  0.002623  0.217276  0.403418  0.00346  4.12865  0.001
C  C193  1  0.41181050  0.11195398  0.07960541  1  0.537037  -0.007411  0.070042  0.039989  -0.004773  3.832568  -0.005
C  C194  1  0.30928989  0.15696378  0.11931965  1  -0.002342  0.008457  0.007551  0.118989  0.005844  3.979789  0.007
C  C195  1  0.41100078  0.20417271  0.15273585  1  0.013317  -0.00072  -0.080653  -0.173468  -0.000519  3.954995  0.0
C  C196  1  0.31883650  0.24963021  0.18960374  1  0.504871  0.001597  0.039578  0.080131  0.001044  3.958117  0.001
C  C197  1  0.03538283  0.20751877  0.16141687  1  0.483663  0.00095  0.042085  0.086846  0.000621  3.944898  0.001
C  C198  1  0.11541059  0.15920347  0.12468180  1  0.014947  -0.001868  -0.078512  -0.158167  -0.001473  3.914856  -0.001
C  C199  1  0.80883030  0.35450633  0.19845045  1  0.711217  -2.3e-05  -0.055802  -0.082204  0.000311  3.83956  0.002
N  N200  1  0.67383927  0.36535045  0.41056459  1  -1.226961  -0.049721  -0.354568  -0.212222  -0.038892  3.661566  -0.043
N  N201  1  0.19688453  0.52756825  0.42255512  1  -0.691861  0.020851  -0.244768  -0.31274  0.013535  3.232819  0.014
N  N202  1  0.36108293  0.55416342  0.44047973  1  -0.805319  0.092188  -0.253523  -0.1017  0.063526  3.742379  0.081
N  N203  1  0.13364256  0.75203063  0.30600647  1  -1.23112  -0.000307  -0.335806  -0.176213  -0.000464  3.56174  0.0
N  N204  1  0.69552521  0.86117613  0.34047826  1  -1.41971  0.017165  -0.45745  -0.375338  0.011651  3.600994  0.012
N  N205  1  0.32622830  0.36536378  0.08942890  1  -1.227357  0.049013  -0.354652  -0.212393  0.032922  3.661972  0.042
N  N206  1  0.80311685  0.52756575  0.07743608  1  -0.692453  0.020325  -0.244833  -0.312729  0.013176  3.232477  0.013
N  N207  1  0.63891410  0.55416091  0.05951172  1  -0.805835  0.092428  -0.253543  -0.101804  0.06374  3.742305  0.081
N  N208  1  0.86635153  0.75202332  0.19399787  1  -1.231255  -0.000549  -0.335891  -0.17665  -0.000646  3.562038  -0.001
N  N209  1  0.30446526  0.86117543  0.15953076  1  -1.418984  0.017181  -0.457601  -0.375615  0.011663  3.600998  0.012
N  N210  1  0.67378402  0.13463855  0.58942379  1  -1.22698  -0.049775  -0.354536  -0.212226  -0.038929  3.661912  -0.043
N  N211  1  0.19685519  0.97243150  0.57742090  1  -0.690676  0.020827  -0.244924  -0.312722  0.013519  3.232116  0.014
N  N212  1  0.36105039  0.94583370  0.55949091  1  -0.805873  0.092155  -0.253516  -0.101979  0.063502  3.742003  0.081
N  N213  1  0.13364267  0.74798982  0.69399206  1  -1.231254  -0.000307  -0.335744  -0.17641  -0.000464  3.561692  0.0
N  N214  1  0.69559813  0.63885851  0.65950116  1  -1.418873  0.017158  -0.45748  -0.375446  0.011645  3.59988  0.012
N  N215  1  0.32624816  0.13462802  0.91057991  1  -1.227371  0.049042  -0.35464  -0.212341  0.03294  3.661976  0.042
N  N216  1  0.80315519  0.97243486  0.92258650  1  -0.69077  0.020291  -0.245108  -0.312849  0.013154  3.232027  0.013
N  N217  1  0.63894501  0.94583937  0.94050789  1  -0.806032  0.092408  -0.25351  -0.101917  0.063725  3.741838  0.081
N  N218  1  0.86636534  0.74797821  0.80601986  1  -1.231268  -0.000545  -0.335814  -0.176509  -0.000643  3.562337  -0.001
N  N219  1  0.30441765  0.63883502  0.84050004  1  -1.419588  0.017151  -0.457557  -0.375654  0.011644  3.600822  0.012
N  N220  1  0.32622383  0.63463870  0.58942298  1  -1.227526  0.048941  -0.354641  -0.212362  0.032875  3.661985  0.042
N  N221  1  0.80313990  0.47243466  0.57741666  1  -0.690862  0.020366  -0.245069  -0.31274  0.013246  3.232183  0.013
N  N222  1  0.63893321  0.44583752  0.55949391  1  -0.806093  0.09272  -0.253634  -0.102166  0.064015  3.742014  0.081
N  N223  1  0.86635977  0.24797867  0.69398621  1  -1.231637  -0.001023  -0.335759  -0.176359  -0.000778  3.561763  -0.001
N  N224  1  0.30442879  0.13883956  0.65950467  1  -1.419433  -0.015627  -0.457889  -0.37568  -0.012358  3.601297  -0.01
N  N225  1  0.67375055  0.63463962  0.91057911  1  -1.227733  0.048908  -0.354653  -0.212322  0.032851  3.661819  0.042
N  N226  1  0.19683576  0.47243519  0.92258354  1  -0.691107  0.020297  -0.244944  -0.312533  0.013153  3.232594  0.013
N  N227  1  0.36104680  0.44584199  0.94050419  1  -0.805653  0.092461  -0.253676  -0.102031  0.063763  3.742664  0.081
N  N228  1  0.13362456  0.24797320  0.80601710  1  -1.231815  -0.00222  -0.335722  -0.176321  -0.001798  3.561825  -0.002
N  N229  1  0.69558955  0.13881126  0.84048514  1  -1.419812  0.01593  -0.457821  -0.375846  0.010867  3.601343  0.011
N  N230  1  0.32621555  0.86536485  0.41055263  1  -1.228222  0.048982  -0.35477  -0.212638  0.032902  3.662199  0.042
N  N231  1  0.80310295  0.02755372  0.42255506  1  -0.691929  0.020391  -0.244865  -0.312708  0.013262  3.232442  0.013
N  N232  1  0.63889809  0.05415004  0.44048086  1  -0.806237  0.092722  -0.253726  -0.102089  0.064016  3.742717  0.081
N  N233  1  0.86635966  0.25201849  0.30600388  1  -1.231287  -0.001031  -0.33584  -0.176272  -0.000785  3.56198  -0.001
N  N234  1  0.30448430  0.36116602  0.34047991  1  -1.419786  -0.015581  -0.457292  -0.375552  -0.012321  3.600128  -0.01
N  N235  1  0.67376798  0.86536997  0.08944807  1  -1.228388  0.048955  -0.354793  -0.212456  0.032884  3.662269  0.042
N  N236  1  0.19688719  0.02755772  0.07744194  1  -0.691976  0.020325  -0.244816  -0.312718  0.013172  3.232418  0.013
N  N237  1  0.36108908  0.05415518  0.05951498  1  -0.806128  0.092473  -0.253677  -0.101985  0.06377  3.742661  0.081
N  N238  1  0.13365909  0.25202175  0.19399930  1  -1.230726  -0.002219  -0.335819  -0.176318  -0.001797  3.561911  -0.002
N  N239  1  0.69554325  0.36116051  0.15951680  1  -1.420552  0.015912  -0.457425  -0.375422  0.010856  3.600812  0.011
O  O240  1  0.28692817  0.44252738  0.48827452  1  -1.100971  0.106113  -0.31745  -0.503919  0.070475  2.397426  0.096
O  O241  1  0.71299103  0.44249878  0.01175821  1  -1.101613  0.105556  -0.317636  -0.504001  0.069741  2.39698  0.096
O  O242  1  0.28681962  0.05744775  0.51165796  1  -1.101658  0.106109  -0.317384  -0.503681  0.070476  2.39749  0.096
O  O243  1  0.71309854  0.05747790  0.98830419  1  -1.101854  0.105549  -0.317461  -0.503861  0.06974  2.397581  0.096
O  O244  1  0.71308521  0.55746766  0.51168797  1  -1.101902  0.105604  -0.317475  -0.503907  0.069765  2.397514  0.096
O  O245  1  0.28691601  0.55748496  0.98829253  1  -1.101947  0.105583  -0.317462  -0.503712  0.069763  2.39747  0.096
O  O246  1  0.71296312  0.94248881  0.48823021  1  -1.101815  0.105625  -0.317533  -0.504009  0.069775  2.397119  0.096
O  O247  1  0.28699632  0.94249651  0.01175631  1  -1.102167  0.10559  -0.317713  -0.504103  0.069764  2.3969  0.096
