# generated using pymatgen
data_Dy2H22C15O14
_symmetry_space_group_name_H-M   'P 1'
_cell_length_a   7.90456524
_cell_length_b   8.37669199
_cell_length_c   19.41721039
_cell_angle_alpha   88.22669536
_cell_angle_beta   86.25366873
_cell_angle_gamma   61.83209523
_symmetry_Int_Tables_number   1
_chemical_formula_structural   Dy2H22C15O14
_chemical_formula_sum   'Dy4 H44 C30 O28'
_cell_volume   1131.00405787
_cell_formula_units_Z   2
loop_
 _symmetry_equiv_pos_site_id
 _symmetry_equiv_pos_as_xyz
  1  'x, y, z'
loop_
 _atom_site_type_symbol
 _atom_site_label
 _atom_site_symmetry_multiplicity
 _atom_site_fract_x
 _atom_site_fract_y
 _atom_site_fract_z
 _atom_site_occupancy
 _atom_site_pbe_bader_charge
 _atom_site_pbe_bader_spin_density
 _atom_site_pbe_cm5_charge
 _atom_site_pbe_ddec_charge
 _atom_site_pbe_ddec_spin_density
 _atom_site_pbe_ddec_sum_bond_order
 _atom_site_pbe_magmom
Dy  Dy0  1  0.79028988  0.92577530  0.48927893  1  2.172021  0  1.525244  2.069314  0  2.103651  0
Dy  Dy1  1  0.28402966  0.92584500  0.01069415  1  2.171439  0  1.525325  2.069633  0  2.103542  0
Dy  Dy2  1  0.20971470  0.07422190  0.51072194  1  2.171973  0  1.525225  2.069225  0  2.103718  0
Dy  Dy3  1  0.71596711  0.07415761  0.98930533  1  2.171407  0  1.525295  2.069617  0  2.103577  0
H  H4  1  0.25443058  0.51590169  0.32402180  1  0.057359  0  0.10254  0.11562  0  0.997546  0
H  H5  1  0.03998580  0.54503307  0.29289304  1  0.030167  0  0.103956  0.115481  0  0.973455  0
H  H6  1  0.18245427  0.82782297  0.26938525  1  0.054073  0  0.097502  0.098679  0  0.981836  0
H  H7  1  0.66966291  0.54207085  0.46414783  1  0.088954  0  0.115035  0.13393  0  0.986111  0
H  H8  1  0.87049577  0.43738396  0.40617935  1  0.076598  0  0.111152  0.12956  0  0.992944  0
H  H9  1  0.65649379  0.44380211  0.31388690  1  0.01138  0  0.096004  0.088611  0  0.969506  0
H  H10  1  0.45535552  0.54303189  0.37337948  1  0.054363  0  0.095273  0.088231  0  1.01178  0
H  H11  1  0.48703416  0.77141015  0.29382997  1  0.05779  0  0.106689  0.123204  0  0.988464  0
H  H12  1  0.70816119  0.72150555  0.32984872  1  0.055732  0  0.100705  0.110588  0  1.021691  0
H  H13  1  0.62708512  0.72292976  0.56683184  1  0.649724  0  0.306214  0.409765  0  0.91862  0
H  H14  1  0.84926927  0.57449252  0.56294344  1  0.636782  0  0.295703  0.407615  0  0.927198  0
H  H15  1  0.22967927  0.51603701  0.17591526  1  0.028602  0  0.102656  0.115762  0  0.997621  0
H  H16  1  0.41494019  0.54507785  0.20714692  1  0.050225  0  0.104019  0.115331  0  0.973832  0
H  H17  1  0.98953333  0.82780094  0.23058096  1  0.031133  0  0.097369  0.098587  0  0.981853  0
H  H18  1  0.78733982  0.54206298  0.03592916  1  0.09718  0  0.114997  0.134223  0  0.98548  0
H  H19  1  0.69168320  0.43720628  0.09401195  1  0.068605  0  0.110908  0.129595  0  0.993284  0
H  H20  1  0.89938840  0.44379082  0.18613782  1  0.050053  0  0.095967  0.088259  0  0.969263  0
H  H21  1  0.00144802  0.54264827  0.12654239  1  0.044836  0  0.095345  0.088447  0  1.011127  0
H  H22  1  0.74186988  0.77123299  0.20613776  1  0.058846  0  0.106606  0.122847  0  0.988729  0
H  H23  1  0.57017465  0.72189626  0.17022447  1  0.04088  0  0.100676  0.111348  0  1.021189  0
H  H24  1  0.65045025  0.72272499  0.93325367  1  0.659313  0  0.306105  0.409721  0  0.918747  0
H  H25  1  0.57636768  0.57456897  0.93705647  1  0.664193  0  0.295967  0.408053  0  0.926776  0
H  H26  1  0.74557259  0.48409822  0.67597649  1  0.057387  0  0.102532  0.115632  0  0.997535  0
H  H27  1  0.96001818  0.45496277  0.70710736  1  0.03021  0  0.103945  0.115464  0  0.973409  0
H  H28  1  0.81754394  0.17217423  0.73061427  1  0.054037  0  0.09754  0.098711  0  0.981881  0
H  H29  1  0.33033957  0.45793041  0.53584943  1  0.089188  0  0.115026  0.133889  0  0.986087  0
H  H30  1  0.12950222  0.56261865  0.59381751  1  0.076386  0  0.111154  0.129552  0  0.992942  0
H  H31  1  0.34349519  0.55620592  0.68611221  1  0.011412  0  0.095989  0.088577  0  0.969518  0
H  H32  1  0.54463983  0.45697614  0.62662099  1  0.054526  0  0.095292  0.088232  0  1.01173  0
H  H33  1  0.51295977  0.22860329  0.70617149  1  0.057466  0  0.106704  0.123243  0  0.988416  0
H  H34  1  0.29183941  0.27849706  0.67015219  1  0.055743  0  0.100718  0.110593  0  1.021595  0
H  H35  1  0.37292208  0.27706472  0.43316899  1  0.64969  0  0.306225  0.409764  0  0.9186  0
H  H36  1  0.15073544  0.42549925  0.43705544  1  0.636821  0  0.295746  0.407734  0  0.927031  0
H  H37  1  0.77031679  0.48396696  0.82408267  1  0.028634  0  0.102642  0.115766  0  0.99751  0
H  H38  1  0.58505469  0.45492341  0.79285108  1  0.050189  0  0.103993  0.115288  0  0.973847  0
H  H39  1  0.01046287  0.17220031  0.76941958  1  0.031187  0  0.097368  0.098567  0  0.981859  0
H  H40  1  0.21265959  0.45793692  0.96407131  1  0.097166  0  0.115001  0.134247  0  0.985471  0
H  H41  1  0.30832147  0.56278820  0.90598896  1  0.068669  0  0.110919  0.129603  0  0.99323  0
H  H42  1  0.10060847  0.55620908  0.81386272  1  0.050082  0  0.095939  0.088221  0  0.969271  0
H  H43  1  0.99855335  0.45735028  0.87345907  1  0.044836  0  0.095344  0.088425  0  1.01113  0
H  H44  1  0.25812755  0.22876826  0.79386069  1  0.058758  0  0.106616  0.122901  0  0.988741  0
H  H45  1  0.42982669  0.27810229  0.82977493  1  0.040871  0  0.100641  0.111299  0  1.021255  0
H  H46  1  0.34954653  0.27727762  0.06674632  1  0.659302  0  0.306105  0.409714  0  0.918749  0
H  H47  1  0.42362911  0.42543364  0.06294404  1  0.664163  0  0.295955  0.408011  0  0.926822  0
C  C48  1  0.00192881  0.72775856  0.37269476  1  1.527528  0  0.199572  0.625873  0  4.166452  0
C  C49  1  0.11296707  0.62125093  0.30898446  1  -0.028787  0  -0.160015  -0.293075  0  3.928456  0
C  C50  1  0.74937489  0.27118725  0.44352068  1  1.535676  0  0.230463  0.700096  0  4.072235  0
C  C51  1  0.72711334  0.45127217  0.41898467  1  -0.029436  0  -0.156957  -0.299944  0  3.887014  0
C  C52  1  0.59655443  0.53320507  0.35922255  1  -0.010452  0  -0.155828  -0.093986  0  3.929466  0
C  C53  1  0.56947816  0.72307015  0.34022723  1  -0.031165  0  -0.158578  -0.297786  0  3.887663  0
C  C54  1  0.45582950  0.85418399  0.39778800  1  1.54219  0  0.219518  0.685973  0  4.101677  0
C  C55  1  0.27053090  0.72786450  0.12731706  1  1.522246  0  0.19875  0.624345  0  4.166661  0
C  C56  1  0.26577662  0.62131190  0.19099267  1  -0.033997  0  -0.159927  -0.292395  0  3.928413  0
C  C57  1  0.97891944  0.27123174  0.05650353  1  1.546581  0  0.230628  0.700949  0  4.073047  0
C  C58  1  0.82103834  0.45124504  0.08109812  1  -0.052872  0  -0.156799  -0.301211  0  3.887573  0
C  C59  1  0.86993032  0.53315391  0.14078985  1  -0.030628  0  -0.155985  -0.093339  0  3.926944  0
C  C60  1  0.70738575  0.72320116  0.15977643  1  -0.023214  0  -0.158327  -0.298599  0  3.887131  0
C  C61  1  0.69007795  0.85424959  0.10224808  1  1.535196  0  0.220511  0.688103  0  4.099509  0
C  C62  1  0.99807334  0.27223592  0.62730725  1  1.527669  0  0.199534  0.625924  0  4.166178  0
C  C63  1  0.88703435  0.37874491  0.69101498  1  -0.028928  0  -0.159975  -0.293065  0  3.928548  0
C  C64  1  0.25062870  0.72881943  0.55647750  1  1.535562  0  0.230488  0.700231  0  4.07215  0
C  C65  1  0.27288398  0.54873179  0.58101271  1  -0.029459  0  -0.156897  -0.299868  0  3.886853  0
C  C66  1  0.40344106  0.46679754  0.64077645  1  -0.010415  0  -0.155849  -0.093942  0  3.929269  0
C  C67  1  0.43052497  0.27693246  0.65977360  1  -0.031063  0  -0.158595  -0.297851  0  3.887618  0
C  C68  1  0.54417186  0.14581726  0.60221702  1  1.542295  0  0.21951  0.685934  0  4.101803  0
C  C69  1  0.72946374  0.27214489  0.87268187  1  1.521802  0  0.198788  0.624458  0  4.166355  0
C  C70  1  0.73422159  0.37868530  0.80900684  1  -0.033834  0  -0.159879  -0.292358  0  3.928458  0
C  C71  1  0.02108452  0.72876410  0.94349635  1  1.54664  0  0.230676  0.70104  0  4.072945  0
C  C72  1  0.17896241  0.54875215  0.91890183  1  -0.053001  0  -0.15682  -0.301317  0  3.887705  0
C  C73  1  0.13006774  0.46684870  0.85921113  1  -0.03061  0  -0.155997  -0.093241  0  3.926972  0
C  C74  1  0.29261294  0.27680010  0.84022146  1  -0.023077  0  -0.158282  -0.298604  0  3.88699  0
C  C75  1  0.30991602  0.14574084  0.89775063  1  1.534702  0  0.220412  0.687978  0  4.099736  0
C  C76  1  0.13114502  0.73757848  0.24998589  1  0.031289  0  -0.164223  -0.101672  0  3.936932  0
C  C77  1  0.86885047  0.26242413  0.75001310  1  0.031271  0  -0.164265  -0.101708  0  3.937073  0
O  O78  1  0.89603142  0.89728197  0.37000012  1  -1.174873  0  -0.371683  -0.598872  0  2.185817  0
O  O79  1  0.01108065  0.64281320  0.43044793  1  -1.200073  0  -0.37669  -0.657448  0  2.245936  0
O  O80  1  0.90866269  0.15515298  0.46743676  1  -1.207022  0  -0.429743  -0.732201  0  2.406245  0
O  O81  1  0.61266475  0.23112814  0.44281939  1  -1.197406  0  -0.357079  -0.629535  0  2.23277  0
O  O82  1  0.27821740  0.90309264  0.40686648  1  -1.176903  0  -0.365001  -0.608843  0  2.18866  0
O  O83  1  0.53763445  0.91040332  0.43913086  1  -1.215217  0  -0.435363  -0.757661  0  2.386868  0
O  O84  1  0.75877880  0.70875763  0.56117475  1  -1.279442  0  -0.656502  -0.882363  0  2.046085  0
O  O85  1  0.20711182  0.89735365  0.13002327  1  -1.161597  0  -0.371433  -0.598598  0  2.185629  0
O  O86  1  0.34627906  0.64288923  0.06957204  1  -1.200869  0  -0.376472  -0.657057  0  2.245429  0
O  O87  1  0.93574062  0.15517699  0.03262178  1  -1.203904  0  -0.429523  -0.731901  0  2.40672  0
O  O88  1  0.15573524  0.23129349  0.05705017  1  -1.198386  0  -0.357171  -0.630288  0  2.233218  0
O  O89  1  0.81862327  0.90335269  0.09326473  1  -1.175623  0  -0.36584  -0.609882  0  2.187688  0
O  O90  1  0.55224040  0.91030003  0.06079996  1  -1.202122  0  -0.435812  -0.75846  0  2.386181  0
O  O91  1  0.53280695  0.70876030  0.93884917  1  -1.316922  0  -0.656436  -0.882593  0  2.046305  0
O  O92  1  0.10397962  0.10271251  0.63000266  1  -1.174991  0  -0.371648  -0.598895  0  2.185634  0
O  O93  1  0.98892340  0.35717993  0.56955199  1  -1.199982  0  -0.376687  -0.657463  0  2.245802  0
O  O94  1  0.09133920  0.84484693  0.53256054  1  -1.206933  0  -0.429811  -0.732328  0  2.406216  0
O  O95  1  0.38733853  0.76887176  0.55718457  1  -1.197571  0  -0.357074  -0.629567  0  2.232777  0
O  O96  1  0.72178400  0.09690591  0.59313652  1  -1.176779  0  -0.365056  -0.608873  0  2.188638  0
O  O97  1  0.46237234  0.08958710  0.56087520  1  -1.215243  0  -0.435324  -0.757586  0  2.38681  0
O  O98  1  0.24122401  0.29123551  0.43882623  1  -1.279484  0  -0.656551  -0.882481  0  2.046096  0
O  O99  1  0.79288191  0.10264490  0.86997636  1  -1.161515  0  -0.371402  -0.598612  0  2.185376  0
O  O100  1  0.65372157  0.35711338  0.93043041  1  -1.200683  0  -0.376516  -0.65712  0  2.245276  0
O  O101  1  0.06425800  0.84482697  0.96737711  1  -1.203943  0  -0.429559  -0.731961  0  2.406654  0
O  O102  1  0.84426544  0.76870641  0.94295077  1  -1.198406  0  -0.357181  -0.630295  0  2.233166  0
O  O103  1  0.18138420  0.09665127  0.90673286  1  -1.175957  0  -0.365645  -0.609643  0  2.188227  0
O  O104  1  0.44776348  0.08969852  0.93919988  1  -1.201361  0  -0.435888  -0.758548  0  2.38594  0
O  O105  1  0.46718912  0.29124367  0.06114927  1  -1.316858  0  -0.656431  -0.882546  0  2.046352  0
