# generated using pymatgen
data_Zr3H15C23NO16
_symmetry_space_group_name_H-M   'P 1'
_cell_length_a   7.84660934
_cell_length_b   18.25051519
_cell_length_c   23.80334180
_cell_angle_alpha   90.72901377
_cell_angle_beta   101.53242036
_cell_angle_gamma   89.73494767
_symmetry_Int_Tables_number   1
_chemical_formula_structural   Zr3H15C23NO16
_chemical_formula_sum   'Zr6 H30 C46 N2 O32'
_cell_volume   3339.65491444
_cell_formula_units_Z   2
loop_
 _symmetry_equiv_pos_site_id
 _symmetry_equiv_pos_as_xyz
  1  'x, y, z'
loop_
 _atom_site_type_symbol
 _atom_site_label
 _atom_site_symmetry_multiplicity
 _atom_site_fract_x
 _atom_site_fract_y
 _atom_site_fract_z
 _atom_site_occupancy
 _atom_site_pbe_bader_charge
 _atom_site_pbe_bader_spin_density
 _atom_site_pbe_cm5_charge
 _atom_site_pbe_ddec_charge
 _atom_site_pbe_ddec_spin_density
 _atom_site_pbe_ddec_sum_bond_order
 _atom_site_pbe_magmom
Zr  Zr0  1  0.05755175  0.89906626  0.07238878  1  2.624558  0  1.584225  2.364272  0  2.786644  0
Zr  Zr1  1  0.96975481  0.10862007  0.93218639  1  2.615481  0  1.587538  2.359629  0  2.802406  0
Zr  Zr2  1  0.82143794  0.06572217  0.05974883  1  2.625676  0  1.569809  2.398102  0  2.733935  0
Zr  Zr3  1  0.19562148  0.94034671  0.94355602  1  2.604092  0  1.566938  2.377765  0  2.745073  0
Zr  Zr4  1  0.74630268  0.93877207  0.94145436  1  2.623018  0  1.556977  2.406509  0  2.748519  0
Zr  Zr5  1  0.27703999  0.07181834  0.06189676  1  2.625948  0  1.555542  2.416347  0  2.693548  0
H  H6  1  0.98244042  0.82215792  0.95308677  1  0.590238  0  0.327004  0.420447  0  0.872189  0
H  H7  1  0.62502126  0.09080224  0.94757291  1  0.59353  0  0.330202  0.426747  0  0.852359  0
H  H8  1  0.33444183  0.08485476  0.94565526  1  0.593349  0  0.326151  0.41996  0  0.86871  0
H  H9  1  0.11053704  0.03189330  0.14904205  1  0.652253  0  0.329643  0.43349  0  0.85487  0
H  H10  1  0.53108072  0.81319093  0.86581568  1  0.649141  0  0.279861  0.389723  0  0.94553  0
H  H11  1  0.72306077  0.16809467  0.14117785  1  0.644209  0  0.289736  0.410457  0  0.924574  0
H  H12  1  0.19871937  0.18745754  0.12075067  1  0.593904  0  0.302299  0.392841  0  0.905806  0
H  H13  1  0.80098703  0.83672245  0.86087942  1  0.611691  0  0.297447  0.397785  0  0.904457  0
H  H14  1  0.26619263  0.82370568  0.86924578  1  0.65786  0  0.286082  0.403732  0  0.934019  0
H  H15  1  0.49657914  0.89526522  0.98290646  1  0.638934  0  0.297161  0.380132  0  0.966344  0
H  H16  1  0.46790452  0.19138867  0.13977998  1  0.651163  0  0.282321  0.388784  0  0.948029  0
H  H17  1  0.59356220  0.96612218  0.83337130  1  0.625354  0  0.320123  0.41063  0  0.876348  0
H  H18  1  0.80723215  0.11725965  0.82595307  1  0.575677  0  0.289034  0.372248  0  0.959198  0
H  H19  1  0.22913941  0.89058841  0.18014663  1  0.581173  0  0.286164  0.371131  0  0.965405  0
H  H20  1  0.54449055  0.00563433  0.14135159  1  0.648242  0  0.293077  0.389594  0  0.952724  0
H  H21  1  0.14433096  0.88734429  0.83573961  1  0.618702  0  0.321327  0.411498  0  0.885778  0
H  H22  1  0.66060811  0.04890722  0.85850077  1  0.644317  0  0.283292  0.40051  0  0.948618  0
H  H23  1  0.52045375  0.01241393  0.01862360  1  0.618003  0  0.284129  0.368421  0  0.993881  0
H  H24  1  0.46089264  0.77112292  0.91220863  1  0.620712  0  0.299829  0.3823  0  0.938277  0
H  H25  1  0.56262462  0.23375182  0.09862305  1  0.61855  0  0.306024  0.384631  0  0.927748  0
H  H26  1  0.81301035  0.09295637  0.17089517  1  0.623446  0  0.322801  0.413157  0  0.884756  0
H  H27  1  0.36324726  0.96214349  0.14385745  1  0.64656  0  0.282998  0.40214  0  0.947144  0
H  H28  1  0.19281607  0.50209513  0.99135254  1  0.124991  0  0.117738  0.129311  0  0.978686  0
H  H29  1  0.84090050  0.50376705  0.01749188  1  0.048219  0  0.117844  0.130026  0  0.978297  0
H  H30  1  0.34552604  0.78827762  0.21404614  1  0.154491  0  0.129272  0.160049  0  0.965484  0
H  H31  1  0.10987019  0.81648921  0.28139750  1  0.125026  0  0.119929  0.146992  0  0.984039  0
H  H32  1  0.62819797  0.19162894  0.78068484  1  0.139403  0  0.125429  0.158679  0  0.976735  0
H  H33  1  0.86425321  0.16936018  0.71215038  1  0.121548  0  0.120472  0.146927  0  0.98248  0
H  H34  1  0.30678296  0.98487910  0.50317258  1  0.049466  0  0.111712  0.122212  0  0.988105  0
H  H35  1  0.67171859  0.00304068  0.48849345  1  0.079084  0  0.111428  0.121218  0  0.98881  0
C  C36  1  0.76481523  0.78144728  0.01876272  1  1.682163  0  0.234944  0.694956  0  4.205612  0
C  C37  1  0.26999673  0.78006648  0.01267898  1  1.696854  0  0.235886  0.692783  0  4.211998  0
C  C38  1  0.81645375  0.92913857  0.16601068  1  1.655991  0  0.2415  0.700628  0  4.198746  0
C  C39  1  0.77599437  0.22703630  0.00066161  1  1.705323  0  0.240135  0.7006  0  4.205432  0
C  C40  1  0.25606171  0.22606720  0.98570452  1  1.681321  0  0.23719  0.696678  0  4.207938  0
C  C41  1  0.17829726  0.05470424  0.83379768  1  1.666378  0  0.236844  0.704388  0  4.193562  0
C  C42  1  0.42279547  0.56937709  0.00250468  1  0.187041  0  0.016715  0.095454  0  4.060501  0
C  C43  1  0.60893246  0.56987534  0.00932450  1  0.095429  0  0.017489  0.099285  0  4.057005  0
C  C44  1  0.69965824  0.50344579  0.01165279  1  0.046828  0  -0.064288  -0.156836  0  3.89959  0
C  C45  1  0.61091154  0.43661544  0.00660124  1  0.102437  0  0.017528  0.0977  0  4.060499  0
C  C46  1  0.42472588  0.43617852  0.99870398  1  0.076147  0  0.017284  0.098296  0  4.061375  0
C  C47  1  0.33400044  0.50258126  0.99700850  1  -0.029583  0  -0.063753  -0.155221  0  3.901164  0
C  C48  1  0.51112960  0.86456250  0.27263486  1  0.381103  0  0.094075  0.153266  0  4.053752  0
C  C49  1  0.36356323  0.82223508  0.25247787  1  -0.057256  0  -0.087474  -0.17768  0  3.983379  0
C  C50  1  0.24150226  0.83737325  0.28708651  1  0.066834  0  -0.092593  -0.18845  0  3.973142  0
C  C51  1  0.31463117  0.88690271  0.33034427  1  0.363546  0  0.092888  0.172551  0  4.0756  0
C  C52  1  0.46854216  0.11429601  0.72164371  1  0.418915  0  0.090965  0.144592  0  4.062887  0
C  C53  1  0.61268974  0.15845195  0.74189570  1  -0.047193  0  -0.090704  -0.17774  0  3.978093  0
C  C54  1  0.73459214  0.14641193  0.70668376  1  0.041564  0  -0.094155  -0.190274  0  3.97671  0
C  C55  1  0.66427445  0.09714466  0.66285048  1  0.327184  0  0.093643  0.168173  0  4.073967  0
C  C56  1  0.05810757  0.96760455  0.44793770  1  0.154469  0  0.006945  0.089305  0  4.070798  0
C  C57  1  0.87351127  0.97248155  0.44383270  1  0.125546  0  0.00831  0.107386  0  4.067569  0
C  C58  1  0.81183174  0.99878326  0.49176947  1  -0.010365  0  -0.068846  -0.151744  0  3.881085  0
C  C59  1  0.92041815  0.02014579  0.54375425  1  0.050714  0  0.006947  0.088297  0  4.071383  0
C  C60  1  0.10494994  0.01483808  0.54794493  1  0.111461  0  0.009292  0.111376  0  4.069262  0
C  C61  1  0.16666751  0.98909079  0.49987870  1  0.056845  0  -0.070939  -0.156582  0  3.882486  0
C  C62  1  0.23354761  0.03493938  0.59631763  1  0.327169  0  -0.036555  -0.139321  0  4.116271  0
C  C63  1  0.36349239  0.05116190  0.63168127  1  -0.042088  0  0.077421  0.011635  0  4.144498  0
C  C64  1  0.83722585  0.04597598  0.58762778  1  -0.290468  0  -0.0302  -0.05873  0  4.079595  0
C  C65  1  0.74439937  0.06822727  0.62007808  1  0.07796  0  -0.045864  -0.136064  0  4.137796  0
C  C66  1  0.74533310  0.95068253  0.39584017  1  0.024043  0  -0.035953  -0.138628  0  4.110228  0
C  C67  1  0.61658947  0.93190190  0.36091466  1  0.29987  0  0.079783  0.022751  0  4.14735  0
C  C68  1  0.23489533  0.91800320  0.37239274  1  -0.325003  0  -0.045213  -0.135476  0  4.135155  0
C  C69  1  0.14146994  0.94129575  0.40428763  1  0.025465  0  -0.02882  -0.056067  0  4.077842  0
C  C70  1  0.34075642  0.63829494  0.00333787  1  -0.529182  0  -0.017345  -0.022596  0  4.067404  0
C  C71  1  0.30248067  0.70279057  0.00647809  1  0.216064  0  -0.028973  -0.168846  0  3.914745  0
C  C72  1  0.74105685  0.30414794  0.00703681  1  0.219178  0  -0.026271  -0.166  0  3.908854  0
C  C73  1  0.69491787  0.36791014  0.00781127  1  -0.449859  0  -0.017473  -0.02427  0  4.072635  0
C  C74  1  0.29719734  0.30316997  0.98886280  1  -0.026551  0  -0.0266  -0.161089  0  3.911807  0
C  C75  1  0.34191637  0.36719145  0.99271967  1  -0.236125  0  -0.018994  -0.030073  0  4.076736  0
C  C76  1  0.69056118  0.63909903  0.01393526  1  -0.468589  0  -0.019755  -0.029631  0  4.071385  0
C  C77  1  0.72908011  0.70384729  0.01612370  1  0.19544  0  -0.029342  -0.167147  0  3.914654  0
C  C78  1  0.24907477  0.07415287  0.78444835  1  0.201839  0  -0.038333  -0.174937  0  3.909576  0
C  C79  1  0.33914932  0.09380298  0.75105049  1  -0.44163  0  -0.019155  -0.042667  0  4.10751  0
C  C80  1  0.73898427  0.90166866  0.21187466  1  0.317994  0  -0.036203  -0.17828  0  3.89726  0
C  C81  1  0.64354157  0.88263517  0.24373099  1  -0.537064  0  -0.014893  -0.033695  0  4.099009  0
N  N82  1  0.48532740  0.90220895  0.32246014  1  -1.197354  0  -0.192755  0.022547  0  3.772788  0
N  N83  1  0.49536640  0.07888693  0.67102272  1  -1.198537  0  -0.195761  0.040128  0  3.744753  0
O  O84  1  0.26126920  0.89572574  0.14300809  1  -1.21066  0  -0.65782  -0.906927  0  1.992917  0
O  O85  1  0.88066276  0.80382987  0.06046505  1  -1.156054  0  -0.348324  -0.591801  0  2.286534  0
O  O86  1  0.93229682  0.89043909  0.14964361  1  -1.160536  0  -0.339594  -0.601891  0  2.28878  0
O  O87  1  0.30560158  0.82216987  0.97415936  1  -1.178402  0  -0.330523  -0.612764  0  2.309272  0
O  O88  1  0.75953892  0.99051018  0.14437397  1  -1.180326  0  -0.307839  -0.613696  0  2.284408  0
O  O89  1  0.20753951  0.79955539  0.05558116  1  -1.147832  0  -0.338475  -0.581512  0  2.277242  0
O  O90  1  0.67892083  0.82054268  0.97882301  1  -1.176672  0  -0.321808  -0.614543  0  2.288303  0
O  O91  1  0.83744897  0.95891686  0.03119166  1  -1.237713  0  -0.77865  -1.188746  0  2.026299  0
O  O92  1  0.98805357  0.87225726  0.96746267  1  -1.238283  0  -0.684747  -1.072502  0  2.285417  0
O  O93  1  0.07112060  0.02140593  0.10839342  1  -1.300659  0  -0.681223  -1.060473  0  2.207078  0
O  O94  1  0.21583615  0.95902167  0.03062641  1  -1.22869  0  -0.773014  -1.160482  0  1.99177  0
O  O95  1  0.48247733  0.94071122  0.96043674  1  -1.280542  0  -0.672644  -0.984814  0  2.035637  0
O  O96  1  0.43041776  0.78167836  0.87116950  1  -1.251348  0  -0.584856  -0.738551  0  1.958872  0
O  O97  1  0.95994973  0.99446266  0.92224014  1  -1.217957  0  -0.789614  -1.177692  0  2.087592  0
O  O98  1  0.72870133  0.06284384  0.96318643  1  -1.234335  0  -0.678226  -1.015852  0  2.192089  0
O  O99  1  0.02370898  0.10168536  0.02197866  1  -1.225281  0  -0.78457  -1.199741  0  2.094608  0
O  O100  1  0.24707822  0.05970714  0.96173236  1  -1.244229  0  -0.681973  -1.053129  0  2.245287  0
O  O101  1  0.54052694  0.05428780  0.04618904  1  -1.282436  0  -0.698206  -1.016538  0  2.035263  0
O  O102  1  0.75014747  0.18516444  0.04062919  1  -1.171755  0  -0.339833  -0.607659  0  2.271686  0
O  O103  1  0.82456427  0.20798643  0.95497062  1  -1.151732  0  -0.339078  -0.590092  0  2.266027  0
O  O104  1  0.41815827  0.01334901  0.13934310  1  -1.28924  0  -0.636921  -0.835733  0  2.071397  0
O  O105  1  0.14592597  0.20389475  0.94198525  1  -1.163598  0  -0.356389  -0.605988  0  2.255554  0
O  O106  1  0.82301815  0.12809902  0.14112310  1  -1.248004  0  -0.615793  -0.83253  0  2.039769  0
O  O107  1  0.28013563  0.14672602  0.12834039  1  -1.225095  0  -0.663189  -0.9305  0  1.877992  0
O  O108  1  0.57978895  0.21857003  0.13863216  1  -1.240651  0  -0.576587  -0.729255  0  1.967466  0
O  O109  1  0.33459408  0.18692213  0.02668033  1  -1.167642  0  -0.326692  -0.617381  0  2.283771  0
O  O110  1  0.76256511  0.11556063  0.86121759  1  -1.212601  0  -0.654722  -0.911943  0  1.967163  0
O  O111  1  0.15450910  0.85629044  0.86944631  1  -1.264453  0  -0.609147  -0.829334  0  2.033773  0
O  O112  1  0.09239763  0.10474040  0.85374197  1  -1.174961  0  -0.343301  -0.611406  0  2.260083  0
O  O113  1  0.21326101  0.99120640  0.85502313  1  -1.18124  0  -0.338414  -0.626643  0  2.263661  0
O  O114  1  0.70868589  0.86730075  0.87023592  1  -1.272881  0  -0.66367  -0.969296  0  1.866796  0
O  O115  1  0.59609225  0.00020568  0.86541462  1  -1.254471  0  -0.614293  -0.81371  0  2.110911  0
