# generated using pymatgen
data_Hg4H22C11N2(Cl2O)4
_symmetry_space_group_name_H-M   'P 1'
_cell_length_a   7.82051266
_cell_length_b   10.28807929
_cell_length_c   10.53762375
_cell_angle_alpha   115.80201645
_cell_angle_beta   89.99377540
_cell_angle_gamma   112.34217598
_symmetry_Int_Tables_number   1
_chemical_formula_structural   Hg4H22C11N2(Cl2O)4
_chemical_formula_sum   'Hg4 H22 C11 N2 Cl8 O4'
_cell_volume   691.95008477
_cell_formula_units_Z   1
loop_
 _symmetry_equiv_pos_site_id
 _symmetry_equiv_pos_as_xyz
  1  'x, y, z'
loop_
 _atom_site_type_symbol
 _atom_site_label
 _atom_site_symmetry_multiplicity
 _atom_site_fract_x
 _atom_site_fract_y
 _atom_site_fract_z
 _atom_site_occupancy
 _atom_site_hle17_bader_spin_density
 _atom_site_hle17_ddec_charge
 _atom_site_hle17_ddec_spin_density
 _atom_site_hle17_ddec_sum_bond_order
 _atom_site_hle17_magmom
 _atom_site_hse06_10hf_bader_spin_density
 _atom_site_hse06_10hf_ddec_charge
 _atom_site_hse06_10hf_ddec_spin_density
 _atom_site_hse06_10hf_ddec_sum_bond_order
 _atom_site_hse06_10hf_magmom
 _atom_site_hse06_bader_spin_density
 _atom_site_hse06_ddec_charge
 _atom_site_hse06_ddec_spin_density
 _atom_site_hse06_ddec_sum_bond_order
 _atom_site_hse06_magmom
 _atom_site_pbe_bader_spin_density
 _atom_site_pbe_cm5_charge
 _atom_site_pbe_ddec_charge
 _atom_site_pbe_ddec_spin_density
 _atom_site_pbe_ddec_sum_bond_order
 _atom_site_pbe_magmom
Hg  Hg0  1  0.10658638  0.48731369  0.86390613  1  0  0.816611  0  1.987296  0  0  0.671579  0  2.479975  0  0  0.72193  0  2.439362  0  0  0.505841  0.636026  0  2.50869  0
Hg  Hg1  1  0.61960045  0.51265456  0.13605519  1  0  0.816924  0  1.985889  0  0  0.672015  0  2.478502  0  0  0.722359  0  2.437888  0  0  0.505947  0.636168  0  2.507265  0
Hg  Hg2  1  0.24421830  0.82052644  0.27963351  1  0  0.816011  0  2.060838  0  0  0.681723  0  2.557994  0  0  0.729107  0  2.518631  0  0  0.500249  0.649  0  2.585614  0
Hg  Hg3  1  0.42347936  0.17926913  0.72033554  1  0  0.816426  0  2.059411  0  0  0.682157  0  2.556278  0  0  0.729507  0  2.517012  0  0  0.500509  0.649609  0  2.584126  0
H  H4  1  0.06098557  0.98923197  0.77857784  1  0  0.107207  0  0.973831  0  0  0.114937  0  1.04445  0  0  0.117247  0  1.042947  0  0  0.102384  0.112858  0  1.045963  0
H  H5  1  0.07190350  0.01082513  0.22140036  1  0  0.107488  0  0.974221  0  0  0.114459  0  1.045263  0  0  0.11719  0  1.043862  0  0  0.102396  0.1124  0  1.046464  0
H  H6  1  0.96018916  0.90273115  0.59542107  1  0  0.124522  0  0.927992  0  0  0.136526  0  0.988453  0  0  0.138629  0  0.987352  0  0  0.114373  0.13458  0  0.989611  0
H  H7  1  0.05757185  0.09732138  0.40453565  1  0  0.124246  0  0.929257  0  0  0.135475  0  0.989925  0  0  0.138112  0  0.988798  0  0  0.114195  0.133576  0  0.990865  0
H  H8  1  0.91950040  0.74753826  0.78295838  1  0  0.118442  0  0.944498  0  0  0.134697  0  1.009148  0  0  0.13553  0  1.008779  0  0  0.102748  0.133426  0  1.009796  0
H  H9  1  0.17202513  0.25255426  0.21698943  1  0  0.118167  0  0.944924  0  0  0.133759  0  1.009702  0  0  0.135103  0  1.00934  0  0  0.102709  0.13257  0  1.010379  0
H  H10  1  0.67215131  0.62268561  0.70825997  1  0  0.125993  0  0.935004  0  0  0.145012  0  0.994295  0  0  0.145757  0  0.994221  0  0  0.103701  0.143807  0  0.994306  0
H  H11  1  0.04940588  0.37732966  0.29165860  1  0  0.125158  0  0.935215  0  0  0.143964  0  0.994323  0  0  0.145254  0  0.994214  0  0  0.10375  0.143016  0  0.994265  0
H  H12  1  0.83351282  0.66064029  0.59451884  1  0  0.124582  0  0.938565  0  0  0.139784  0  1.004304  0  0  0.141008  0  1.003504  0  0  0.10456  0.138285  0  1.005312  0
H  H13  1  0.17292490  0.33950585  0.40544055  1  0  0.124829  0  0.938391  0  0  0.139131  0  1.004671  0  0  0.140879  0  1.003856  0  0  0.10467  0.137751  0  1.005598  0
H  H14  1  0.63265674  0.73848138  0.50526765  1  0  0.120425  0  0.946508  0  0  0.137418  0  1.009766  0  0  0.138096  0  1.009685  0  0  0.100897  0.13652  0  1.009789  0
H  H15  1  0.89442764  0.26152512  0.49479877  1  0  0.120064  0  0.94615  0  0  0.136549  0  1.00976  0  0  0.137735  0  1.009663  0  0  0.100845  0.135604  0  1.009736  0
H  H16  1  0.47686666  0.71546224  0.62669995  1  0  0.119652  0  0.959416  0  0  0.134268  0  1.025991  0  0  0.135788  0  1.024909  0  0  0.095864  0.132783  0  1.026925  0
H  H17  1  0.76154260  0.28458071  0.37346711  1  0  0.119773  0  0.958921  0  0  0.1343  0  1.02505  0  0  0.136247  0  1.024086  0  0  0.095957  0.132601  0  1.026401  0
H  H18  1  0.58342139  0.90311736  0.62504919  1  0  0.12018  0  0.975294  0  0  0.135178  0  1.041004  0  0  0.136546  0  1.039875  0  0  0.098952  0.133541  0  1.042148  0
H  H19  1  0.68053103  0.09692318  0.37507885  1  0  0.119869  0  0.97495  0  0  0.13432  0  1.04106  0  0  0.136219  0  1.039872  0  0  0.098916  0.132717  0  1.042079  0
H  H20  1  0.59062538  0.83013824  0.87036949  1  0  0.092811  0  0.915076  0  0  0.105297  0  0.977652  0  0  0.105893  0  0.977733  0  0  0.109816  0.104529  0  0.977573  0
H  H21  1  0.76038118  0.16987367  0.12975071  1  0  0.093638  0  0.915231  0  0  0.105342  0  0.977873  0  0  0.106378  0  0.978026  0  0  0.110093  0.104697  0  0.977595  0
H  H22  1  0.67349427  0.01615118  0.86877065  1  0  0.099199  0  0.966688  0  0  0.110625  0  1.029744  0  0  0.112067  0  1.029167  0  0  0.105331  0.109179  0  1.030173  0
H  H23  1  0.65747229  0.98380368  0.13123532  1  0  0.098882  0  0.966381  0  0  0.109917  0  1.02935  0  0  0.111745  0  1.028909  0  0  0.105121  0.108443  0  1.029839  0
H  H24  1  0.99856705  0.09156295  0.99586070  1  0  0.086464  0  0.943104  0  0  0.101799  0  1.007332  0  0  0.102601  0  1.007892  0  0  0.094091  0.101015  0  1.007326  0
H  H25  1  0.90735587  0.90879172  0.00413653  1  0  0.085224  0  0.943522  0  0  0.100783  0  1.007718  0  0  0.101643  0  1.008197  0  0  0.09385  0.10009  0  1.007552  0
C  C26  1  0.94787536  0.12659378  0.73021926  1  0  0.678391  0  3.877576  0  0  0.634753  0  4.168001  0  0  0.668393  0  4.163176  0  0  0.190598  0.611648  0  4.169736  0
C  C27  1  0.82148281  0.87343192  0.26980014  1  0  0.677382  0  3.881284  0  0  0.633311  0  4.171876  0  0  0.667476  0  4.166939  0  0  0.189539  0.610095  0  4.17391  0
C  C28  1  0.94126393  0.96645633  0.70540676  1  0  -0.20547  0  3.520402  0  0  -0.253708  0  3.745949  0  0  -0.254799  0  3.752661  0  0  -0.072228  -0.251291  0  3.741248  0
C  C29  1  0.97492616  0.03358494  0.29455646  1  0  -0.204806  0  3.524286  0  0  -0.249783  0  3.747865  0  0  -0.25359  0  3.755886  0  0  -0.071717  -0.247357  0  3.742653  0
C  C30  1  0.80050917  0.71066090  0.70147681  1  0  -0.210097  0  3.511808  0  0  -0.307481  0  3.749429  0  0  -0.303681  0  3.757032  0  0  -0.140886  -0.307634  0  3.743888  0
C  C31  1  0.08990172  0.28942918  0.29847788  1  0  -0.209313  0  3.513287  0  0  -0.304233  0  3.751086  0  0  -0.303002  0  3.759047  0  0  -0.14096  -0.304581  0  3.745133  0
C  C32  1  0.60191694  0.79828167  0.61118775  1  0  -0.218653  0  3.527961  0  0  -0.315252  0  3.763099  0  0  -0.311601  0  3.770489  0  0  -0.151719  -0.315479  0  3.757555  0
C  C33  1  0.80385350  0.20178178  0.38891584  1  0  -0.217596  0  3.525659  0  0  -0.312653  0  3.762232  0  0  -0.311462  0  3.769865  0  0  -0.151959  -0.31273  0  3.756755  0
C  C34  1  0.71555059  0.92623218  0.86935150  1  0  -0.039572  0  3.490633  0  0  -0.087711  0  3.722889  0  0  -0.084134  0  3.734706  0  0  -0.063432  -0.088307  0  3.71401  0
C  C35  1  0.78938080  0.07384393  0.13070226  1  0  -0.039951  0  3.491325  0  0  -0.084979  0  3.721396  0  0  -0.083671  0  3.734171  0  0  -0.06333  -0.085716  0  3.71271  0
C  C36  1  0.87064290  0.00014163  0.00002802  1  0  -0.136488  0  3.639274  0  0  -0.183114  0  3.89462  0  0  -0.185023  0  3.908188  0  0  -0.164323  -0.181947  0  3.88494  0
N  N37  1  0.76639566  0.85241596  0.72380440  1  0  0.160356  0  3.350662  0  0  0.263992  0  3.563239  0  0  0.252587  0  3.58696  0  0  -0.22371  0.269026  0  3.548115  0
N  N38  1  0.91408512  0.14763105  0.27620085  1  0  0.1591  0  3.352803  0  0  0.259458  0  3.567112  0  0  0.251649  0  3.588988  0  0  -0.223748  0.264641  0  3.5519  0
Cl  Cl39  1  0.08184844  0.46739488  0.07957617  1  0  -0.44021  0  1.094835  0  0  -0.372333  0  1.398939  0  0  -0.394111  0  1.377358  0  0  -0.239024  -0.357123  0  1.414012  0
Cl  Cl40  1  0.61461485  0.53237048  0.92029368  1  0  -0.440123  0  1.094188  0  0  -0.372094  0  1.398056  0  0  -0.393928  0  1.376487  0  0  -0.239138  -0.357  0  1.412923  0
Cl  Cl41  1  0.15187115  0.57046518  0.68745964  1  0  -0.419211  0  1.033723  0  0  -0.354563  0  1.309355  0  0  -0.372877  0  1.290324  0  0  -0.232209  -0.34315  0  1.324217  0
Cl  Cl42  1  0.58150003  0.42945074  0.31247661  1  0  -0.419375  0  1.033287  0  0  -0.354855  0  1.308906  0  0  -0.373096  0  1.289781  0  0  -0.23222  -0.343296  0  1.323656  0
Cl  Cl43  1  0.28313167  0.87677674  0.08534821  1  0  -0.421693  0  1.08188  0  0  -0.360359  0  1.372875  0  0  -0.380552  0  1.354128  0  0  -0.229877  -0.345996  0  1.386176  0
Cl  Cl44  1  0.40605491  0.12298927  0.91460286  1  0  -0.421525  0  1.081051  0  0  -0.360026  0  1.3716  0  0  -0.380295  0  1.352932  0  0  -0.229774  -0.345939  0  1.38548  0
Cl  Cl45  1  0.21866563  0.78299821  0.48363715  1  0  -0.418542  0  1.077353  0  0  -0.352194  0  1.364418  0  0  -0.373181  0  1.346168  0  0  -0.227693  -0.337866  0  1.378402  0
Cl  Cl46  1  0.43540697  0.21653268  0.51620821  1  0  -0.418215  0  1.07782  0  0  -0.35203  0  1.365055  0  0  -0.372885  0  1.34661  0  0  -0.227649  -0.337851  0  1.378453  0
O  O47  1  0.11281313  0.22095321  0.73091767  1  0  -0.647775  0  2.060912  0  0  -0.580874  0  2.323439  0  0  -0.614808  0  2.315277  0  0  -0.336067  -0.556243  0  2.327734  0
O  O48  1  0.89216975  0.77911682  0.26902411  1  0  -0.646306  0  2.059307  0  0  -0.57952  0  2.322153  0  0  -0.61345  0  2.313683  0  0  -0.335038  -0.555012  0  2.326563  0
O  O49  1  0.80776569  0.15876610  0.74785707  1  0  -0.621498  0  1.95125  0  0  -0.572394  0  2.186709  0  0  -0.599218  0  2.178518  0  0  -0.330557  -0.552731  0  2.191151  0
O  O50  1  0.64917930  0.84117749  0.25230246  1  0  -0.6216  0  1.955292  0  0  -0.572376  0  2.190904  0  0  -0.59931  0  2.182656  0  0  -0.330644  -0.552954  0  2.195441  0
