# generated using pymatgen
data_CdP2H18C14(NO3)2
_symmetry_space_group_name_H-M   'P 1'
_cell_length_a   5.55614493
_cell_length_b   11.21527413
_cell_length_c   14.22501988
_cell_angle_alpha   90.00029588
_cell_angle_beta   95.43079196
_cell_angle_gamma   90.00027791
_symmetry_Int_Tables_number   1
_chemical_formula_structural   CdP2H18C14(NO3)2
_chemical_formula_sum   'Cd2 P4 H36 C28 N4 O12'
_cell_volume   882.43456433
_cell_formula_units_Z   2
loop_
 _symmetry_equiv_pos_site_id
 _symmetry_equiv_pos_as_xyz
  1  'x, y, z'
loop_
 _atom_site_type_symbol
 _atom_site_label
 _atom_site_symmetry_multiplicity
 _atom_site_fract_x
 _atom_site_fract_y
 _atom_site_fract_z
 _atom_site_occupancy
 _atom_site_hle17_bader_spin_density
 _atom_site_hle17_ddec_charge
 _atom_site_hle17_ddec_spin_density
 _atom_site_hle17_ddec_sum_bond_order
 _atom_site_hle17_magmom
 _atom_site_hse06_10hf_bader_spin_density
 _atom_site_hse06_10hf_ddec_charge
 _atom_site_hse06_10hf_ddec_spin_density
 _atom_site_hse06_10hf_ddec_sum_bond_order
 _atom_site_hse06_10hf_magmom
 _atom_site_hse06_bader_spin_density
 _atom_site_hse06_ddec_charge
 _atom_site_hse06_ddec_spin_density
 _atom_site_hse06_ddec_sum_bond_order
 _atom_site_hse06_magmom
 _atom_site_pbe_bader_spin_density
 _atom_site_pbe_cm5_charge
 _atom_site_pbe_ddec_charge
 _atom_site_pbe_ddec_spin_density
 _atom_site_pbe_ddec_sum_bond_order
 _atom_site_pbe_magmom
Cd  Cd0  1  0.00000178  0.99999517  0.00000070  1  0  1.260946  0  1.688717  0  0  1.077132  0  2.157779  0  0  1.126418  0  2.104169  0  0  0.809845  1.041869  0  2.19467  0
Cd  Cd1  1  0.49998905  0.50000073  0.49999720  1  0  1.260887  0  1.688733  0  0  1.07709  0  2.157779  0  0  1.126376  0  2.104173  0  0  0.809836  1.041832  0  2.194674  0
P  P2  1  0.46281373  0.82326031  0.91748619  1  0  1.384758  0  4.889485  0  0  1.223925  0  5.39456  0  0  1.276541  0  5.353891  0  0  0.355942  1.187219  0  5.421904  0
P  P3  1  0.96281048  0.67672875  0.41748019  1  0  1.384726  0  4.889382  0  0  1.223836  0  5.394445  0  0  1.276454  0  5.353771  0  0  0.355995  1.187132  0  5.421786  0
P  P4  1  0.53719338  0.17673489  0.08251339  1  0  1.384845  0  4.889382  0  0  1.224015  0  5.394449  0  0  1.276636  0  5.353778  0  0  0.356032  1.187312  0  5.421788  0
P  P5  1  0.03718750  0.32326557  0.58251488  1  0  1.384723  0  4.889378  0  0  1.223917  0  5.394421  0  0  1.276538  0  5.353743  0  0  0.355933  1.187213  0  5.421768  0
H  H6  1  0.12948044  0.65503898  0.81354482  1  0  0.103637  0  0.954874  0  0  0.114567  0  1.015566  0  0  0.11714  0  1.015603  0  0  0.110773  0.112679  0  1.015732  0
H  H7  1  0.62947373  0.84494681  0.31354571  1  0  0.103726  0  0.954757  0  0  0.114643  0  1.015481  0  0  0.117196  0  1.015538  0  0  0.110817  0.112803  0  1.015591  0
H  H8  1  0.87053575  0.34494820  0.18645648  1  0  0.103759  0  0.954688  0  0  0.114687  0  1.015404  0  0  0.11724  0  1.01546  0  0  0.110829  0.112838  0  1.015526  0
H  H9  1  0.37051345  0.15504484  0.68645110  1  0  0.103624  0  0.95488  0  0  0.114532  0  1.015612  0  0  0.117086  0  1.015669  0  0  0.110772  0.112656  0  1.015763  0
H  H10  1  0.15227682  0.54795508  0.66001618  1  0  0.08443  0  0.968321  0  0  0.091969  0  1.035127  0  0  0.094865  0  1.032362  0  0  0.116574  0.089787  0  1.037256  0
H  H11  1  0.65227495  0.95204491  0.16002048  1  0  0.084445  0  0.968247  0  0  0.091973  0  1.035057  0  0  0.094868  0  1.032295  0  0  0.116569  0.089791  0  1.037181  0
H  H12  1  0.84773206  0.45204816  0.33998136  1  0  0.084433  0  0.968374  0  0  0.091962  0  1.035182  0  0  0.094858  0  1.03242  0  0  0.116572  0.089781  0  1.037309  0
H  H13  1  0.34772666  0.04795208  0.83997541  1  0  0.08442  0  0.968405  0  0  0.091946  0  1.035223  0  0  0.094841  0  1.032462  0  0  0.116598  0.089766  0  1.037344  0
H  H14  1  0.81116336  0.70442272  0.62076432  1  0  0.086667  0  0.960895  0  0  0.090294  0  1.031881  0  0  0.093332  0  1.029189  0  0  0.117179  0.088066  0  1.033838  0
H  H15  1  0.31117212  0.79558454  0.12076896  1  0  0.086641  0  0.960878  0  0  0.090282  0  1.031861  0  0  0.093325  0  1.029159  0  0  0.117108  0.088054  0  1.033816  0
H  H16  1  0.18884367  0.29558319  0.37923176  1  0  0.086684  0  0.96091  0  0  0.090313  0  1.0319  0  0  0.093354  0  1.029202  0  0  0.117146  0.088085  0  1.033855  0
H  H17  1  0.68885149  0.20441959  0.87924103  1  0  0.086679  0  0.960878  0  0  0.090299  0  1.031886  0  0  0.093342  0  1.029184  0  0  0.117175  0.08807  0  1.03384  0
H  H18  1  0.81423783  0.81874677  0.77332397  1  0  0.120711  0  0.936842  0  0  0.131744  0  0.992498  0  0  0.135056  0  0.99177  0  0  0.11364  0.129348  0  0.993181  0
H  H19  1  0.31423988  0.68126059  0.27332652  1  0  0.120679  0  0.936918  0  0  0.131747  0  0.992536  0  0  0.135061  0  0.991805  0  0  0.113629  0.129352  0  0.993224  0
H  H20  1  0.18575841  0.18125913  0.22667384  1  0  0.120674  0  0.936944  0  0  0.131734  0  0.992569  0  0  0.135048  0  0.991836  0  0  0.113619  0.129335  0  0.993258  0
H  H21  1  0.68576022  0.31874531  0.72668268  1  0  0.120717  0  0.93682  0  0  0.131742  0  0.992484  0  0  0.135053  0  0.991758  0  0  0.113607  0.129347  0  0.993169  0
H  H22  1  0.74956001  0.60292458  0.92993092  1  0  0.025754  0  0.943612  0  0  0.041877  0  1.00958  0  0  0.04196  0  1.009235  0  0  0.091008  0.041754  0  1.00991  0
H  H23  1  0.24953899  0.89706583  0.42992864  1  0  0.025734  0  0.943734  0  0  0.041936  0  1.009589  0  0  0.042022  0  1.009242  0  0  0.091037  0.041774  0  1.009958  0
H  H24  1  0.25045076  0.39707152  0.07007090  1  0  0.025778  0  0.943707  0  0  0.041904  0  1.009628  0  0  0.041989  0  1.009281  0  0  0.09102  0.041743  0  1.009998  0
H  H25  1  0.75044105  0.10292492  0.57007214  1  0  0.025758  0  0.94361  0  0  0.041839  0  1.009604  0  0  0.041924  0  1.009258  0  0  0.091021  0.041706  0  1.009945  0
H  H26  1  0.90889040  0.71738586  0.99648892  1  0  0.056251  0  0.955754  0  0  0.068192  0  1.024431  0  0  0.068934  0  1.023943  0  0  0.099848  0.067538  0  1.02489  0
H  H27  1  0.40889706  0.78261697  0.49648711  1  0  0.056376  0  0.95563  0  0  0.068285  0  1.024339  0  0  0.069039  0  1.023857  0  0  0.099869  0.067632  0  1.024793  0
H  H28  1  0.09110230  0.28261649  0.00351230  1  0  0.056254  0  0.955787  0  0  0.068176  0  1.024445  0  0  0.068922  0  1.023964  0  0  0.099836  0.067523  0  1.024898  0
H  H29  1  0.59110112  0.21738537  0.50351710  1  0  0.05623  0  0.955776  0  0  0.06816  0  1.02443  0  0  0.068908  0  1.023954  0  0  0.099845  0.067506  0  1.024886  0
H  H30  1  0.77235068  0.62528439  0.14637648  1  0  0.103016  0  0.970294  0  0  0.122723  0  1.032994  0  0  0.122907  0  1.035792  0  0  0.085872  0.122538  0  1.031108  0
H  H31  1  0.27233623  0.87472294  0.64637367  1  0  0.102962  0  0.97027  0  0  0.122706  0  1.032966  0  0  0.122891  0  1.03576  0  0  0.085873  0.12252  0  1.031076  0
H  H32  1  0.22764918  0.37472955  0.85362216  1  0  0.102883  0  0.970265  0  0  0.122696  0  1.032893  0  0  0.122882  0  1.035689  0  0  0.085854  0.122512  0  1.031004  0
H  H33  1  0.72764382  0.12528832  0.35362712  1  0  0.103044  0  0.970275  0  0  0.122754  0  1.032972  0  0  0.12294  0  1.035766  0  0  0.085895  0.122569  0  1.031088  0
H  H34  1  0.62545947  0.50956323  0.07697979  1  0  0.104705  0  0.962899  0  0  0.124884  0  1.025463  0  0  0.125964  0  1.02588  0  0  0.088076  0.124054  0  1.025241  0
H  H35  1  0.12543344  0.99043080  0.57696933  1  0  0.104621  0  0.962869  0  0  0.124863  0  1.025385  0  0  0.125943  0  1.025799  0  0  0.088072  0.124027  0  1.025172  0
H  H36  1  0.37454609  0.49044268  0.92303099  1  0  0.104623  0  0.962937  0  0  0.124825  0  1.025519  0  0  0.125905  0  1.025934  0  0  0.088069  0.12399  0  1.025305  0
H  H37  1  0.87453557  0.00956619  0.42302265  1  0  0.104714  0  0.96291  0  0  0.124899  0  1.025465  0  0  0.125978  0  1.025881  0  0  0.088096  0.124068  0  1.025243  0
H  H38  1  0.94538695  0.52364889  0.08474771  1  0  0.0995  0  0.960521  0  0  0.123416  0  1.01965  0  0  0.124052  0  1.020182  0  0  0.090389  0.122919  0  1.019318  0
H  H39  1  0.44535542  0.97635844  0.58474052  1  0  0.099587  0  0.960472  0  0  0.123475  0  1.019641  0  0  0.124112  0  1.020171  0  0  0.090414  0.122976  0  1.019309  0
H  H40  1  0.05462763  0.47635702  0.91526267  1  0  0.099521  0  0.960472  0  0  0.123401  0  1.019663  0  0  0.124037  0  1.020195  0  0  0.090383  0.122903  0  1.019333  0
H  H41  1  0.55460822  0.02365103  0.41525409  1  0  0.099491  0  0.960474  0  0  0.123379  0  1.019645  0  0  0.124015  0  1.020175  0  0  0.090367  0.122883  0  1.019312  0
C  C42  1  0.47294308  0.74404299  0.80621855  1  0  -0.183108  0  3.758964  0  0  -0.14744  0  3.998161  0  0  -0.152078  0  4.017826  0  0  -0.006873  -0.144143  0  3.985019  0
C  C43  1  0.97294077  0.75595517  0.30621641  1  0  -0.183214  0  3.759165  0  0  -0.147485  0  3.998301  0  0  -0.152129  0  4.017972  0  0  -0.006821  -0.144194  0  3.985174  0
C  C44  1  0.52706586  0.25595578  0.19378180  1  0  -0.18318  0  3.758995  0  0  -0.14756  0  3.998262  0  0  -0.152211  0  4.017947  0  0  -0.006884  -0.144261  0  3.985126  0
C  C45  1  0.02705553  0.24404361  0.69378422  1  0  -0.183179  0  3.759024  0  0  -0.147454  0  3.998132  0  0  -0.152098  0  4.017805  0  0  -0.00682  -0.144159  0  3.984994  0
C  C46  1  0.28500699  0.66714753  0.77345219  1  0  -0.09589  0  3.740176  0  0  -0.115705  0  3.984559  0  0  -0.120729  0  4.00677  0  0  -0.074245  -0.112512  0  3.969784  0
C  C47  1  0.78499834  0.83284729  0.27345296  1  0  -0.095857  0  3.74001  0  0  -0.115694  0  3.984389  0  0  -0.120695  0  4.006603  0  0  -0.074289  -0.112542  0  3.969598  0
C  C48  1  0.71500920  0.33284501  0.22654911  1  0  -0.096009  0  3.739931  0  0  -0.115827  0  3.984346  0  0  -0.120824  0  4.00656  0  0  -0.074372  -0.112666  0  3.969559  0
C  C49  1  0.21499791  0.16715238  0.72654556  1  0  -0.095664  0  3.739916  0  0  -0.115478  0  3.984279  0  0  -0.120481  0  4.006498  0  0  -0.074242  -0.112296  0  3.969499  0
C  C50  1  0.29686362  0.60741444  0.68832368  1  0  0.121332  0  3.689408  0  0  0.092885  0  3.937853  0  0  0.098737  0  3.955928  0  0  0.047555  0.089051  0  3.925639  0
C  C51  1  0.79686468  0.89258698  0.18832572  1  0  0.121252  0  3.689348  0  0  0.092827  0  3.937796  0  0  0.098677  0  3.955867  0  0  0.047554  0.088992  0  3.92559  0
C  C52  1  0.70314349  0.39258701  0.31167591  1  0  0.121193  0  3.689448  0  0  0.092763  0  3.937889  0  0  0.098613  0  3.955959  0  0  0.047518  0.088928  0  3.925684  0
C  C53  1  0.20314061  0.10741090  0.81167310  1  0  0.121128  0  3.689367  0  0  0.092681  0  3.937847  0  0  0.09853  0  3.95592  0  0  0.047453  0.088845  0  3.925635  0
C  C54  1  0.66538963  0.69461553  0.66648164  1  0  0.127336  0  3.67933  0  0  0.100834  0  3.929309  0  0  0.106816  0  3.947194  0  0  0.050777  0.096952  0  3.917158  0
C  C55  1  0.16540028  0.80539256  0.16648568  1  0  0.127352  0  3.679302  0  0  0.100824  0  3.929314  0  0  0.106805  0  3.947202  0  0  0.050849  0.096945  0  3.917156  0
C  C56  1  0.33460840  0.30538860  0.33351554  1  0  0.127216  0  3.67915  0  0  0.100692  0  3.929159  0  0  0.106673  0  3.947045  0  0  0.050776  0.096813  0  3.917005  0
C  C57  1  0.83461602  0.19461156  0.83352055  1  0  0.127457  0  3.679025  0  0  0.100949  0  3.929027  0  0  0.10693  0  3.946911  0  0  0.050845  0.097071  0  3.916871  0
C  C58  1  0.66621452  0.75817734  0.75079937  1  0  -0.10592  0  3.724351  0  0  -0.124836  0  3.96598  0  0  -0.130048  0  3.98747  0  0  -0.075589  -0.121528  0  3.951641  0
C  C59  1  0.16622085  0.74183042  0.25080230  1  0  -0.105895  0  3.724538  0  0  -0.124854  0  3.96617  0  0  -0.130066  0  3.987664  0  0  -0.075617  -0.121548  0  3.951835  0
C  C60  1  0.33378346  0.24182679  0.24919570  1  0  -0.105813  0  3.724349  0  0  -0.124719  0  3.965966  0  0  -0.129929  0  3.987463  0  0  -0.075518  -0.121412  0  3.951627  0
C  C61  1  0.83378637  0.25817549  0.74920221  1  0  -0.106048  0  3.7244  0  0  -0.124972  0  3.966038  0  0  -0.130183  0  3.987531  0  0  -0.075609  -0.121667  0  3.951702  0
C  C62  1  0.75596990  0.65510008  0.99591245  1  0  0.172079  0  3.62898  0  0  0.113865  0  3.904222  0  0  0.122408  0  3.910091  0  0  -0.06911  0.10811  0  3.900124  0
C  C63  1  0.25596278  0.84489435  0.49591043  1  0  0.171834  0  3.629183  0  0  0.113535  0  3.904449  0  0  0.122058  0  3.910339  0  0  -0.069235  0.10781  0  3.900339  0
C  C64  1  0.24403186  0.34489870  0.00409047  1  0  0.171936  0  3.629265  0  0  0.113772  0  3.904392  0  0  0.122307  0  3.91027  0  0  -0.069141  0.108048  0  3.900286  0
C  C65  1  0.74402272  0.15509997  0.50409194  1  0  0.1721  0  3.629128  0  0  0.114  0  3.904254  0  0  0.122529  0  3.910137  0  0  -0.069094  0.108256  0  3.900153  0
C  C66  1  0.77505673  0.57378031  0.08097521  1  0  -0.318671  0  3.708277  0  0  -0.395266  0  3.953637  0  0  -0.398128  0  3.964015  0  0  -0.250479  -0.393079  0  3.946456  0
C  C67  1  0.27503552  0.92621857  0.58096887  1  0  -0.318562  0  3.708297  0  0  -0.395223  0  3.953622  0  0  -0.398082  0  3.964001  0  0  -0.250454  -0.39303  0  3.946421  0
C  C68  1  0.22495414  0.42622382  0.91903083  1  0  -0.318434  0  3.708259  0  0  -0.39515  0  3.953607  0  0  -0.398011  0  3.963984  0  0  -0.250439  -0.392955  0  3.946405  0
C  C69  1  0.72493901  0.07378288  0.41902752  1  0  -0.318682  0  3.708353  0  0  -0.395282  0  3.953687  0  0  -0.398144  0  3.964067  0  0  -0.250482  -0.393095  0  3.946499  0
N  N70  1  0.48453611  0.62028355  0.63594192  1  0  -0.322544  0  3.224933  0  0  -0.246542  0  3.485615  0  0  -0.264126  0  3.503123  0  0  -0.318884  -0.234456  0  3.473482  0
N  N71  1  0.98454074  0.87972155  0.13594825  1  0  -0.322463  0  3.225037  0  0  -0.246463  0  3.485728  0  0  -0.264047  0  3.503237  0  0  -0.318855  -0.234373  0  3.473585  0
N  N72  1  0.51546913  0.37971701  0.36405480  1  0  -0.322314  0  3.224863  0  0  -0.246292  0  3.485525  0  0  -0.263875  0  3.503038  0  0  -0.31878  -0.234204  0  3.473387  0
N  N73  1  0.01547548  0.12027901  0.86405446  1  0  -0.322472  0  3.224852  0  0  -0.246476  0  3.485558  0  0  -0.26406  0  3.50307  0  0  -0.318849  -0.234389  0  3.47342  0
O  O74  1  0.20157937  0.85282418  0.92785774  1  0  -0.83961  0  1.994285  0  0  -0.762013  0  2.281617  0  0  -0.790078  0  2.259675  0  0  -0.377091  -0.741907  0  2.296001  0
O  O75  1  0.70157409  0.64716967  0.42785576  1  0  -0.839563  0  1.994269  0  0  -0.761962  0  2.281619  0  0  -0.790027  0  2.259679  0  0  -0.377064  -0.741859  0  2.29601  0
O  O76  1  0.79842224  0.14717549  0.07213815  1  0  -0.839689  0  1.994452  0  0  -0.762069  0  2.281768  0  0  -0.790131  0  2.259822  0  0  -0.377111  -0.741965  0  2.296154  0
O  O77  1  0.29841487  0.35282732  0.57213971  1  0  -0.839661  0  1.994501  0  0  -0.762041  0  2.281819  0  0  -0.790102  0  2.259872  0  0  -0.377109  -0.741936  0  2.296208  0
O  O78  1  0.53139727  0.72103845  0.99606299  1  0  -0.511381  0  2.227703  0  0  -0.422498  0  2.479358  0  0  -0.444085  0  2.471409  0  0  -0.222898  -0.407294  0  2.48441  0
O  O79  1  0.03140755  0.77894295  0.49606339  1  0  -0.51134  0  2.227695  0  0  -0.422325  0  2.479287  0  0  -0.443907  0  2.471344  0  0  -0.222967  -0.407104  0  2.484304  0
O  O80  1  0.46859358  0.27895497  0.00393605  1  0  -0.511369  0  2.227769  0  0  -0.422445  0  2.47936  0  0  -0.44403  0  2.471413  0  0  -0.222941  -0.407242  0  2.484399  0
O  O81  1  0.96859242  0.22104245  0.50394017  1  0  -0.51136  0  2.227696  0  0  -0.422549  0  2.479372  0  0  -0.444134  0  2.471428  0  0  -0.222963  -0.407346  0  2.484421  0
O  O82  1  0.64767232  0.92169327  0.92043992  1  0  -0.843501  0  1.991115  0  0  -0.765391  0  2.273307  0  0  -0.792601  0  2.251153  0  0  -0.377364  -0.745988  0  2.287971  0
O  O83  1  0.14766930  0.57829505  0.42042641  1  0  -0.843461  0  1.991106  0  0  -0.765452  0  2.273435  0  0  -0.792665  0  2.251288  0  0  -0.377386  -0.746045  0  2.288098  0
O  O84  1  0.35234025  0.07829926  0.07956126  1  0  -0.843483  0  1.990972  0  0  -0.765458  0  2.273247  0  0  -0.792671  0  2.251102  0  0  -0.377417  -0.74605  0  2.287904  0
O  O85  1  0.85233211  0.42170105  0.57956034  1  0  -0.843489  0  1.991047  0  0  -0.765448  0  2.2733  0  0  -0.792661  0  2.251153  0  0  -0.377371  -0.746041  0  2.287962  0
