# generated using pymatgen
data_ZnH7C12N2(O2F)2
_symmetry_space_group_name_H-M   'P 1'
_cell_length_a   12.23382467
_cell_length_b   15.06330096
_cell_length_c   15.17478399
_cell_angle_alpha   90.00007312
_cell_angle_beta   89.99991331
_cell_angle_gamma   90.00000395
_symmetry_Int_Tables_number   1
_chemical_formula_structural   ZnH7C12N2(O2F)2
_chemical_formula_sum   'Zn8 H56 C96 N16 O32 F16'
_cell_volume   2796.43624824
_cell_formula_units_Z   8
loop_
 _symmetry_equiv_pos_site_id
 _symmetry_equiv_pos_as_xyz
  1  'x, y, z'
loop_
 _atom_site_type_symbol
 _atom_site_label
 _atom_site_symmetry_multiplicity
 _atom_site_fract_x
 _atom_site_fract_y
 _atom_site_fract_z
 _atom_site_occupancy
 _atom_site_pbe_bader_charge
 _atom_site_pbe_bader_spin_density
 _atom_site_pbe_cm5_charge
 _atom_site_pbe_ddec_charge
 _atom_site_pbe_ddec_spin_density
 _atom_site_pbe_ddec_sum_bond_order
 _atom_site_pbe_magmom
Zn  Zn0  1  0.78380806  0.38493215  0.86068944  1  1.301175  0  0.658945  0.772915  0  2.356231  0
Zn  Zn1  1  0.71619190  0.61506464  0.36068844  1  1.301241  0  0.65896  0.772953  0  2.35615  0
Zn  Zn2  1  0.21619348  0.88493527  0.63931035  1  1.301298  0  0.658959  0.77293  0  2.356198  0
Zn  Zn3  1  0.28380809  0.11506651  0.13930995  1  1.30119  0  0.658969  0.772986  0  2.356164  0
Zn  Zn4  1  0.85313314  0.73993397  0.79497007  1  1.309397  0  0.659018  0.778421  0  2.366181  0
Zn  Zn5  1  0.64686612  0.26006406  0.29497201  1  1.309473  0  0.658999  0.778396  0  2.366285  0
Zn  Zn6  1  0.14686756  0.23993459  0.70502888  1  1.309402  0  0.658974  0.778346  0  2.366384  0
Zn  Zn7  1  0.35313389  0.76006728  0.20502855  1  1.30942  0  0.658996  0.778387  0  2.36626  0
H  H8  1  0.72211695  0.26934515  0.69357533  1  0.125692  0  0.114994  0.086044  0  1.030238  0
H  H9  1  0.77788577  0.73065474  0.19357572  1  0.125737  0  0.115006  0.08606  0  1.030205  0
H  H10  1  0.27788294  0.76934253  0.80642299  1  0.125755  0  0.114981  0.086042  0  1.030194  0
H  H11  1  0.22211669  0.23065616  0.30642282  1  0.125738  0  0.11499  0.086041  0  1.030278  0
H  H12  1  0.57669149  0.15626035  0.65501401  1  0.057131  0  0.105828  0.107063  0  1.019022  0
H  H13  1  0.92331376  0.84373617  0.15501502  1  0.057183  0  0.105824  0.107013  0  1.019058  0
H  H14  1  0.42331003  0.65625977  0.84498286  1  0.057195  0  0.105854  0.107058  0  1.019009  0
H  H15  1  0.07668871  0.34373896  0.34498432  1  0.057166  0  0.105844  0.107051  0  1.019043  0
H  H16  1  0.43905168  0.11484520  0.77033301  1  0.165238  0  0.108461  0.116547  0  1.035833  0
H  H17  1  0.06095129  0.88515211  0.27033583  1  0.165259  0  0.108448  0.116496  0  1.035803  0
H  H18  1  0.56095147  0.61484713  0.72966381  1  0.165241  0  0.108444  0.116512  0  1.035832  0
H  H19  1  0.93904873  0.38515214  0.22966488  1  0.165239  0  0.108446  0.116521  0  1.035818  0
H  H20  1  0.45595712  0.18392511  0.92146402  1  0.112047  0  0.113623  0.126809  0  1.000311  0
H  H21  1  0.04403983  0.81607373  0.42146876  1  0.111953  0  0.113639  0.126816  0  1.000357  0
H  H22  1  0.54404521  0.68392751  0.57853288  1  0.111943  0  0.11363  0.126779  0  1.000322  0
H  H23  1  0.95595528  0.31607223  0.07853385  1  0.111974  0  0.113643  0.126791  0  1.00033  0
H  H24  1  0.54710935  0.29310643  0.02052930  1  0.1713  0  0.123279  0.104466  0  1.021279  0
H  H25  1  0.95288307  0.70689390  0.52053248  1  0.171388  0  0.123332  0.104403  0  1.021343  0
H  H26  1  0.45288984  0.79310803  0.47946800  1  0.171329  0  0.123282  0.104422  0  1.021329  0
H  H27  1  0.04711028  0.20689155  0.97946841  1  0.171334  0  0.123291  0.104427  0  1.021328  0
H  H28  1  0.76406923  0.37614805  0.10102592  1  0.114664  0  0.117601  0.115435  0  0.971584  0
H  H29  1  0.73592467  0.62385106  0.60102662  1  0.114576  0  0.117599  0.11543  0  0.971596  0
H  H30  1  0.23592915  0.87614886  0.39897412  1  0.114659  0  0.117615  0.115453  0  0.971616  0
H  H31  1  0.26407193  0.12385260  0.89897284  1  0.114619  0  0.117592  0.115422  0  0.97162  0
H  H32  1  0.62174906  0.39460217  0.10606596  1  0.107015  0  0.116338  0.11515  0  0.980825  0
H  H33  1  0.87824566  0.60539960  0.60606712  1  0.106986  0  0.116339  0.115149  0  0.980842  0
H  H34  1  0.37824933  0.89460033  0.39393279  1  0.107009  0  0.116355  0.115139  0  0.980831  0
H  H35  1  0.12175095  0.10539979  0.89393232  1  0.106918  0  0.116343  0.115121  0  0.980859  0
H  H36  1  0.73518627  0.82670264  0.04054035  1  0.057257  0  0.112784  0.094994  0  0.954354  0
H  H37  1  0.76481429  0.17329572  0.54054177  1  0.063701  0  0.112766  0.094986  0  0.95438  0
H  H38  1  0.26481293  0.32670293  0.45945897  1  0.057245  0  0.112778  0.095017  0  0.954354  0
H  H39  1  0.23518641  0.67329794  0.95946039  1  0.057277  0  0.112799  0.095021  0  0.954331  0
H  H40  1  0.87144541  0.79467379  0.00993026  1  0.117522  0  0.117393  0.112866  0  0.984247  0
H  H41  1  0.62855521  0.20532453  0.50993122  1  0.117514  0  0.117391  0.112876  0  0.984248  0
H  H42  1  0.12855461  0.29467478  0.49007034  1  0.117515  0  0.117393  0.112873  0  0.984265  0
H  H43  1  0.37144549  0.70532614  0.99006966  1  0.117516  0  0.117393  0.112853  0  0.984271  0
H  H44  1  0.64261096  0.89225326  0.93282596  1  0.117328  0  0.124906  0.096718  0  0.971905  0
H  H45  1  0.85739050  0.10774628  0.43282613  1  0.117337  0  0.124911  0.096731  0  0.971915  0
H  H46  1  0.35738976  0.39225504  0.56717383  1  0.117336  0  0.124907  0.096728  0  0.971918  0
H  H47  1  0.14261276  0.60774466  0.06717489  1  0.117395  0  0.124919  0.096738  0  0.971885  0
H  H48  1  0.53160899  0.95981540  0.81276044  1  0.138493  0  0.104866  0.113219  0  1.04887  0
H  H49  1  0.96839188  0.04018598  0.31275908  1  0.138505  0  0.104874  0.113229  0  1.048871  0
H  H50  1  0.46839173  0.45981535  0.68724010  1  0.13849  0  0.104868  0.113234  0  1.048853  0
H  H51  1  0.03161138  0.54018584  0.18723989  1  0.13854  0  0.104894  0.113267  0  1.048816  0
H  H52  1  0.50006790  0.98519419  0.65194435  1  0.131298  0  0.107993  0.112621  0  1.017931  0
H  H53  1  0.99993081  0.01480631  0.15194291  1  0.131301  0  0.107984  0.112614  0  1.017923  0
H  H54  1  0.49993201  0.48519369  0.84805622  1  0.131359  0  0.107969  0.112584  0  1.017933  0
H  H55  1  0.00006836  0.51480704  0.34805602  1  0.131305  0  0.10797  0.112617  0  1.017925  0
H  H56  1  0.63055377  0.91486625  0.54322769  1  0.078318  0  0.113427  0.121257  0  0.985968  0
H  H57  1  0.86944515  0.08513478  0.04322782  1  0.078327  0  0.113428  0.121233  0  0.986025  0
H  H58  1  0.36944613  0.41486588  0.95677214  1  0.078315  0  0.113431  0.121273  0  0.985955  0
H  H59  1  0.13055321  0.58513632  0.45677318  1  0.078303  0  0.11344  0.121235  0  0.986025  0
H  H60  1  0.78137490  0.81759943  0.60185638  1  0.114816  0  0.121542  0.095184  0  0.987642  0
H  H61  1  0.71862391  0.18240167  0.10185813  1  0.115128  0  0.121553  0.0952  0  0.987697  0
H  H62  1  0.21862418  0.31759897  0.89814267  1  0.114816  0  0.121513  0.095134  0  0.987691  0
H  H63  1  0.28137609  0.68240182  0.39814431  1  0.115073  0  0.121555  0.095209  0  0.987684  0
C  C64  1  0.66072646  0.24781670  0.74102315  1  0.512102  0  0.056237  0.108887  0  3.927334  0
C  C65  1  0.83927536  0.75218259  0.24102349  1  0.512004  0  0.056266  0.108893  0  3.927224  0
C  C66  1  0.33927425  0.74781468  0.75897449  1  0.512136  0  0.056213  0.108774  0  3.927301  0
C  C67  1  0.16072628  0.25218461  0.25897574  1  0.511846  0  0.056216  0.108804  0  3.927267  0
C  C68  1  0.58048010  0.18502500  0.72076455  1  -0.00371  0  -0.077719  -0.120397  0  3.946488  0
C  C69  1  0.91952012  0.81497492  0.22076685  1  -0.003697  0  -0.077675  -0.120239  0  3.946385  0
C  C70  1  0.41952141  0.68502368  0.77923235  1  -0.00368  0  -0.077715  -0.120289  0  3.946338  0
C  C71  1  0.08047990  0.31497630  0.27923378  1  -0.003694  0  -0.077706  -0.120275  0  3.94631  0
C  C72  1  0.50474739  0.16125734  0.78512332  1  -0.048615  0  -0.062775  -0.014127  0  3.927593  0
C  C73  1  0.99525271  0.83874134  0.28512622  1  -0.048792  0  -0.062829  -0.014216  0  3.92775  0
C  C74  1  0.49525576  0.66125859  0.71487289  1  -0.048851  0  -0.062825  -0.014251  0  3.927725  0
C  C75  1  0.00474485  0.33874063  0.21487444  1  -0.048821  0  -0.062797  -0.014222  0  3.927721  0
C  C76  1  0.51211541  0.20071090  0.86821646  1  -0.014837  0  -0.070475  -0.148317  0  3.905849  0
C  C77  1  0.98788372  0.79928789  0.36821931  1  -0.014584  0  -0.070473  -0.148271  0  3.905964  0
C  C78  1  0.48788774  0.70071404  0.63178047  1  -0.0146  0  -0.070455  -0.148199  0  3.905849  0
C  C79  1  0.01211303  0.29928641  0.13178196  1  -0.01461  0  -0.07053  -0.148309  0  3.905927  0
C  C80  1  0.59412409  0.26336119  0.88293560  1  0.456127  0  0.114428  0.184906  0  4.035982  0
C  C81  1  0.90587337  0.73663895  0.38293715  1  0.45615  0  0.11445  0.184895  0  4.036017  0
C  C82  1  0.40587661  0.76336231  0.61706272  1  0.456123  0  0.114464  0.184916  0  4.03602  0
C  C83  1  0.09412337  0.23663745  0.11706337  1  0.456128  0  0.114492  0.184993  0  4.035967  0
C  C84  1  0.60604670  0.30844167  0.96798658  1  0.62486  0  0.0894  0.05278  0  3.878951  0
C  C85  1  0.89394979  0.69155592  0.46798876  1  0.623898  0  0.089367  0.052824  0  3.879008  0
C  C86  1  0.39395320  0.80844268  0.53201179  1  0.624426  0  0.089396  0.052817  0  3.878892  0
C  C87  1  0.10604695  0.19155764  0.03201171  1  0.624454  0  0.089429  0.052853  0  3.878922  0
C  C88  1  0.69493390  0.40620718  0.06578264  1  0.311001  0  -0.055643  -0.058679  0  3.920996  0
C  C89  1  0.80506089  0.59379388  0.56578322  1  0.311057  0  -0.05565  -0.058758  0  3.921174  0
C  C90  1  0.30506531  0.90620737  0.43421546  1  0.310947  0  -0.055712  -0.058759  0  3.921014  0
C  C91  1  0.19493571  0.09379413  0.93421489  1  0.311054  0  -0.055647  -0.058656  0  3.921109  0
C  C92  1  0.71611372  0.50359485  0.05431894  1  0.160764  0  -0.015238  -0.077226  0  4.021163  0
C  C93  1  0.78388355  0.49640486  0.55431876  1  0.160333  0  -0.015218  -0.077128  0  4.02109  0
C  C94  1  0.28388627  0.00359579  0.44568130  1  0.160803  0  -0.01528  -0.077186  0  4.021248  0
C  C95  1  0.21611391  0.99640573  0.94567985  1  0.160674  0  -0.015235  -0.077206  0  4.021119  0
C  C96  1  0.63509084  0.56082332  0.02390212  1  0.520159  0  0.095807  0.147379  0  4.068784  0
C  C97  1  0.86490811  0.43917701  0.52390243  1  0.521769  0  0.095793  0.147331  0  4.068774  0
C  C98  1  0.36490997  0.06082431  0.47609819  1  0.520528  0  0.095802  0.147286  0  4.06887  0
C  C99  1  0.13509179  0.93917725  0.97609677  1  0.521728  0  0.095819  0.14736  0  4.068854  0
C  C100  1  0.65624042  0.64983302  0.00742680  1  0.514984  0  0.093733  0.144154  0  4.066923  0
C  C101  1  0.84376020  0.35016729  0.50742703  1  0.513722  0  0.093749  0.144218  0  4.066907  0
C  C102  1  0.34375876  0.14983203  0.49257428  1  0.514779  0  0.093781  0.144344  0  4.066812  0
C  C103  1  0.15624051  0.85016889  0.99257338  1  0.51373  0  0.093757  0.144252  0  4.066998  0
C  C104  1  0.75985069  0.68640005  0.02084705  1  0.099661  0  -0.021702  -0.098829  0  4.025468  0
C  C105  1  0.74015072  0.31360028  0.52084933  1  0.099679  0  -0.021716  -0.098851  0  4.02543  0
C  C106  1  0.24014850  0.18640037  0.47915275  1  0.099808  0  -0.021693  -0.09884  0  4.025365  0
C  C107  1  0.25985080  0.81360120  0.97915300  1  0.099695  0  -0.021721  -0.098916  0  4.025451  0
C  C108  1  0.84007332  0.62940592  0.05337527  1  0.508198  0  0.092245  0.136735  0  4.086599  0
C  C109  1  0.65992640  0.37059312  0.55337575  1  0.508151  0  0.092269  0.136716  0  4.086596  0
C  C110  1  0.15992586  0.12940686  0.44662380  1  0.508182  0  0.092334  0.136805  0  4.086527  0
C  C111  1  0.34007432  0.87059466  0.94662468  1  0.508186  0  0.092262  0.136775  0  4.086541  0
C  C112  1  0.81864828  0.54032719  0.06934646  1  0.537554  0  0.097501  0.154965  0  4.063248  0
C  C113  1  0.68134896  0.45967254  0.56934702  1  0.538099  0  0.097507  0.154869  0  4.063275  0
C  C114  1  0.18135253  0.04032744  0.43065250  1  0.53755  0  0.09751  0.154902  0  4.063308  0
C  C115  1  0.31864850  0.95967340  0.93065352  1  0.537651  0  0.097511  0.154966  0  4.06317  0
C  C116  1  0.78413164  0.78197535  0.99841225  1  0.319379  0  -0.047469  -0.050656  0  3.929654  0
C  C117  1  0.71586888  0.21802361  0.49841404  1  0.312977  0  -0.047475  -0.050705  0  3.929667  0
C  C118  1  0.21586826  0.28197638  0.50158742  1  0.31937  0  -0.047481  -0.050715  0  3.929663  0
C  C119  1  0.28413194  0.71802523  0.00158844  1  0.319399  0  -0.047464  -0.050633  0  3.929627  0
C  C120  1  0.69144610  0.85636004  0.88352439  1  0.647795  0  0.097206  0.06484  0  3.881129  0
C  C121  1  0.80855546  0.14364010  0.38352466  1  0.647713  0  0.09719  0.064814  0  3.881195  0
C  C122  1  0.30855380  0.35636121  0.61647537  1  0.648017  0  0.09721  0.064849  0  3.881143  0
C  C123  1  0.19144700  0.64364054  0.11647641  1  0.647768  0  0.0972  0.064816  0  3.881166  0
C  C124  1  0.67095872  0.87513142  0.79007596  1  0.516384  0  0.119948  0.193553  0  4.009644  0
C  C125  1  0.82904219  0.12486926  0.29007619  1  0.516364  0  0.119989  0.193512  0  4.009786  0
C  C126  1  0.32904199  0.37513206  0.70992381  1  0.516305  0  0.119959  0.193497  0  4.009712  0
C  C127  1  0.17096027  0.62486849  0.20992486  1  0.516395  0  0.1199  0.193505  0  4.009636  0
C  C128  1  0.58526192  0.93026142  0.76371456  1  -0.056118  0  -0.071078  -0.143679  0  3.905187  0
C  C129  1  0.91473822  0.06973923  0.26371461  1  -0.056121  0  -0.071096  -0.143663  0  3.905194  0
C  C130  1  0.41473798  0.43026143  0.73628529  1  -0.056137  0  -0.07112  -0.143728  0  3.905259  0
C  C131  1  0.08526423  0.56973915  0.23628637  1  -0.056135  0  -0.071102  -0.143691  0  3.905205  0
C  C132  1  0.56887874  0.94484382  0.67386881  1  0.000574  0  -0.063883  -0.021438  0  3.947319  0
C  C133  1  0.93112075  0.05515737  0.17386817  1  0.000599  0  -0.063883  -0.021454  0  3.947327  0
C  C134  1  0.43112198  0.44484196  0.82613105  1  0.000514  0  -0.063807  -0.021341  0  3.947241  0
C  C135  1  0.06887924  0.55515808  0.32613147  1  0.000596  0  -0.063828  -0.021447  0  3.94729  0
C  C136  1  0.64015413  0.90516324  0.61397794  1  -0.09172  0  -0.075471  -0.129035  0  3.957252  0
C  C137  1  0.85984465  0.09483788  0.11397809  1  -0.091722  0  -0.07545  -0.128955  0  3.957353  0
C  C138  1  0.35984577  0.40516344  0.88602253  1  -0.091715  0  -0.075478  -0.12906  0  3.957252  0
C  C139  1  0.14015452  0.59483867  0.38602291  1  -0.09173  0  -0.07548  -0.128989  0  3.957301  0
C  C140  1  0.72395210  0.85065396  0.64595525  1  0.528115  0  0.061921  0.113454  0  3.926916  0
C  C141  1  0.77604745  0.14934720  0.14595623  1  0.527801  0  0.061967  0.113446  0  3.92697  0
C  C142  1  0.27604780  0.35065412  0.85404450  1  0.528127  0  0.061915  0.113463  0  3.926906  0
C  C143  1  0.22395337  0.64934728  0.35404551  1  0.527816  0  0.061913  0.113454  0  3.926948  0
C  C144  1  0.75801324  0.56581809  0.80809838  1  1.571523  0  0.194992  0.462892  0  4.210912  0
C  C145  1  0.74198682  0.43417863  0.30809580  1  1.571333  0  0.19496  0.462988  0  4.210898  0
C  C146  1  0.24198582  0.06582136  0.69190365  1  1.571137  0  0.19493  0.462986  0  4.210928  0
C  C147  1  0.25801320  0.93418050  0.19190365  1  1.571461  0  0.194998  0.462999  0  4.21082  0
C  C148  1  0.87019479  0.56038240  0.85672503  1  1.598852  0  0.190003  0.458249  0  4.24057  0
C  C149  1  0.62980600  0.43961505  0.35672655  1  1.598924  0  0.189938  0.458092  0  4.240432  0
C  C150  1  0.12980590  0.06038493  0.64327370  1  1.598942  0  0.189954  0.458132  0  4.240443  0
C  C151  1  0.37019648  0.93961487  0.14327555  1  1.598959  0  0.189921  0.458104  0  4.240595  0
C  C152  1  0.94801438  0.33167814  0.73738607  1  1.593272  0  0.196892  0.47037  0  4.208263  0
C  C153  1  0.55198745  0.66831982  0.23738336  1  1.593604  0  0.1969  0.470385  0  4.208437  0
C  C154  1  0.05198797  0.83168142  0.76261497  1  1.593593  0  0.196862  0.470291  0  4.20856  0
C  C155  1  0.44801256  0.16831986  0.26261642  1  1.593605  0  0.196878  0.470325  0  4.208517  0
C  C156  1  0.97427755  0.28125034  0.82515268  1  1.573494  0  0.198537  0.470131  0  4.195158  0
C  C157  1  0.52572412  0.71874906  0.32515138  1  1.573138  0  0.198651  0.470348  0  4.194959  0
C  C158  1  0.02572480  0.78125217  0.67484764  1  1.573136  0  0.198652  0.470353  0  4.194924  0
C  C159  1  0.47427589  0.21874966  0.17484978  1  1.573142  0  0.198695  0.470382  0  4.194979  0
N  N160  1  0.66652833  0.28656988  0.81994093  1  -1.235205  0  -0.310849  -0.247766  0  3.498204  0
N  N161  1  0.83347089  0.71342951  0.31994189  1  -1.235138  0  -0.310856  -0.247785  0  3.498197  0
N  N162  1  0.33347156  0.78656975  0.68005742  1  -1.235197  0  -0.310792  -0.24766  0  3.498191  0
N  N163  1  0.16652748  0.21343010  0.18005729  1  -1.234923  0  -0.310824  -0.247735  0  3.498088  0
N  N164  1  0.68522553  0.36319728  0.97952084  1  -1.163902  0  -0.307589  -0.198991  0  3.406908  0
N  N165  1  0.81476931  0.63680166  0.47952238  1  -1.163055  0  -0.307638  -0.198944  0  3.407034  0
N  N166  1  0.31477355  0.86319826  0.52047761  1  -1.163511  0  -0.30758  -0.198972  0  3.406778  0
N  N167  1  0.18522742  0.13680270  0.02047671  1  -1.163539  0  -0.307628  -0.199046  0  3.40693  0
N  N168  1  0.76355190  0.79891049  0.90536712  1  -1.154772  0  -0.306327  -0.183132  0  3.435296  0
N  N169  1  0.73644880  0.20108835  0.40536821  1  -1.154765  0  -0.306282  -0.183054  0  3.435283  0
N  N170  1  0.23644881  0.29891164  0.59463256  1  -1.154955  0  -0.306295  -0.183094  0  3.435336  0
N  N171  1  0.26355203  0.70108943  0.09463293  1  -1.154804  0  -0.30632  -0.183116  0  3.435338  0
N  N172  1  0.73858522  0.83540039  0.73183059  1  -1.190109  0  -0.3004  -0.24488  0  3.452748  0
N  N173  1  0.76141498  0.16459955  0.23183160  1  -1.190137  0  -0.3005  -0.244913  0  3.452854  0
N  N174  1  0.26141468  0.33540110  0.76816914  1  -1.190098  0  -0.30041  -0.244823  0  3.452767  0
N  N175  1  0.23858747  0.66459953  0.26817015  1  -1.190132  0  -0.300395  -0.244888  0  3.452684  0
O  O176  1  0.89458614  0.48714483  0.89274130  1  -1.16056  0  -0.318972  -0.507598  0  2.320568  0
O  O177  1  0.60541784  0.51285267  0.39274030  1  -1.160548  0  -0.318934  -0.507518  0  2.320555  0
O  O178  1  0.10541867  0.98714724  0.60725796  1  -1.160555  0  -0.318942  -0.507515  0  2.320498  0
O  O179  1  0.39458460  0.01285450  0.10726060  1  -1.160572  0  -0.31897  -0.507566  0  2.320462  0
O  O180  1  0.92733555  0.63052706  0.85861699  1  -1.163389  0  -0.321186  -0.501718  0  2.281829  0
O  O181  1  0.57266360  0.36947039  0.35862113  1  -1.163476  0  -0.321149  -0.501652  0  2.281672  0
O  O182  1  0.07266188  0.13052891  0.64137984  1  -1.163491  0  -0.321153  -0.501678  0  2.281725  0
O  O183  1  0.42733642  0.86947088  0.14138286  1  -1.163502  0  -0.321109  -0.501638  0  2.281971  0
O  O184  1  0.69565988  0.49864955  0.81116201  1  -1.174922  0  -0.314141  -0.509706  0  2.287049  0
O  O185  1  0.80433936  0.50134386  0.31115812  1  -1.174905  0  -0.314129  -0.509758  0  2.287224  0
O  O186  1  0.30433922  0.99865607  0.68884122  1  -1.1749  0  -0.314129  -0.509777  0  2.287231  0
O  O187  1  0.19566063  0.00134910  0.18883947  1  -1.174915  0  -0.314187  -0.509793  0  2.287048  0
O  O188  1  0.73601280  0.63844690  0.76947120  1  -1.16697  0  -0.30889  -0.510375  0  2.332911  0
O  O189  1  0.76398406  0.36154578  0.26946719  1  -1.166844  0  -0.308877  -0.510432  0  2.332806  0
O  O190  1  0.26398463  0.13845420  0.73053224  1  -1.166621  0  -0.308823  -0.510405  0  2.332876  0
O  O191  1  0.23601350  0.86155102  0.23052954  1  -1.16696  0  -0.308857  -0.510384  0  2.33295  0
O  O192  1  0.85977542  0.37525756  0.73419533  1  -1.168377  0  -0.311706  -0.508464  0  2.337998  0
O  O193  1  0.64022559  0.62474238  0.23419510  1  -1.16846  0  -0.311728  -0.508466  0  2.338051  0
O  O194  1  0.14022529  0.87525952  0.76580378  1  -1.16848  0  -0.311716  -0.508437  0  2.338146  0
O  O195  1  0.35977441  0.12474177  0.26580463  1  -1.168462  0  -0.311743  -0.508494  0  2.338094  0
O  O196  1  0.01651670  0.32446983  0.67518806  1  -1.154416  0  -0.317675  -0.501527  0  2.312867  0
O  O197  1  0.48348562  0.67552736  0.17518812  1  -1.154411  0  -0.317668  -0.501587  0  2.312985  0
O  O198  1  0.98348646  0.82447191  0.82481100  1  -1.154353  0  -0.317658  -0.501536  0  2.312991  0
O  O199  1  0.51651356  0.17552815  0.32481299  1  -1.154425  0  -0.317652  -0.501533  0  2.312989  0
O  O200  1  0.90902561  0.29010103  0.88942777  1  -1.166462  0  -0.3205  -0.510703  0  2.273193  0
O  O201  1  0.59097511  0.70989912  0.38942704  1  -1.166546  0  -0.320613  -0.510866  0  2.272935  0
O  O202  1  0.09097592  0.79010212  0.61057256  1  -1.166629  0  -0.320563  -0.510804  0  2.273107  0
O  O203  1  0.40902489  0.20989896  0.11057345  1  -1.166423  0  -0.320614  -0.510871  0  2.272982  0
O  O204  1  0.06016685  0.23381118  0.82615948  1  -1.175338  0  -0.308914  -0.514663  0  2.344542  0
O  O205  1  0.43983601  0.76618687  0.32615774  1  -1.175266  0  -0.308932  -0.514723  0  2.344647  0
O  O206  1  0.93983549  0.73381373  0.67384144  1  -1.17523  0  -0.308981  -0.514786  0  2.344474  0
O  O207  1  0.56016482  0.26618747  0.17384349  1  -1.175279  0  -0.308952  -0.514729  0  2.344644  0
F  F208  1  0.57447114  0.70184350  0.97648648  1  -0.628904  0  -0.078896  -0.104504  0  1.437836  0
F  F209  1  0.92552942  0.29815676  0.47648680  1  -0.628903  0  -0.078914  -0.104527  0  1.43783  0
F  F210  1  0.42552711  0.20184323  0.52351902  1  -0.62883  0  -0.07897  -0.104652  0  1.43784  0
F  F211  1  0.07447223  0.79815840  0.02351578  1  -0.628873  0  -0.078922  -0.104567  0  1.437902  0
F  F212  1  0.53300340  0.52882568  0.00852533  1  -0.629507  0  -0.084045  -0.109605  0  1.376018  0
F  F213  1  0.96699477  0.47117397  0.50852688  1  -0.629858  0  -0.084053  -0.109609  0  1.3761  0
F  F214  1  0.46699495  0.02882602  0.49147493  1  -0.629889  0  -0.084028  -0.10957  0  1.376089  0
F  F215  1  0.03300351  0.97117357  0.99147170  1  -0.629841  0  -0.084076  -0.109638  0  1.376087  0
F  F216  1  0.94246811  0.66021326  0.06883179  1  -0.629558  0  -0.078306  -0.11463  0  1.454845  0
F  F217  1  0.55753322  0.33978580  0.56882906  1  -0.629553  0  -0.078282  -0.114557  0  1.45489  0
F  F218  1  0.05753353  0.16021417  0.43116600  1  -0.629555  0  -0.078337  -0.114637  0  1.454836  0
F  F219  1  0.44246831  0.83978733  0.93116870  1  -0.629563  0  -0.078303  -0.114628  0  1.454874  0
F  F220  1  0.90168769  0.48788983  0.09775667  1  -0.636074  0  -0.069987  -0.102295  0  1.437816  0
F  F221  1  0.59830786  0.51211060  0.59775410  1  -0.636131  0  -0.070023  -0.10228  0  1.437851  0
F  F222  1  0.09831152  0.98788997  0.40224483  1  -0.636069  0  -0.069999  -0.102275  0  1.43784  0
F  F223  1  0.40169038  0.01211149  0.90224588  1  -0.636105  0  -0.070016  -0.102325  0  1.437775  0
