# generated using pymatgen
data_Zn2H19C26(NO2)5
_symmetry_space_group_name_H-M   'P 1'
_cell_length_a   8.10776683
_cell_length_b   17.36113355
_cell_length_c   20.79710853
_cell_angle_alpha   89.99997284
_cell_angle_beta   95.58028545
_cell_angle_gamma   90.00010377
_symmetry_Int_Tables_number   1
_chemical_formula_structural   Zn2H19C26(NO2)5
_chemical_formula_sum   'Zn8 H76 C104 N20 O40'
_cell_volume   2913.52827350
_cell_formula_units_Z   4
loop_
 _symmetry_equiv_pos_site_id
 _symmetry_equiv_pos_as_xyz
  1  'x, y, z'
loop_
 _atom_site_type_symbol
 _atom_site_label
 _atom_site_symmetry_multiplicity
 _atom_site_fract_x
 _atom_site_fract_y
 _atom_site_fract_z
 _atom_site_occupancy
 _atom_site_pbe_bader_charge
 _atom_site_pbe_bader_spin_density
 _atom_site_pbe_cm5_charge
 _atom_site_pbe_ddec_charge
 _atom_site_pbe_ddec_spin_density
 _atom_site_pbe_ddec_sum_bond_order
 _atom_site_pbe_magmom
Zn  Zn0  1  0.44327012  0.83555954  0.50012810  1  1.284604  0  0.694955  0.879947  0  2.277887  0
Zn  Zn1  1  0.55673061  0.33556099  0.99987090  1  1.284576  0  0.694917  0.879898  0  2.277914  0
Zn  Zn2  1  0.55673505  0.16443982  0.49987221  1  1.284581  0  0.694911  0.87991  0  2.277929  0
Zn  Zn3  1  0.44326711  0.66443895  0.00012912  1  1.284631  0  0.694907  0.879896  0  2.277909  0
Zn  Zn4  1  0.12522758  0.81773928  0.01415887  1  1.295901  0  0.695221  0.88889  0  2.263385  0
Zn  Zn5  1  0.87477144  0.31773755  0.48584084  1  1.29592  0  0.695169  0.888773  0  2.263433  0
Zn  Zn6  1  0.87477139  0.18226066  0.98584072  1  1.295819  0  0.695212  0.888881  0  2.263365  0
Zn  Zn7  1  0.12522752  0.68226181  0.51415923  1  1.295882  0  0.695206  0.88887  0  2.263356  0
H  H8  1  0.75325055  0.85101951  0.46416322  1  0.666434  0  0.290595  0.394307  0  0.948931  0
H  H9  1  0.24674984  0.35101980  0.03583605  1  0.666467  0  0.290592  0.394305  0  0.948932  0
H  H10  1  0.24675214  0.14897928  0.53583555  1  0.666462  0  0.29057  0.39429  0  0.948952  0
H  H11  1  0.75325037  0.64898129  0.96416455  1  0.666446  0  0.290584  0.39432  0  0.948919  0
H  H12  1  0.61632768  0.84954260  0.40220196  1  0.618755  0  0.328756  0.408705  0  0.860945  0
H  H13  1  0.38367146  0.34954240  0.09779774  1  0.618745  0  0.328743  0.408665  0  0.860978  0
H  H14  1  0.38367253  0.15045676  0.59779768  1  0.618725  0  0.32874  0.408706  0  0.860943  0
H  H15  1  0.61632750  0.65045696  0.90220282  1  0.618763  0  0.328725  0.40866  0  0.86101  0
H  H16  1  0.94062703  0.85444516  0.10573628  1  0.645599  0  0.321995  0.40322  0  0.876787  0
H  H17  1  0.05936965  0.35444566  0.39426333  1  0.645594  0  0.322013  0.403248  0  0.876731  0
H  H18  1  0.05937194  0.14555536  0.89426283  1  0.645581  0  0.321968  0.403168  0  0.87682  0
H  H19  1  0.94062808  0.64555427  0.60573622  1  0.645604  0  0.321984  0.40319  0  0.876786  0
H  H20  1  0.80899151  0.84758554  0.04249119  1  0.67175  0  0.290431  0.397537  0  0.942393  0
H  H21  1  0.19100639  0.34758555  0.45750847  1  0.671758  0  0.290414  0.397544  0  0.942389  0
H  H22  1  0.19100498  0.15241382  0.95750879  1  0.671761  0  0.290427  0.397568  0  0.942353  0
H  H23  1  0.80899258  0.65241381  0.54249112  1  0.671753  0  0.290413  0.397537  0  0.942396  0
H  H24  1  0.76519165  0.01029379  0.76838325  1  0.513525  0  0.323726  0.28636  0  0.924749  0
H  H25  1  0.23480661  0.51029434  0.73161578  1  0.513517  0  0.323738  0.286377  0  0.924814  0
H  H26  1  0.23480484  0.98970787  0.23161769  1  0.513585  0  0.323741  0.286391  0  0.924787  0
H  H27  1  0.76519607  0.48970675  0.26838395  1  0.513533  0  0.323734  0.28639  0  0.92476  0
H  H28  1  0.67044492  0.54345199  0.48040355  1  0.133905  0  0.108699  0.113779  0  1.008597  0
H  H29  1  0.32955306  0.04345352  0.01959767  1  0.133924  0  0.108681  0.113776  0  1.008641  0
H  H30  1  0.32955404  0.45654795  0.51959605  1  0.133891  0  0.108692  0.113775  0  1.008633  0
H  H31  1  0.67044467  0.95654584  0.98040331  1  0.133923  0  0.108689  0.113787  0  1.008653  0
H  H32  1  0.46460621  0.45283230  0.29742198  1  0.086549  0  0.105327  0.106357  0  1.027401  0
H  H33  1  0.53539828  0.95283139  0.20257740  1  0.086924  0  0.105337  0.106365  0  1.027383  0
H  H34  1  0.53539648  0.54716937  0.70257679  1  0.086929  0  0.105345  0.10636  0  1.0274  0
H  H35  1  0.46460316  0.04716740  0.79742324  1  0.086958  0  0.105336  0.10636  0  1.027386  0
H  H36  1  0.32574678  0.67978284  0.35709469  1  0.140028  0  0.114345  0.132654  0  0.991828  0
H  H37  1  0.67425172  0.17978402  0.14290602  1  0.139992  0  0.11432  0.132616  0  0.991858  0
H  H38  1  0.67425095  0.32021710  0.64290486  1  0.140004  0  0.114343  0.132644  0  0.991851  0
H  H39  1  0.32574477  0.82021535  0.85709444  1  0.139932  0  0.114355  0.13267  0  0.991741  0
H  H40  1  0.00892114  0.41622220  0.18895696  1  0.101347  0  0.108147  0.117185  0  0.996099  0
H  H41  1  0.99108569  0.91622219  0.31104205  1  0.101466  0  0.108135  0.11714  0  0.996101  0
H  H42  1  0.99108030  0.58377716  0.81104369  1  0.101361  0  0.108136  0.117178  0  0.996103  0
H  H43  1  0.00891824  0.08377659  0.68895725  1  0.101367  0  0.108132  0.117172  0  0.996085  0
H  H44  1  0.84175906  0.54181693  0.01716737  1  0.131154  0  0.108899  0.115842  0  1.021838  0
H  H45  1  0.15824512  0.04181517  0.48283264  1  0.131142  0  0.108894  0.115848  0  1.02183  0
H  H46  1  0.15823867  0.45818243  0.98283313  1  0.131131  0  0.108894  0.11582  0  1.021858  0
H  H47  1  0.84175757  0.95818304  0.51716661  1  0.131132  0  0.108882  0.115816  0  1.021862  0
H  H48  1  0.21283398  0.64090693  0.15557589  1  0.150196  0  0.110463  0.121601  0  1.017213  0
H  H49  1  0.78716809  0.14090463  0.34442545  1  0.150316  0  0.110479  0.121608  0  1.017278  0
H  H50  1  0.78716499  0.35909358  0.84442419  1  0.150188  0  0.11046  0.121617  0  1.017223  0
H  H51  1  0.21283459  0.85909415  0.65557428  1  0.150215  0  0.110454  0.121573  0  1.017261  0
H  H52  1  0.67801302  0.76699266  0.60369889  1  0.124218  0  0.117995  0.093406  0  1.020152  0
H  H53  1  0.32198621  0.26699282  0.89630056  1  0.12424  0  0.118012  0.093421  0  1.020136  0
H  H54  1  0.32199462  0.23300785  0.39630247  1  0.124188  0  0.117965  0.093348  0  1.020304  0
H  H55  1  0.67801028  0.73300770  0.10369894  1  0.124245  0  0.117999  0.093418  0  1.020144  0
H  H56  1  0.83039705  0.81113728  0.70641929  1  0.102286  0  0.11404  0.131345  0  0.99985  0
H  H57  1  0.16959987  0.31113794  0.79358054  1  0.102276  0  0.11405  0.131338  0  0.999799  0
H  H58  1  0.16960687  0.18886438  0.29358242  1  0.102311  0  0.11405  0.131365  0  0.999813  0
H  H59  1  0.83039786  0.68886430  0.20641900  1  0.102263  0  0.114059  0.131344  0  0.999863  0
H  H60  1  0.55803778  0.02552199  0.68251507  1  0.067482  0  0.117238  0.138044  0  0.983096  0
H  H61  1  0.44196054  0.52552267  0.81748444  1  0.067457  0  0.117236  0.138033  0  0.983094  0
H  H62  1  0.44195995  0.97447794  0.31748592  1  0.067499  0  0.11723  0.138044  0  0.983094  0
H  H63  1  0.55804214  0.47447727  0.18251529  1  0.067485  0  0.117252  0.138067  0  0.983059  0
H  H64  1  0.42402699  0.97354993  0.57906938  1  0.1511  0  0.123256  0.103729  0  0.997158  0
H  H65  1  0.57597426  0.47355028  0.92092959  1  0.151117  0  0.123208  0.103558  0  0.997212  0
H  H66  1  0.57597446  0.02644886  0.42093127  1  0.151067  0  0.123231  0.103685  0  0.997152  0
H  H67  1  0.42402842  0.52644908  0.07907062  1  0.151121  0  0.123199  0.103553  0  0.997207  0
H  H68  1  0.92343910  0.74748416  0.89782677  1  0.115563  0  0.119411  0.096485  0  1.013548  0
H  H69  1  0.07656254  0.24748428  0.60217423  1  0.115552  0  0.119413  0.096518  0  1.013599  0
H  H70  1  0.07655615  0.25251520  0.10217220  1  0.115549  0  0.119429  0.096529  0  1.013577  0
H  H71  1  0.92343891  0.75251739  0.39782690  1  0.115513  0  0.119423  0.096501  0  1.013584  0
H  H72  1  0.76746452  0.79853955  0.79830799  1  0.08346  0  0.111578  0.12661  0  1.006335  0
H  H73  1  0.23253855  0.29854089  0.70169208  1  0.083472  0  0.111574  0.126617  0  1.006296  0
H  H74  1  0.23253197  0.20146212  0.20169199  1  0.083463  0  0.111572  0.126609  0  1.006366  0
H  H75  1  0.76746414  0.70146135  0.29830765  1  0.083468  0  0.111567  0.126609  0  1.006364  0
H  H76  1  0.98358129  0.02133116  0.84750836  1  0.134132  0  0.113908  0.131594  0  1.01409  0
H  H77  1  0.01641206  0.52132983  0.65249144  1  0.134142  0  0.113919  0.131637  0  1.014054  0
H  H78  1  0.01641644  0.97866993  0.15249262  1  0.134134  0  0.113947  0.131655  0  1.014147  0
H  H79  1  0.98358691  0.47867183  0.34750863  1  0.134176  0  0.11393  0.131636  0  1.014109  0
H  H80  1  0.12258877  0.96157639  0.94688184  1  0.12639  0  0.121805  0.097722  0  1.000981  0
H  H81  1  0.87740624  0.46157492  0.55311738  1  0.126258  0  0.12181  0.097743  0  1.000953  0
H  H82  1  0.87740896  0.03842239  0.05311867  1  0.126385  0  0.121758  0.097665  0  1.001026  0
H  H83  1  0.12259273  0.53842675  0.44688173  1  0.126167  0  0.121802  0.097723  0  1.001011  0
C  C84  1  0.49787261  0.61798163  0.42463109  1  -0.010853  0  -0.017989  -0.030104  0  3.983181  0
C  C85  1  0.50212565  0.11798327  0.07536963  1  -0.010744  0  -0.017942  -0.030096  0  3.983117  0
C  C86  1  0.50212759  0.38201831  0.57536807  1  -0.010754  0  -0.017941  -0.030011  0  3.983  0
C  C87  1  0.49787207  0.88201609  0.92463136  1  -0.010788  0  -0.017951  -0.030021  0  3.983191  0
C  C88  1  0.58867006  0.55006041  0.43605013  1  -0.101387  0  -0.068609  -0.090534  0  3.898605  0
C  C89  1  0.41132795  0.05006083  0.06395061  1  -0.10136  0  -0.068598  -0.090548  0  3.898628  0
C  C90  1  0.41133138  0.44994010  0.56394908  1  -0.101383  0  -0.068652  -0.090588  0  3.89864  0
C  C91  1  0.58866854  0.94993796  0.93605033  1  -0.101349  0  -0.068654  -0.09066  0  3.898703  0
C  C92  1  0.57843460  0.49097557  0.38991626  1  0.05626  0  -0.01739  -0.022301  0  3.983133  0
C  C93  1  0.42156631  0.99097576  0.11008441  1  0.056244  0  -0.017396  -0.022304  0  3.983203  0
C  C94  1  0.42156809  0.50902552  0.61008299  1  0.056336  0  -0.017414  -0.02247  0  3.983264  0
C  C95  1  0.57843265  0.00902360  0.88991662  1  0.056335  0  -0.017329  -0.022235  0  3.983112  0
C  C96  1  0.47259296  0.49854993  0.33345386  1  -0.052347  0  -0.078993  -0.164069  0  3.941169  0
C  C97  1  0.52740923  0.99854961  0.16654589  1  -0.052738  0  -0.079028  -0.164109  0  3.941196  0
C  C98  1  0.52741097  0.50145116  0.66654495  1  -0.052823  0  -0.079005  -0.164039  0  3.941298  0
C  C99  1  0.47258974  0.00144918  0.83345466  1  -0.052808  0  -0.079065  -0.164167  0  3.941202  0
C  C100  1  0.38014105  0.56626782  0.32200448  1  0.319444  0  0.079788  0.154073  0  4.077842  0
C  C101  1  0.61986074  0.06626778  0.17799591  1  0.319483  0  0.079767  0.15406  0  4.077786  0
C  C102  1  0.61986163  0.43373269  0.67799525  1  0.319644  0  0.079813  0.154163  0  4.077834  0
C  C103  1  0.38013823  0.93373101  0.82200464  1  0.31966  0  0.07981  0.154132  0  4.077692  0
C  C104  1  0.39546805  0.62670281  0.36686244  1  -0.038449  0  -0.071518  -0.148227  0  3.88722  0
C  C105  1  0.60453149  0.12670393  0.13313833  1  -0.038567  0  -0.071441  -0.148082  0  3.887106  0
C  C106  1  0.60453339  0.37329771  0.63313677  1  -0.038499  0  -0.071536  -0.148262  0  3.887108  0
C  C107  1  0.39546624  0.87329486  0.86686266  1  -0.038525  0  -0.071484  -0.148192  0  3.887  0
C  C108  1  0.12323149  0.52758076  0.17819032  1  0.337219  0  0.079451  0.153141  0  4.077422  0
C  C109  1  0.87677388  0.02757913  0.32180975  1  0.336927  0  0.079452  0.153107  0  4.077516  0
C  C110  1  0.87676872  0.47241975  0.82180980  1  0.337214  0  0.079457  0.153185  0  4.077345  0
C  C111  1  0.12323005  0.97241966  0.67819003  1  0.33695  0  0.079456  0.153156  0  4.077479  0
C  C112  1  0.01599385  0.46699827  0.15843755  1  -0.042939  0  -0.073342  -0.150787  0  3.915402  0
C  C113  1  0.98401069  0.96699767  0.34156183  1  -0.04283  0  -0.07337  -0.15081  0  3.9155  0
C  C114  1  0.98400512  0.53300167  0.84156252  1  -0.042974  0  -0.073329  -0.150777  0  3.915361  0
C  C115  1  0.01599323  0.03300054  0.65843747  1  -0.042724  0  -0.073356  -0.150822  0  3.915497  0
C  C116  1  0.91201509  0.47319181  0.10117449  1  -0.023084  0  -0.01896  -0.02526  0  3.982831  0
C  C117  1  0.08798947  0.97319041  0.39882489  1  -0.023134  0  -0.018914  -0.02499  0  3.982586  0
C  C118  1  0.08798387  0.52680812  0.89882510  1  -0.022901  0  -0.018943  -0.025246  0  3.982762  0
C  C119  1  0.91201445  0.02680838  0.60117537  1  -0.022905  0  -0.018917  -0.02516  0  3.982771  0
C  C120  1  0.92121789  0.53843987  0.06228843  1  -0.076958  0  -0.06941  -0.090679  0  3.901066  0
C  C121  1  0.07878504  0.03843807  0.43771106  1  -0.076683  0  -0.0694  -0.090793  0  3.901055  0
C  C122  1  0.07878108  0.46156006  0.93771116  1  -0.077093  0  -0.069405  -0.090636  0  3.901034  0
C  C123  1  0.92121641  0.96156072  0.56228815  1  -0.076857  0  -0.069397  -0.09068  0  3.900997  0
C  C124  1  0.02930472  0.59882840  0.08153154  1  0.029207  0  -0.016745  -0.027627  0  3.989441  0
C  C125  1  0.97069844  0.09882622  0.41846889  1  0.028954  0  -0.016729  -0.027559  0  3.989413  0
C  C126  1  0.97069178  0.40117154  0.91846795  1  0.029225  0  -0.016668  -0.027587  0  3.989435  0
C  C127  1  0.02930549  0.90117199  0.58153089  1  0.028931  0  -0.016713  -0.02759  0  3.989331  0
C  C128  1  0.12967976  0.59390421  0.13988690  1  -0.046674  0  -0.073055  -0.150066  0  3.897881  0
C  C129  1  0.87032090  0.09390255  0.36011296  1  -0.046721  0  -0.073059  -0.15005  0  3.897943  0
C  C130  1  0.87031797  0.40609573  0.86011265  1  -0.046711  0  -0.073128  -0.15017  0  3.897978  0
C  C131  1  0.12968055  0.90609624  0.63988624  1  -0.046685  0  -0.073083  -0.150079  0  3.897953  0
C  C132  1  0.51220133  0.68220957  0.47285629  1  1.553503  0  0.214765  0.591259  0  4.185603  0
C  C133  1  0.48779594  0.18221065  0.02714437  1  1.553514  0  0.214819  0.591287  0  4.185574  0
C  C134  1  0.48779764  0.31779094  0.52714330  1  1.553492  0  0.214845  0.591284  0  4.185544  0
C  C135  1  0.51220055  0.81778871  0.97285609  1  1.553546  0  0.214738  0.591175  0  4.185677  0
C  C136  1  0.69070524  0.42205442  0.39883671  1  1.593124  0  0.202939  0.58364  0  4.215694  0
C  C137  1  0.30929665  0.92205510  0.10116307  1  1.59309  0  0.202935  0.583641  0  4.215741  0
C  C138  1  0.30929744  0.57794552  0.60116254  1  1.593082  0  0.202981  0.583805  0  4.215628  0
C  C139  1  0.69070108  0.07794426  0.89883744  1  1.593053  0  0.202898  0.58365  0  4.215689  0
C  C140  1  0.78336284  0.41256669  0.08366962  1  1.588993  0  0.195543  0.566483  0  4.238116  0
C  C141  1  0.21664026  0.91256539  0.41632924  1  1.588971  0  0.195554  0.566367  0  4.238219  0
C  C142  1  0.21663613  0.58743267  0.91633093  1  1.588764  0  0.195524  0.566478  0  4.238107  0
C  C143  1  0.78336242  0.08743340  0.58367001  1  1.588775  0  0.195553  0.566502  0  4.238083  0
C  C144  1  0.03368553  0.66943325  0.04057206  1  1.556431  0  0.213836  0.584642  0  4.188326  0
C  C145  1  0.96631541  0.16943104  0.45942826  1  1.556396  0  0.213745  0.584469  0  4.188622  0
C  C146  1  0.96631468  0.33056669  0.95942806  1  1.55643  0  0.213829  0.584593  0  4.188328  0
C  C147  1  0.03368480  0.83056775  0.54057042  1  1.556446  0  0.213727  0.584453  0  4.188514  0
C  C148  1  0.65386583  0.82325222  0.62413175  1  0.453668  0  0.046244  0.108328  0  3.966356  0
C  C149  1  0.34613114  0.32325241  0.87586711  1  0.453594  0  0.046174  0.108277  0  3.966388  0
C  C150  1  0.34613933  0.17674829  0.37586904  1  0.453537  0  0.046291  0.108456  0  3.966311  0
C  C151  1  0.65386535  0.67674811  0.12413238  1  0.453588  0  0.046242  0.108304  0  3.966387  0
C  C152  1  0.73535922  0.84777080  0.68205613  1  0.029093  0  -0.092779  -0.237499  0  3.949197  0
C  C153  1  0.26463908  0.34777153  0.81794373  1  0.028884  0  -0.092727  -0.237469  0  3.949205  0
C  C154  1  0.26464470  0.15223029  0.31794509  1  0.029099  0  -0.092814  -0.237569  0  3.949126  0
C  C155  1  0.73535989  0.65223072  0.18205586  1  0.029153  0  -0.092794  -0.237486  0  3.949196  0
C  C156  1  0.70075793  0.92148025  0.70573202  1  0.386942  0  0.125508  0.286189  0  4.025092  0
C  C157  1  0.29923941  0.42148102  0.79426778  1  0.387214  0  0.125515  0.286257  0  4.024955  0
C  C158  1  0.29924351  0.07852084  0.29426911  1  0.387239  0  0.125499  0.286223  0  4.025193  0
C  C159  1  0.70075956  0.57852007  0.20573181  1  0.387256  0  0.125484  0.286168  0  4.025133  0
C  C160  1  0.58526054  0.96711375  0.66769324  1  -0.027813  0  -0.08571  -0.222311  0  3.92867  0
C  C161  1  0.41473821  0.46711460  0.83230611  1  -0.02784  0  -0.085692  -0.222323  0  3.92859  0
C  C162  1  0.41473843  0.03288676  0.33230683  1  -0.027796  0  -0.085707  -0.222333  0  3.92863  0
C  C163  1  0.58526448  0.53288649  0.16769410  1  -0.027752  0  -0.085678  -0.222315  0  3.928629  0
C  C164  1  0.51106528  0.93873195  0.60993636  1  0.509884  0  0.050833  0.1143  0  3.931556  0
C  C165  1  0.48893337  0.43873225  0.89006204  1  0.509906  0  0.050797  0.114437  0  3.9314  0
C  C166  1  0.48893741  0.06126799  0.39006386  1  0.509911  0  0.050895  0.114431  0  3.931413  0
C  C167  1  0.51106684  0.56126769  0.10993759  1  0.509839  0  0.050833  0.114498  0  3.931356  0
C  C168  1  0.93318182  0.80775789  0.88417104  1  0.475161  0  0.050734  0.11417  0  3.954889  0
C  C169  1  0.06681881  0.30775683  0.61582941  1  0.475114  0  0.050735  0.114118  0  3.954957  0
C  C170  1  0.06681591  0.19224378  0.11582802  1  0.475116  0  0.050698  0.114104  0  3.95494  0
C  C171  1  0.93318264  0.69224426  0.38417076  1  0.475144  0  0.050701  0.114125  0  3.954939  0
C  C172  1  0.84908850  0.83662292  0.82810891  1  0.026765  0  -0.092753  -0.238193  0  3.947114  0
C  C173  1  0.15091099  0.33662305  0.67189052  1  0.026767  0  -0.092753  -0.23817  0  3.947037  0
C  C174  1  0.15090799  0.16337875  0.17189059  1  0.027155  0  -0.092792  -0.238262  0  3.947168  0
C  C175  1  0.84908922  0.66337861  0.32810863  1  0.026731  0  -0.092807  -0.238272  0  3.947115  0
C  C176  1  0.86456935  0.91526065  0.81345579  1  0.369287  0  0.124153  0.284443  0  4.020161  0
C  C177  1  0.13542796  0.41526134  0.68654401  1  0.369218  0  0.124169  0.284484  0  4.020118  0
C  C178  1  0.13542838  0.08474101  0.18654471  1  0.368874  0  0.124197  0.284555  0  4.019989  0
C  C179  1  0.86457348  0.58474032  0.31345616  1  0.369405  0  0.124242  0.284617  0  4.020085  0
C  C180  1  0.96769164  0.96037122  0.85680314  1  0.028096  0  -0.087913  -0.222909  0  3.948877  0
C  C181  1  0.03230460  0.46037127  0.64319661  1  0.028241  0  -0.087907  -0.222966  0  3.948852  0
C  C182  1  0.03230732  0.03962815  0.14319886  1  0.028098  0  -0.087861  -0.222876  0  3.948767  0
C  C183  1  0.96769684  0.53962982  0.35680356  1  0.028088  0  -0.087924  -0.222959  0  3.94889  0
C  C184  1  0.04463225  0.92744438  0.91205503  1  0.442579  0  0.049197  0.11443  0  3.937542  0
C  C185  1  0.95536511  0.42744238  0.58794525  1  0.442545  0  0.04913  0.114335  0  3.937635  0
C  C186  1  0.95536672  0.07255671  0.08794552  1  0.442648  0  0.049189  0.114407  0  3.937545  0
C  C187  1  0.04463509  0.57255814  0.41205487  1  0.442792  0  0.049172  0.114405  0  3.937701  0
N  N188  1  0.27392718  0.57847206  0.26492445  1  -0.46928  0  -0.148464  -0.128145  0  3.283803  0
N  N189  1  0.72607466  0.07847208  0.23507546  1  -0.469289  0  -0.148505  -0.128212  0  3.283909  0
N  N190  1  0.72607303  0.42152903  0.73507423  1  -0.469412  0  -0.148464  -0.128183  0  3.283955  0
N  N191  1  0.27392431  0.92152728  0.76492461  1  -0.469485  0  -0.148503  -0.128203  0  3.283752  0
N  N192  1  0.22083413  0.51689485  0.23752768  1  -0.484912  0  -0.15508  -0.148183  0  3.317702  0
N  N193  1  0.77916995  0.01689489  0.26247234  1  -0.484878  0  -0.155124  -0.148226  0  3.317742  0
N  N194  1  0.77916608  0.48310509  0.76247195  1  -0.484942  0  -0.15511  -0.148215  0  3.317752  0
N  N195  1  0.22083273  0.98310447  0.73752740  1  -0.484873  0  -0.155103  -0.148199  0  3.317614  0
N  N196  1  0.54321149  0.86730979  0.58817009  1  -1.254742  0  -0.344012  -0.260897  0  3.578928  0
N  N197  1  0.45678812  0.36730948  0.91182982  1  -1.254711  0  -0.343982  -0.260886  0  3.578814  0
N  N198  1  0.45679367  0.13269130  0.41183118  1  -1.254671  0  -0.344037  -0.260996  0  3.578875  0
N  N199  1  0.54321208  0.63269104  0.08817078  1  -1.254771  0  -0.343995  -0.26091  0  3.578872  0
N  N200  1  0.77926229  0.95230890  0.76158839  1  -1.296251  0  -0.385105  -0.319212  0  3.581325  0
N  N201  1  0.22073516  0.45230963  0.73841141  1  -1.296173  0  -0.385106  -0.319262  0  3.581351  0
N  N202  1  0.22073667  0.04769276  0.23841265  1  -1.296497  0  -0.385135  -0.319329  0  3.581435  0
N  N203  1  0.77926629  0.54769261  0.26158876  1  -1.296595  0  -0.38513  -0.319331  0  3.581449  0
N  N204  1  0.02823496  0.85192050  0.92620490  1  -1.249098  0  -0.342289  -0.257101  0  3.583332  0
N  N205  1  0.97176459  0.35191852  0.57379501  1  -1.249082  0  -0.342267  -0.257037  0  3.583398  0
N  N206  1  0.97176277  0.14807944  0.07379464  1  -1.249124  0  -0.342281  -0.257077  0  3.583344  0
N  N207  1  0.02823685  0.64808142  0.42620563  1  -1.249108  0  -0.342261  -0.25708  0  3.583424  0
O  O208  1  0.39241687  0.73213195  0.46665188  1  -1.157695  0  -0.32193  -0.5788  0  2.431358  0
O  O209  1  0.60758059  0.23213313  0.03334828  1  -1.157652  0  -0.321973  -0.578852  0  2.431373  0
O  O210  1  0.60758334  0.26786856  0.53334823  1  -1.157676  0  -0.321978  -0.578845  0  2.431337  0
O  O211  1  0.39241466  0.76786623  0.96665165  1  -1.157746  0  -0.321941  -0.578798  0  2.431342  0
O  O212  1  0.63407143  0.68824551  0.51470808  1  -1.184345  0  -0.30855  -0.554551  0  2.231656  0
O  O213  1  0.36592503  0.18824507  0.98529177  1  -1.184377  0  -0.308566  -0.554529  0  2.231578  0
O  O214  1  0.36592754  0.31175501  0.48529199  1  -1.184347  0  -0.308571  -0.554519  0  2.231639  0
O  O215  1  0.63406898  0.81175314  0.01470811  1  -1.184343  0  -0.308528  -0.554482  0  2.231708  0
O  O216  1  0.72107201  0.40069060  0.45842357  1  -1.164947  0  -0.330011  -0.563868  0  2.375969  0
O  O217  1  0.27892981  0.90069130  0.04157621  1  -1.164928  0  -0.330042  -0.563925  0  2.375978  0
O  O218  1  0.27892944  0.59930991  0.54157563  1  -1.164949  0  -0.330044  -0.563975  0  2.375919  0
O  O219  1  0.72106792  0.09930807  0.95842429  1  -1.164867  0  -0.330035  -0.563931  0  2.375902  0
O  O220  1  0.74852593  0.39295498  0.35069348  1  -1.181267  0  -0.340447  -0.565754  0  2.05569  0
O  O221  1  0.25147462  0.89295443  0.14930577  1  -1.181229  0  -0.340435  -0.565733  0  2.055667  0
O  O222  1  0.25147676  0.60704496  0.64930625  1  -1.181216  0  -0.340438  -0.56576  0  2.055683  0
O  O223  1  0.74852187  0.10704493  0.85069420  1  -1.181168  0  -0.34041  -0.565722  0  2.05567  0
O  O224  1  0.74178425  0.36668486  0.12532115  1  -1.174593  0  -0.340361  -0.55612  0  2.065014  0
O  O225  1  0.25822239  0.86668419  0.37467931  1  -1.174676  0  -0.340362  -0.556076  0  2.065057  0
O  O226  1  0.25821596  0.63331507  0.87467897  1  -1.174341  0  -0.340339  -0.556098  0  2.064983  0
O  O227  1  0.74178401  0.13331517  0.62532200  1  -1.174398  0  -0.340394  -0.556155  0  2.064965  0
O  O228  1  0.71967989  0.41538159  0.02371966  1  -1.171775  0  -0.336609  -0.569153  0  2.347262  0
O  O229  1  0.28032198  0.91538088  0.47627964  1  -1.171763  0  -0.336622  -0.569154  0  2.347315  0
O  O230  1  0.28031908  0.58461777  0.97628041  1  -1.171799  0  -0.336599  -0.569155  0  2.347297  0
O  O231  1  0.71968071  0.08461848  0.52372010  1  -1.171759  0  -0.336566  -0.56913  0  2.347304  0
O  O232  1  0.92808750  0.68063482  0.99280988  1  -1.191136  0  -0.308179  -0.560033  0  2.244129  0
O  O233  1  0.07191512  0.18063325  0.50719214  1  -1.191142  0  -0.308145  -0.560002  0  2.244144  0
O  O234  1  0.07191271  0.31936512  0.00719024  1  -1.191121  0  -0.30818  -0.560022  0  2.244139  0
O  O235  1  0.92808880  0.81936668  0.49280812  1  -1.191154  0  -0.308094  -0.55992  0  2.244188  0
O  O236  1  0.14954430  0.71848424  0.05805730  1  -1.163759  0  -0.3215  -0.558663  0  2.363784  0
O  O237  1  0.85045683  0.21848136  0.44194349  1  -1.163711  0  -0.321419  -0.558527  0  2.363845  0
O  O238  1  0.85045343  0.28151627  0.94194273  1  -1.163781  0  -0.321524  -0.558651  0  2.363727  0
O  O239  1  0.14954462  0.78151742  0.55805668  1  -1.163736  0  -0.321458  -0.558562  0  2.363724  0
O  O240  1  0.63825517  0.86870437  0.44613579  1  -1.249743  0  -0.560249  -0.74333  0  2.105052  0
O  O241  1  0.36174528  0.36870475  0.05386396  1  -1.249738  0  -0.560221  -0.74326  0  2.105052  0
O  O242  1  0.36174752  0.13129442  0.55386346  1  -1.249717  0  -0.560211  -0.743312  0  2.105046  0
O  O243  1  0.63825492  0.63129576  0.94613713  1  -1.249776  0  -0.560191  -0.743275  0  2.105064  0
O  O244  1  0.92235057  0.86658607  0.05993023  1  -1.285992  0  -0.565763  -0.755968  0  2.098164  0
O  O245  1  0.07764615  0.36658542  0.44007034  1  -1.285999  0  -0.565761  -0.755983  0  2.098119  0
O  O246  1  0.07764592  0.13341444  0.94006975  1  -1.285996  0  -0.565738  -0.755945  0  2.098161  0
O  O247  1  0.92235282  0.63341394  0.55992974  1  -1.286004  0  -0.56574  -0.75593  0  2.098139  0
