# generated using pymatgen
data_CuH9C9N3ClO
_symmetry_space_group_name_H-M   'P 1'
_cell_length_a   8.56690841
_cell_length_b   11.47393458
_cell_length_c   11.47212894
_cell_angle_alpha   89.99926089
_cell_angle_beta   108.85463636
_cell_angle_gamma   90.00024814
_symmetry_Int_Tables_number   1
_chemical_formula_structural   CuH9C9N3ClO
_chemical_formula_sum   'Cu4 H36 C36 N12 Cl4 O4'
_cell_volume   1067.15722397
_cell_formula_units_Z   4
loop_
 _symmetry_equiv_pos_site_id
 _symmetry_equiv_pos_as_xyz
  1  'x, y, z'
loop_
 _atom_site_type_symbol
 _atom_site_label
 _atom_site_symmetry_multiplicity
 _atom_site_fract_x
 _atom_site_fract_y
 _atom_site_fract_z
 _atom_site_occupancy
 _atom_site_hle17_bader_spin_density
 _atom_site_hle17_ddec_charge
 _atom_site_hle17_ddec_spin_density
 _atom_site_hle17_ddec_sum_bond_order
 _atom_site_hle17_magmom
 _atom_site_hse06_10hf_bader_spin_density
 _atom_site_hse06_10hf_ddec_charge
 _atom_site_hse06_10hf_ddec_spin_density
 _atom_site_hse06_10hf_ddec_sum_bond_order
 _atom_site_hse06_10hf_magmom
 _atom_site_hse06_bader_spin_density
 _atom_site_hse06_ddec_charge
 _atom_site_hse06_ddec_spin_density
 _atom_site_hse06_ddec_sum_bond_order
 _atom_site_hse06_magmom
 _atom_site_pbe_bader_spin_density
 _atom_site_pbe_cm5_charge
 _atom_site_pbe_ddec_charge
 _atom_site_pbe_ddec_spin_density
 _atom_site_pbe_ddec_sum_bond_order
 _atom_site_pbe_magmom
Cu  Cu0  1  0.04930146  0.88773239  0.10240900  1  0  0.514542  0  2.094759  0  0  0.47255  0  2.542719  0  0  0.471596  0  2.507567  0  0  0.502928  0.473527  0  2.566017  0
Cu  Cu1  1  0.95070244  0.38773345  0.39759701  1  0  0.514529  0  2.094666  0  0  0.472531  0  2.542642  0  0  0.471588  0  2.507453  0  0  0.502939  0.473498  0  2.565988  0
Cu  Cu2  1  0.95069810  0.11226935  0.89759430  1  0  0.514471  0  2.094789  0  0  0.47253  0  2.542702  0  0  0.471571  0  2.507583  0  0  0.502917  0.4735  0  2.566029  0
Cu  Cu3  1  0.04929465  0.61226741  0.60240570  1  0  0.514409  0  2.094694  0  0  0.472468  0  2.542689  0  0  0.471549  0  2.507531  0  0  0.502914  0.473436  0  2.565999  0
H  H4  1  0.17483272  0.36974685  0.29833606  1  0  0.144819  0  0.941605  0  0  0.158272  0  0.998636  0  0  0.160814  0  0.997378  0  0  0.098337  0.156409  0  0.999588  0
H  H5  1  0.82516252  0.86974093  0.20165852  1  0  0.144871  0  0.941619  0  0  0.15832  0  0.99865  0  0  0.160862  0  0.997393  0  0  0.098365  0.156454  0  0.999598  0
H  H6  1  0.82515325  0.63025227  0.70165875  1  0  0.144855  0  0.941598  0  0  0.158323  0  0.998607  0  0  0.160857  0  0.99736  0  0  0.098371  0.156467  0  0.999544  0
H  H7  1  0.17484196  0.13025558  0.79834074  1  0  0.144859  0  0.941547  0  0  0.158299  0  0.998595  0  0  0.160854  0  0.997321  0  0  0.098343  0.156438  0  0.999545  0
H  H8  1  0.03562362  0.24046340  0.26027844  1  0  0.136198  0  0.966149  0  0  0.144069  0  1.037143  0  0  0.146427  0  1.036336  0  0  0.088686  0.142333  0  1.03776  0
H  H9  1  0.96437408  0.74046006  0.23972536  1  0  0.136179  0  0.966132  0  0  0.144066  0  1.037113  0  0  0.146432  0  1.036295  0  0  0.088673  0.142323  0  1.037729  0
H  H10  1  0.96435991  0.75953485  0.73972624  1  0  0.136095  0  0.96614  0  0  0.144001  0  1.037109  0  0  0.146368  0  1.036292  0  0  0.088681  0.142261  0  1.037724  0
H  H11  1  0.03563164  0.25953732  0.76027506  1  0  0.136194  0  0.966073  0  0  0.144051  0  1.03709  0  0  0.146448  0  1.036242  0  0  0.088681  0.142311  0  1.037706  0
H  H12  1  0.24203215  0.32795252  0.52232308  1  0  0.100001  0  0.960459  0  0  0.110417  0  1.02267  0  0  0.111887  0  1.023073  0  0  0.095801  0.109359  0  1.022468  0
H  H13  1  0.75798405  0.82794803  0.97767281  1  0  0.100064  0  0.96044  0  0  0.110481  0  1.022653  0  0  0.111958  0  1.023052  0  0  0.095846  0.109419  0  1.022444  0
H  H14  1  0.75797602  0.67204573  0.47767444  1  0  0.100002  0  0.960451  0  0  0.110454  0  1.022624  0  0  0.111929  0  1.023026  0  0  0.095834  0.109391  0  1.022415  0
H  H15  1  0.24202412  0.17204760  0.02232734  1  0  0.100014  0  0.960491  0  0  0.110454  0  1.022672  0  0  0.111928  0  1.02307  0  0  0.095823  0.109393  0  1.022465  0
H  H16  1  0.07154043  0.17572853  0.58750362  1  0  0.092106  0  0.941558  0  0  0.10422  0  1.007179  0  0  0.104226  0  1.006973  0  0  0.112052  0.10413  0  1.007433  0
H  H17  1  0.92847454  0.67572545  0.91250264  1  0  0.092081  0  0.941632  0  0  0.104185  0  1.00719  0  0  0.104195  0  1.00701  0  0  0.112024  0.104083  0  1.007436  0
H  H18  1  0.92846160  0.82426971  0.41250027  1  0  0.092108  0  0.941565  0  0  0.104243  0  1.007152  0  0  0.10424  0  1.006966  0  0  0.11206  0.104142  0  1.007407  0
H  H19  1  0.07153611  0.32427192  0.08749809  1  0  0.092071  0  0.941638  0  0  0.104186  0  1.007227  0  0  0.104186  0  1.007039  0  0  0.112034  0.104085  0  1.007477  0
H  H20  1  0.98528762  0.12772396  0.43156530  1  0  0.081509  0  0.921221  0  0  0.090075  0  0.990666  0  0  0.091541  0  0.988378  0  0  0.109214  0.088917  0  0.992531  0
H  H21  1  0.01472978  0.62772061  0.06844033  1  0  0.081521  0  0.921216  0  0  0.089979  0  0.990734  0  0  0.091454  0  0.988447  0  0  0.109184  0.088814  0  0.992593  0
H  H22  1  0.01472426  0.87227428  0.56843835  1  0  0.081475  0  0.921276  0  0  0.090015  0  0.990754  0  0  0.091484  0  0.988459  0  0  0.109195  0.088854  0  0.992617  0
H  H23  1  0.98528087  0.37227589  0.93156303  1  0  0.081505  0  0.921349  0  0  0.090014  0  0.990827  0  0  0.091485  0  0.98853  0  0  0.109215  0.088851  0  0.992687  0
H  H24  1  0.42354699  0.99073687  0.10650130  1  0  0.116781  0  0.954154  0  0  0.126342  0  1.012699  0  0  0.129283  0  1.011328  0  0  0.102847  0.124104  0  1.013919  0
H  H25  1  0.57643595  0.49073677  0.39349312  1  0  0.116779  0  0.95418  0  0  0.126339  0  1.012724  0  0  0.129281  0  1.011352  0  0  0.102867  0.124114  0  1.01393  0
H  H26  1  0.57644146  0.00926050  0.89349672  1  0  0.116731  0  0.954183  0  0  0.126319  0  1.012697  0  0  0.129261  0  1.011323  0  0  0.102867  0.124085  0  1.013914  0
H  H27  1  0.42355989  0.50926671  0.60650406  1  0  0.116773  0  0.954222  0  0  0.126345  0  1.012746  0  0  0.129286  0  1.011372  0  0  0.10285  0.124099  0  1.013973  0
H  H28  1  0.66467006  0.12691452  0.18290944  1  0  0.098362  0  0.987152  0  0  0.108018  0  1.049424  0  0  0.110507  0  1.049248  0  0  0.087475  0.106129  0  1.049777  0
H  H29  1  0.33532389  0.62692468  0.31708097  1  0  0.098313  0  0.987083  0  0  0.107979  0  1.049329  0  0  0.110463  0  1.049161  0  0  0.087446  0.106091  0  1.049673  0
H  H30  1  0.33532332  0.87307850  0.81708715  1  0  0.098338  0  0.987135  0  0  0.107956  0  1.049435  0  0  0.110475  0  1.049229  0  0  0.087458  0.106072  0  1.049779  0
H  H31  1  0.66467689  0.37308751  0.68291652  1  0  0.098339  0  0.986996  0  0  0.108005  0  1.049256  0  0  0.110491  0  1.049079  0  0  0.087489  0.106117  0  1.049604  0
H  H32  1  0.71576809  0.23574871  0.37883926  1  0  0.076417  0  0.996934  0  0  0.078847  0  1.078601  0  0  0.084184  0  1.072743  0  0  0.08547  0.074839  0  1.082963  0
H  H33  1  0.28424068  0.73575601  0.12114895  1  0  0.076479  0  0.996911  0  0  0.078942  0  1.078508  0  0  0.084238  0  1.072706  0  0  0.085474  0.074929  0  1.082882  0
H  H34  1  0.28423515  0.76425041  0.62115359  1  0  0.076465  0  0.996879  0  0  0.078905  0  1.078511  0  0  0.084211  0  1.072701  0  0  0.085486  0.074892  0  1.082886  0
H  H35  1  0.71576503  0.26425182  0.87884798  1  0  0.076482  0  0.996807  0  0  0.078873  0  1.078466  0  0  0.084203  0  1.072635  0  0  0.085464  0.074863  0  1.082843  0
H  H36  1  0.53787156  0.20920916  0.50979141  1  0  0.118247  0  0.938192  0  0  0.127298  0  0.999147  0  0  0.130422  0  0.998173  0  0  0.109645  0.125027  0  0.999979  0
H  H37  1  0.46213722  0.70921400  0.99020161  1  0  0.118115  0  0.938047  0  0  0.127269  0  0.99891  0  0  0.130397  0  0.99793  0  0  0.109642  0.124988  0  0.999772  0
H  H38  1  0.46212921  0.79079606  0.49020259  1  0  0.118205  0  0.93816  0  0  0.127307  0  0.999066  0  0  0.130434  0  0.998087  0  0  0.109672  0.125031  0  0.999907  0
H  H39  1  0.53786603  0.29079819  0.00979997  1  0  0.118201  0  0.938167  0  0  0.127313  0  0.999073  0  0  0.130436  0  0.998102  0  0  0.109658  0.125043  0  0.999898  0
C  C40  1  0.10840572  0.30197641  0.32978034  1  0  -0.30246  0  3.658064  0  0  -0.361476  0  3.953908  0  0  -0.358624  0  3.957724  0  0  -0.242326  -0.362895  0  3.95096  0
C  C41  1  0.89159816  0.80197460  0.17022154  1  0  -0.302559  0  3.658164  0  0  -0.361565  0  3.953982  0  0  -0.358716  0  3.957783  0  0  -0.242363  -0.362973  0  3.951004  0
C  C42  1  0.89158520  0.69802184  0.67022002  1  0  -0.302436  0  3.658043  0  0  -0.361492  0  3.953941  0  0  -0.358651  0  3.957765  0  0  -0.242376  -0.362911  0  3.950963  0
C  C43  1  0.10841003  0.19802452  0.82978209  1  0  -0.302539  0  3.65801  0  0  -0.361541  0  3.953927  0  0  -0.35874  0  3.957703  0  0  -0.242366  -0.362957  0  3.950971  0
C  C44  1  0.14527246  0.27847544  0.45482637  1  0  -0.123142  0  3.810392  0  0  -0.146801  0  4.114894  0  0  -0.144041  0  4.122753  0  0  -0.17716  -0.148424  0  4.109145  0
C  C45  1  0.85473634  0.77847077  0.04517613  1  0  -0.123187  0  3.81041  0  0  -0.146911  0  4.114919  0  0  -0.144147  0  4.122793  0  0  -0.177211  -0.148534  0  4.109121  0
C  C46  1  0.85472709  0.72152630  0.54517781  1  0  -0.123028  0  3.810299  0  0  -0.146783  0  4.114944  0  0  -0.144035  0  4.122817  0  0  -0.177136  -0.1484  0  4.109152  0
C  C47  1  0.14526938  0.22152661  0.95482604  1  0  -0.123046  0  3.81043  0  0  -0.146774  0  4.11497  0  0  -0.144016  0  4.122843  0  0  -0.177113  -0.148394  0  4.109191  0
C  C48  1  0.09353894  0.16763776  0.49923642  1  0  0.048594  0  3.606096  0  0  -0.016584  0  3.884411  0  0  -0.006979  0  3.884356  0  0  -0.074706  -0.023256  0  3.884588  0
C  C49  1  0.90647600  0.66763296  0.00076985  1  0  0.048568  0  3.606285  0  0  -0.016445  0  3.884343  0  0  -0.00689  0  3.884337  0  0  -0.074678  -0.023071  0  3.884465  0
C  C50  1  0.90647048  0.83236136  0.50076926  1  0  0.048584  0  3.606159  0  0  -0.016584  0  3.884423  0  0  -0.006991  0  3.884385  0  0  -0.074734  -0.023232  0  3.88456  0
C  C51  1  0.09352848  0.33236092  0.99923202  1  0  0.048581  0  3.606305  0  0  -0.016487  0  3.884457  0  0  -0.006897  0  3.884422  0  0  -0.074725  -0.023125  0  3.884588  0
C  C52  1  0.44943622  0.03818081  0.19298206  1  0  -0.12091  0  3.719293  0  0  -0.137297  0  3.963922  0  0  -0.138448  0  3.983076  0  0  -0.084604  -0.136434  0  3.951264  0
C  C53  1  0.55055402  0.53818134  0.30701296  1  0  -0.120683  0  3.719292  0  0  -0.137076  0  3.963879  0  0  -0.138227  0  3.983037  0  0  -0.084522  -0.136225  0  3.951214  0
C  C54  1  0.55056086  0.96181657  0.80701542  1  0  -0.120769  0  3.719307  0  0  -0.137176  0  3.963905  0  0  -0.138328  0  3.983069  0  0  -0.084574  -0.136316  0  3.951247  0
C  C55  1  0.44943812  0.46182388  0.69298246  1  0  -0.120816  0  3.719411  0  0  -0.137183  0  3.964044  0  0  -0.138332  0  3.983194  0  0  -0.084569  -0.136312  0  3.951388  0
C  C56  1  0.58103075  0.11452596  0.23624312  1  0  -0.069384  0  3.739614  0  0  -0.085848  0  3.989869  0  0  -0.088918  0  4.012033  0  0  -0.092843  -0.083915  0  3.975049  0
C  C57  1  0.41896443  0.61452924  0.26374862  1  0  -0.069377  0  3.739631  0  0  -0.085822  0  3.989876  0  0  -0.088888  0  4.012026  0  0  -0.092808  -0.083888  0  3.975055  0
C  C58  1  0.41896633  0.88547229  0.76375349  1  0  -0.069367  0  3.739631  0  0  -0.085787  0  3.989873  0  0  -0.088882  0  4.012014  0  0  -0.092812  -0.083855  0  3.975052  0
C  C59  1  0.58102894  0.38548034  0.73624535  1  0  -0.069394  0  3.739516  0  0  -0.08586  0  3.98974  0  0  -0.088928  0  4.0119  0  0  -0.092841  -0.083926  0  3.974919  0
C  C60  1  0.61142085  0.17586431  0.34870494  1  0  -0.039041  0  3.737709  0  0  -0.058133  0  3.997328  0  0  -0.059486  0  4.017646  0  0  -0.086288  -0.057016  0  3.983693  0
C  C61  1  0.38857927  0.67586633  0.15128546  1  0  -0.039251  0  3.737819  0  0  -0.058381  0  3.997476  0  0  -0.059714  0  4.017814  0  0  -0.08635  -0.057263  0  3.983831  0
C  C62  1  0.38857622  0.82413742  0.65128905  1  0  -0.039124  0  3.737777  0  0  -0.058217  0  3.997388  0  0  -0.059558  0  4.017722  0  0  -0.0863  -0.057103  0  3.983748  0
C  C63  1  0.61141780  0.32413715  0.84870940  1  0  -0.039111  0  3.737512  0  0  -0.058145  0  3.99715  0  0  -0.059501  0  4.017458  0  0  -0.086266  -0.057034  0  3.98352  0
C  C64  1  0.51348983  0.16239575  0.42318348  1  0  -0.124739  0  3.736518  0  0  -0.145692  0  3.991322  0  0  -0.149464  0  4.012867  0  0  -0.089837  -0.14319  0  3.976852  0
C  C65  1  0.48651770  0.66239644  0.07681323  1  0  -0.124627  0  3.736267  0  0  -0.145662  0  3.991109  0  0  -0.149429  0  4.012637  0  0  -0.089896  -0.143163  0  3.976629  0
C  C66  1  0.48651218  0.83760686  0.57681518  1  0  -0.124728  0  3.736443  0  0  -0.145726  0  3.991261  0  0  -0.149495  0  4.012793  0  0  -0.089906  -0.143219  0  3.976781  0
C  C67  1  0.51348432  0.33760965  0.92318630  1  0  -0.124819  0  3.736407  0  0  -0.145832  0  3.991197  0  0  -0.149603  0  4.012734  0  0  -0.089963  -0.143323  0  3.976723  0
C  C68  1  0.38128021  0.08482696  0.37933437  1  0  0.059319  0  3.797441  0  0  0.049596  0  4.04432  0  0  0.051663  0  4.068043  0  0  0.104604  0.048231  0  4.028486  0
C  C69  1  0.61871868  0.58482403  0.12066562  1  0  0.059474  0  3.797267  0  0  0.049731  0  4.044195  0  0  0.051802  0  4.06792  0  0  0.104631  0.048369  0  4.02836  0
C  C70  1  0.61871811  0.91517390  0.62066777  1  0  0.059399  0  3.797336  0  0  0.049664  0  4.044253  0  0  0.051734  0  4.067976  0  0  0.10461  0.048299  0  4.028419  0
C  C71  1  0.38127839  0.41517596  0.87933011  1  0  0.059437  0  3.797287  0  0  0.049726  0  4.044232  0  0  0.051796  0  4.067954  0  0  0.104693  0.04836  0  4.028401  0
C  C72  1  0.34735939  0.02441070  0.26639948  1  0  0.123743  0  3.804174  0  0  0.123248  0  4.052882  0  0  0.123018  0  4.076002  0  0  0.09593  0.123171  0  4.037558  0
C  C73  1  0.65263209  0.52440729  0.23360298  1  0  0.123619  0  3.804263  0  0  0.123093  0  4.052955  0  0  0.122859  0  4.076075  0  0  0.095882  0.123017  0  4.037635  0
C  C74  1  0.65263646  0.97559191  0.73360380  1  0  0.123748  0  3.804245  0  0  0.12321  0  4.052973  0  0  0.122979  0  4.076089  0  0  0.095907  0.123136  0  4.037652  0
C  C75  1  0.34735882  0.47559445  0.76639301  1  0  0.123814  0  3.804048  0  0  0.123183  0  4.052901  0  0  0.122954  0  4.076024  0  0  0.095931  0.12311  0  4.037574  0
N  N76  1  0.25770014  0.04786880  0.42183074  1  0  0.176476  0  3.58347  0  0  0.218439  0  3.863059  0  0  0.214439  0  3.881218  0  0  -0.026071  0.22065  0  3.850967  0
N  N77  1  0.74230491  0.54786595  0.07817207  1  0  0.176371  0  3.583404  0  0  0.218253  0  3.863038  0  0  0.21424  0  3.881204  0  0  -0.026098  0.22047  0  3.850949  0
N  N78  1  0.74230681  0.95213206  0.57817521  1  0  0.176398  0  3.583475  0  0  0.218325  0  3.863068  0  0  0.214316  0  3.881233  0  0  -0.026086  0.220541  0  3.850979  0
N  N79  1  0.25769217  0.45212968  0.92182366  1  0  0.176514  0  3.583609  0  0  0.218459  0  3.863201  0  0  0.214456  0  3.881358  0  0  -0.026045  0.22067  0  3.851111  0
N  N80  1  0.15403051  0.97366140  0.34534979  1  0  -0.086267  0  2.857576  0  0  -0.084203  0  3.142756  0  0  -0.079108  0  3.151525  0  0  -0.070899  -0.087474  0  3.136932  0
N  N81  1  0.84596848  0.47365743  0.15465830  1  0  -0.086289  0  2.857716  0  0  -0.084264  0  3.14291  0  0  -0.079169  0  3.151677  0  0  -0.070962  -0.087537  0  3.137089  0
N  N82  1  0.84597152  0.02634120  0.65465934  1  0  -0.086293  0  2.857657  0  0  -0.084269  0  3.14284  0  0  -0.079172  0  3.151607  0  0  -0.070982  -0.087542  0  3.137021  0
N  N83  1  0.15402490  0.52633820  0.84533916  1  0  -0.086428  0  2.857806  0  0  -0.084401  0  3.143002  0  0  -0.079302  0  3.151775  0  0  -0.071032  -0.087672  0  3.13718  0
N  N84  1  0.20625037  0.95915444  0.24997099  1  0  -0.235138  0  3.288638  0  0  -0.198897  0  3.615192  0  0  -0.204154  0  3.619727  0  0  -0.248064  -0.195494  0  3.61239  0
N  N85  1  0.79374121  0.45914819  0.25003114  1  0  -0.235121  0  3.288782  0  0  -0.19879  0  3.615236  0  0  -0.204038  0  3.619764  0  0  -0.247983  -0.195386  0  3.61245  0
N  N86  1  0.79374549  0.04084904  0.75003316  1  0  -0.235178  0  3.288697  0  0  -0.198859  0  3.615179  0  0  -0.204113  0  3.61971  0  0  -0.247994  -0.195456  0  3.612388  0
N  N87  1  0.20624846  0.54084744  0.74996368  1  0  -0.235102  0  3.288685  0  0  -0.198763  0  3.615204  0  0  -0.204033  0  3.619759  0  0  -0.248008  -0.195359  0  3.612403  0
Cl  Cl88  1  0.13949056  0.90400313  0.94023439  1  0  -0.588728  0  1.044594  0  0  -0.529108  0  1.331738  0  0  -0.542556  0  1.307961  0  0  -0.321588  -0.519275  0  1.34774  0
Cl  Cl89  1  0.86051582  0.40399346  0.55977298  1  0  -0.588743  0  1.044572  0  0  -0.529092  0  1.331663  0  0  -0.542552  0  1.307887  0  0  -0.321591  -0.51926  0  1.347678  0
Cl  Cl90  1  0.86050405  0.09599948  0.05976598  1  0  -0.588741  0  1.044595  0  0  -0.529118  0  1.331724  0  0  -0.542564  0  1.307948  0  0  -0.321588  -0.519285  0  1.347735  0
Cl  Cl91  1  0.13949361  0.59599433  0.44023444  1  0  -0.588715  0  1.044549  0  0  -0.529102  0  1.331707  0  0  -0.542556  0  1.307923  0  0  -0.321586  -0.51927  0  1.347714  0
O  O92  1  0.23030507  0.08034865  0.52779263  1  0  -0.197272  0  2.069637  0  0  -0.14738  0  2.302377  0  0  -0.158245  0  2.303157  0  0  -0.078633  -0.139478  0  2.301682  0
O  O93  1  0.76971110  0.58034689  0.97221254  1  0  -0.197127  0  2.069817  0  0  -0.147105  0  2.302391  0  0  -0.157953  0  2.303186  0  0  -0.078482  -0.139227  0  2.301693  0
O  O94  1  0.76970558  0.91965309  0.47221072  1  0  -0.197223  0  2.069742  0  0  -0.147236  0  2.302406  0  0  -0.158093  0  2.303188  0  0  -0.078564  -0.139346  0  2.301704  0
O  O95  1  0.23029955  0.41965136  0.02779082  1  0  -0.19724  0  2.069652  0  0  -0.147318  0  2.302317  0  0  -0.158175  0  2.303099  0  0  -0.078581  -0.139427  0  2.301614  0
