# generated using pymatgen
data_Zn2H43(C7O2)6
_symmetry_space_group_name_H-M   'P 1'
_cell_length_a   17.87642922
_cell_length_b   17.80929545
_cell_length_c   19.43178483
_cell_angle_alpha   74.30333126
_cell_angle_beta   79.04912163
_cell_angle_gamma   63.65729210
_symmetry_Int_Tables_number   1
_chemical_formula_structural   Zn2H43(C7O2)6
_chemical_formula_sum   'Zn4 H86 C84 O24'
_cell_volume   5319.70211895
_cell_formula_units_Z   2
loop_
 _symmetry_equiv_pos_site_id
 _symmetry_equiv_pos_as_xyz
  1  'x, y, z'
loop_
 _atom_site_type_symbol
 _atom_site_label
 _atom_site_symmetry_multiplicity
 _atom_site_fract_x
 _atom_site_fract_y
 _atom_site_fract_z
 _atom_site_occupancy
 _atom_site_pbe_bader_charge
 _atom_site_pbe_bader_spin_density
 _atom_site_pbe_cm5_charge
 _atom_site_pbe_ddec_charge
 _atom_site_pbe_ddec_spin_density
 _atom_site_pbe_ddec_sum_bond_order
 _atom_site_pbe_magmom
Zn  Zn0  1  0.41862709  0.58096001  0.55909110  1  1.316417  0  0.673577  0.962837  0  2.384176  0
Zn  Zn1  1  0.54893332  0.56674935  0.41988566  1  1.307434  0  0.673734  0.964427  0  2.355877  0
Zn  Zn2  1  0.44640359  0.45071103  0.46368361  1  1.30891  0  0.67023  0.950887  0  2.442115  0
Zn  Zn3  1  0.58952259  0.40966510  0.55986234  1  1.311559  0  0.670205  0.960152  0  2.375611  0
H  H4  1  0.47130860  0.63423144  0.73795716  1  0.094609  0  0.109666  0.127108  0  1.003367  0
H  H5  1  0.66955877  0.87285091  0.61489699  1  0.053111  0  0.099116  0.099384  0  0.999973  0
H  H6  1  0.28801216  0.12939283  0.43835461  1  0.072967  0  0.100933  0.097821  0  1.044367  0
H  H7  1  0.70194172  0.98568038  0.63405900  1  0.076315  0  0.10074  0.100414  0  1.013122  0
H  H8  1  0.67059113  0.14088128  0.61619281  1  0.067882  0  0.105244  0.107338  0  1.003705  0
H  H9  1  0.46344978  0.20981739  0.49679926  1  0.081136  0  0.106252  0.11175  0  1.023089  0
H  H10  1  0.58609541  0.82895279  0.56088394  1  0.118673  0  0.104985  0.109065  0  1.049238  0
H  H11  1  0.38041236  0.17523250  0.47776625  1  0.069609  0  0.103899  0.107315  0  1.00839  0
H  H12  1  0.55951485  0.59734748  0.19570242  1  0.084032  0  0.106745  0.113818  0  0.994409  0
H  H13  1  0.60601528  0.36274126  0.91348730  1  0.072083  0  0.105969  0.108654  0  0.986182  0
H  H14  1  0.59924029  0.35935640  0.78667244  1  0.120304  0  0.104941  0.11292  0  0.998848  0
H  H15  1  0.54937242  0.60309799  0.06751665  1  0.066324  0  0.102179  0.097433  0  1.009362  0
H  H16  1  0.81720130  0.26673639  0.47867505  1  0.049793  0  0.095718  0.062178  0  0.995546  0
H  H17  1  0.90135878  0.21498625  0.41754442  1  0.042196  0  0.09068  0.049133  0  0.998888  0
H  H18  1  0.71342212  0.28408429  0.40072516  1  0.034005  0  0.091746  0.087504  0  0.972229  0
H  H19  1  0.79440630  0.23782355  0.33684749  1  0.017843  0  0.093627  0.088058  0  0.965854  0
H  H20  1  0.84977833  0.09810665  0.42805539  1  0.0158  0  0.081612  0.102294  0  1.014395  0
H  H21  1  0.74309725  0.12881070  0.41649863  1  0.031204  0  0.087976  0.117629  0  0.998641  0
H  H22  1  0.76964272  0.14480248  0.49303401  1  0.017434  0  0.083529  0.110615  0  1.02428  0
H  H23  1  0.17103745  0.25503667  0.40615980  1  0.014232  0  0.092939  0.048164  0  0.989854  0
H  H24  1  0.22436497  0.32370715  0.37107132  1  0.079355  0  0.099  0.063072  0  1.004411  0
H  H25  1  0.22816596  0.30439669  0.24677451  1  0.036361  0  0.090956  0.12367  0  1.001614  0
H  H26  1  0.89077580  0.67241776  0.59536249  1  0.066281  0  0.102678  0.105702  0  1.010152  0
H  H27  1  0.27737320  0.20306527  0.30533492  1  0.051564  0  0.094178  0.129913  0  1.001543  0
H  H28  1  0.17448439  0.23637691  0.28133928  1  0.027392  0  0.09146  0.125574  0  0.997242  0
H  H29  1  0.93124922  0.81340239  0.53062413  1  0.012254  0  0.093356  0.051341  0  0.976569  0
H  H30  1  0.02010563  0.82032822  0.55296687  1  0.044372  0  0.095324  0.055076  0  0.975559  0
H  H31  1  0.85436981  0.85166033  0.64683170  1  0.025996  0  0.089326  0.0789  0  0.979829  0
H  H32  1  0.94293347  0.85643686  0.66995027  1  0.026878  0  0.095223  0.091155  0  0.964069  0
H  H33  1  0.93235173  0.97699937  0.56044985  1  0.014407  0  0.085316  0.109529  0  1.005509  0
H  H34  1  0.83972560  0.00491943  0.61887297  1  0.022218  0  0.088575  0.117764  0  1.003496  0
H  H35  1  0.84183941  0.97331892  0.53939636  1  0.036224  0  0.085912  0.111841  0  1.017958  0
H  H36  1  0.12904801  0.59438328  0.35705541  1  0.039319  0  0.093441  0.051208  0  0.991216  0
H  H37  1  0.79811640  0.52853506  0.51469584  1  0.054203  0  0.105021  0.103514  0  1.028006  0
H  H38  1  0.11716388  0.54545215  0.29288583  1  0.057155  0  0.098827  0.059078  0  0.966055  0
H  H39  1  0.27337057  0.46982933  0.27291671  1  0.035713  0  0.092713  0.129686  0  0.997601  0
H  H40  1  0.24255420  0.58199234  0.25695926  1  0.035371  0  0.09189  0.123279  0  1.004418  0
H  H41  1  0.28617848  0.51568524  0.33884242  1  0.059114  0  0.092457  0.133911  0  1.006521  0
H  H42  1  0.61745522  0.84643258  0.42108457  1  0.036074  0  0.093281  0.053887  0  0.994559  0
H  H43  1  0.59520414  0.77609975  0.38558895  1  0.060476  0  0.09721  0.06541  0  0.983506  0
H  H44  1  0.71574127  0.71949038  0.50151523  1  -0.00138  0  0.087402  0.07701  0  0.987021  0
H  H45  1  0.69237530  0.65043323  0.46661531  1  0.047942  0  0.088745  0.086232  0  1.004648  0
H  H46  1  0.75141859  0.69998410  0.34389054  1  0.019602  0  0.087696  0.116889  0  0.995502  0
H  H47  1  0.82741973  0.65970720  0.40657755  1  0.059704  0  0.083201  0.114948  0  1.039207  0
H  H48  1  0.15595180  0.67284374  0.59734442  1  0.104433  0  0.113249  0.136896  0  0.985853  0
H  H49  1  0.77272958  0.77202166  0.37676714  1  0.00857  0  0.083194  0.10724  0  1.004259  0
H  H50  1  0.38024964  0.81140296  0.33212215  1  0.034447  0  0.099811  0.065951  0  0.998801  0
H  H51  1  0.28207933  0.88853349  0.29942433  1  0.033837  0  0.097569  0.060883  0  0.964378  0
H  H52  1  0.31766538  0.70730065  0.39016834  1  0.037648  0  0.088646  0.0843  0  0.988082  0
H  H53  1  0.21880811  0.78315924  0.36112730  1  0.011678  0  0.092819  0.086923  0  0.967293  0
H  H54  1  0.27759238  0.78492086  0.23150590  1  0.012351  0  0.083008  0.104828  0  1.008558  0
H  H55  1  0.29322639  0.67918213  0.27832565  1  0.032099  0  0.086718  0.116813  0  1.021574  0
H  H56  1  0.37776996  0.70998709  0.26033496  1  0.043165  0  0.084019  0.114012  0  1.016498  0
H  H57  1  0.16921692  0.04822998  0.50496827  1  0.042302  0  0.09392  0.050459  0  0.967753  0
H  H58  1  0.16969828  0.96880926  0.46440062  1  0.074078  0  0.098915  0.063008  0  0.995211  0
H  H59  1  0.20477949  0.49038201  0.46999766  1  0.161646  0  0.108495  0.119562  0  1.049948  0
H  H60  1  0.09043818  0.08410869  0.36478227  1  0.048764  0  0.09285  0.126819  0  0.989999  0
H  H61  1  0.03476403  0.10098199  0.44954236  1  0.032737  0  0.09055  0.117687  0  1.014304  0
H  H62  1  0.09037289  0.16418851  0.40362450  1  0.030026  0  0.090632  0.122767  0  1.013666  0
H  H63  1  0.35486750  0.67942416  0.00755276  1  0.04321  0  0.096226  0.055479  0  0.975445  0
H  H64  1  0.31105163  0.61107321  0.06854976  1  0.043463  0  0.094678  0.054986  0  0.988547  0
H  H65  1  0.24179932  0.61091837  0.96690588  1  0.058685  0  0.093353  0.12748  0  0.991736  0
H  H66  1  0.20927837  0.71701416  0.97877756  1  0.0163  0  0.09114  0.12009  0  1.000451  0
H  H67  1  0.28482991  0.68000206  0.90717040  1  0.058501  0  0.092665  0.128772  0  0.994434  0
H  H68  1  0.47913114  0.31613725  0.15702823  1  0.023547  0  0.09395  0.048858  0  0.966887  0
H  H69  1  0.49051745  0.37246811  0.06723135  1  0.060033  0  0.097236  0.057952  0  0.995377  0
H  H70  1  0.84010466  0.58891098  0.55081098  1  0.024962  0  0.101531  0.098793  0  1.025108  0
H  H71  1  0.35447377  0.38254619  0.04150591  1  0.061796  0  0.094694  0.131123  0  0.992032  0
H  H72  1  0.42168701  0.27330151  0.07411796  1  0.041713  0  0.093707  0.12371  0  0.995981  0
H  H73  1  0.33833337  0.33088145  0.13200260  1  0.042733  0  0.089795  0.120774  0  1.008229  0
H  H74  1  0.71303742  0.48361813  0.02271897  1  0.041267  0  0.101709  0.068246  0  0.961647  0
H  H75  1  0.64509793  0.56356669  0.95764381  1  0.019368  0  0.09414  0.050296  0  0.998691  0
H  H76  1  0.77927704  0.38732255  0.93574283  1  0.030635  0  0.092163  0.088029  0  0.967476  0
H  H77  1  0.71145161  0.46435132  0.87063410  1  0.033558  0  0.088059  0.084174  0  1.001217  0
H  H78  1  0.76995722  0.56998702  0.87070945  1  0.020879  0  0.082141  0.103362  0  1.01045  0
H  H79  1  0.85102038  0.47396856  0.84962963  1  0.048258  0  0.090053  0.118848  0  0.997087  0
H  H80  1  0.83785226  0.49392137  0.93679663  1  0.029246  0  0.085007  0.107448  0  1.006049  0
H  H81  1  0.41964768  0.44237444  0.26222484  1  0.103934  0  0.111912  0.128956  0  1.009743  0
H  H82  1  0.46770203  0.74702035  0.77397873  1  0.042511  0  0.098604  0.060599  0  0.971852  0
H  H83  1  0.57132854  0.68634603  0.80203398  1  0.045601  0  0.095676  0.054327  0  0.977867  0
H  H84  1  0.42399200  0.81890642  0.87574595  1  0.002466  0  0.093494  0.086412  0  0.966665  0
H  H85  1  0.52045265  0.75127177  0.91341167  1  0.032417  0  0.090976  0.082028  0  0.978901  0
H  H86  1  0.59745507  0.81378078  0.81006939  1  -0.011562  0  0.083594  0.105417  0  1.0092  0
H  H87  1  0.51564204  0.89761456  0.84750284  1  0.036519  0  0.089673  0.117868  0  0.997968  0
H  H88  1  0.50390179  0.87803215  0.76628967  1  0.031365  0  0.08701  0.11358  0  1.004375  0
H  H89  1  0.98456455  0.33418236  0.35249276  1  0.089874  0  0.109861  0.128354  0  1.006056  0
C  C90  1  0.71954384  0.45742791  0.46806944  1  1.610821  0  0.237523  0.639702  0  4.150851  0
C  C91  1  0.54615592  0.49916417  0.97268732  1  0.518843  0  0.053844  0.065558  0  4.079217  0
C  C92  1  0.47579251  0.52950173  0.01654451  1  0.519874  0  0.064791  0.078661  0  4.091443  0
C  C93  1  0.28009920  0.55461686  0.52696002  1  1.54463  0  0.226736  0.603786  0  4.160513  0
C  C94  1  0.49017052  0.51958534  0.23671690  1  -0.00185  0  -0.021299  -0.028977  0  4.015298  0
C  C95  1  0.18850321  0.57844858  0.53286070  1  -0.005151  0  -0.025837  -0.027609  0  4.03009  0
C  C96  1  0.81019431  0.44135300  0.45317038  1  -0.068566  0  -0.020032  -0.119097  0  3.985138  0
C  C97  1  0.04837536  0.65943903  0.57809407  1  0.477987  0  0.079243  0.203418  0  4.055154  0
C  C98  1  0.13260346  0.64080023  0.57189907  1  -0.066113  0  -0.095665  -0.214982  0  3.984275  0
C  C99  1  0.15945387  0.53792517  0.49931368  1  -0.013769  0  -0.087854  -0.152992  0  3.945586  0
C  C100  1  0.07363884  0.55554936  0.50464197  1  -0.017749  0  -0.004154  0.055208  0  3.948863  0
C  C101  1  0.54337198  0.49982528  0.89723934  1  0.002064  0  -0.013067  -0.034273  0  4.009484  0
C  C102  1  0.01733737  0.61557511  0.54748928  1  -0.028931  0  -0.010837  -0.01187  0  3.991011  0
C  C103  1  0.04104690  0.51303679  0.47159575  1  -0.035036  0  -0.006495  -0.049457  0  3.943375  0
C  C104  1  0.95698018  0.52260923  0.49121255  1  -0.011183  0  -0.009601  0.028075  0  3.993652  0
C  C105  1  0.44185598  0.73069686  0.46066301  1  1.634362  0  0.235937  0.650121  0  4.158756  0
C  C106  1  0.90474881  0.58053439  0.53647248  1  -0.023227  0  -0.089653  -0.118462  0  4.02268  0
C  C107  1  0.93229310  0.62771479  0.56167652  1  0.005697  0  -0.098348  -0.129416  0  4.038993  0
C  C108  1  0.08886622  0.46310809  0.41844737  1  0.516138  0  0.069037  0.083934  0  4.055789  0
C  C109  1  0.05860896  0.41676545  0.39346822  1  0.527986  0  0.073888  0.094053  0  4.081548  0
C  C110  1  0.97625978  0.42087532  0.41640498  1  0.004563  0  -0.012792  0.012524  0  4.039948  0
C  C111  1  0.92429828  0.47636840  0.46368417  1  -0.00725  0  -0.009431  0.027545  0  3.993705  0
C  C112  1  0.57703383  0.42198725  0.87441726  1  -0.043935  0  -0.086993  -0.105682  0  4.003589  0
C  C113  1  0.94473796  0.37503601  0.38960906  1  0.034749  0  -0.098712  -0.230128  0  3.964896  0
C  C114  1  0.86288374  0.38476899  0.40787520  1  0.524979  0  0.081855  0.232683  0  4.080328  0
C  C115  1  0.84082311  0.48519772  0.48051993  1  -0.007806  0  -0.085101  -0.132889  0  3.975768  0
C  C116  1  0.56463958  0.18316462  0.55480669  1  -0.001666  0  -0.024319  -0.047544  0  4.008606  0
C  C117  1  0.54702390  0.27558877  0.54057109  1  1.535889  0  0.22473  0.602714  0  4.171404  0
C  C118  1  0.41852762  0.82431304  0.45354228  1  -0.059484  0  -0.030266  -0.224599  0  4.010816  0
C  C119  1  0.64917361  0.03507587  0.60440714  1  -0.025048  0  -0.091944  -0.140626  0  4.005863  0
C  C120  1  0.63243378  0.12041838  0.59457384  1  -0.021659  0  -0.086507  -0.097018  0  4.017064  0
C  C121  1  0.51414748  0.15906923  0.52754986  1  -0.042273  0  -0.07719  -0.126992  0  3.937568  0
C  C122  1  0.52910812  0.07240039  0.53744206  1  -0.000773  0  -0.003979  0.030256  0  3.95679  0
C  C123  1  0.57357638  0.41978010  0.80422276  1  -0.066834  0  -0.093534  -0.117482  0  4.012565  0
C  C124  1  0.59941951  0.00915079  0.57567539  1  -0.083628  0  -0.00583  0.083325  0  4.028674  0
C  C125  1  0.47684824  0.04614939  0.50965134  1  -0.002687  0  -0.004594  0.031865  0  3.961128  0
C  C126  1  0.50051853  0.95758626  0.51436517  1  -0.008502  0  -0.004096  0.047962  0  3.94355  0
C  C127  1  0.57089706  0.89659444  0.55376802  1  -0.047356  0  -0.094506  -0.131314  0  4.01712  0
C  C128  1  0.61733862  0.92123476  0.58399316  1  -0.031916  0  -0.097825  -0.145386  0  4.040847  0
C  C129  1  0.49622623  0.51397463  0.31328035  1  1.520588  0  0.227532  0.604375  0  4.170694  0
C  C130  1  0.40009428  0.10734193  0.48013303  1  -0.049873  0  -0.094903  -0.134265  0  4.024018  0
C  C131  1  0.34804275  0.08240682  0.45799651  1  -0.039895  0  -0.093844  -0.116813  0  4.027272  0
C  C132  1  0.37098258  0.99476888  0.45866665  1  0.002609  0  -0.015178  0.004422  0  4.03283  0
C  C133  1  0.45036100  0.93162053  0.48327520  1  -0.024159  0  -0.012303  -0.064974  0  3.950605  0
C  C134  1  0.44049725  0.48267990  0.14845821  1  0.48723  0  0.082883  0.205931  0  4.053735  0
C  C135  1  0.31620250  0.97154710  0.43331491  1  0.459478  0  0.068655  0.084404  0  4.06479  0
C  C136  1  0.33923617  0.88638043  0.43178387  1  0.600281  0  0.074715  0.136027  0  4.102581  0
C  C137  1  0.47378580  0.84638769  0.47623007  1  0.554555  0  0.080584  0.18794  0  4.027649  0
C  C138  1  0.52250078  0.49526179  0.68218923  1  1.532843  0  0.226524  0.60855  0  4.158323  0
C  C139  1  0.53361165  0.49671172  0.75569298  1  -0.057168  0  -0.022988  -0.022183  0  4.014825  0
C  C140  1  0.50145290  0.57525766  0.77677345  1  0.088427  0  -0.09705  -0.217948  0  3.969245  0
C  C141  1  0.50788904  0.57716283  0.84666091  1  0.447059  0  0.084864  0.213262  0  4.048998  0
C  C142  1  0.83551268  0.26215029  0.42195267  1  0.383315  0  -0.069818  0.037286  0  3.901761  0
C  C143  1  0.77834069  0.23616150  0.39465049  1  0.013324  0  -0.167587  -0.126348  0  3.984688  0
C  C144  1  0.78566913  0.14707744  0.43523530  1  -0.057068  0  -0.243758  -0.353278  0  3.98092  0
C  C145  1  0.44731788  0.47849265  0.21963569  1  -0.015516  0  -0.089255  -0.197899  0  3.964501  0
C  C146  1  0.18237452  0.30012529  0.35829204  1  0.405375  0  -0.070197  0.079755  0  3.912245  0
C  C147  1  0.21749234  0.25871795  0.29399967  1  -0.059204  0  -0.244418  -0.396091  0  3.981148  0
C  C148  1  0.96489678  0.80645295  0.57584591  1  0.424405  0  -0.066434  0.041438  0  3.913833  0
C  C149  1  0.90845443  0.86726637  0.62435661  1  0.00247  0  -0.167054  -0.12882  0  3.992183  0
C  C150  1  0.87901400  0.96055382  0.58357819  1  -0.068075  0  -0.243929  -0.360243  0  3.989958  0
C  C151  1  0.15835978  0.53781606  0.33231552  1  0.378298  0  -0.066485  0.088698  0  3.899983  0
C  C152  1  0.24536655  0.52520412  0.29860766  1  -0.059618  0  -0.244684  -0.397709  0  3.968182  0
C  C153  1  0.61468749  0.78342549  0.43301448  1  0.369859  0  -0.069754  0.034022  0  3.881353  0
C  C154  1  0.69858635  0.71160604  0.45320369  1  0.008467  0  -0.170339  -0.132251  0  3.98658  0
C  C155  1  0.76626551  0.71088774  0.39170025  1  -0.066993  0  -0.244337  -0.351519  0  3.966299  0
C  C156  1  0.52686469  0.56507402  0.18178259  1  -0.049294  0  -0.088663  -0.104809  0  3.994182  0
C  C157  1  0.31190773  0.83334452  0.34283109  1  0.408332  0  -0.0658  0.03711  0  3.870612  0
C  C158  1  0.28665849  0.76129580  0.34665926  1  0.014449  0  -0.169174  -0.128072  0  3.980376  0
C  C159  1  0.31004854  0.73233474  0.27526062  1  -0.079616  0  -0.244503  -0.353332  0  3.970181  0
C  C160  1  0.16795278  0.03350360  0.45363238  1  0.389706  0  -0.06842  0.083991  0  3.912103  0
C  C161  1  0.09168454  0.09971975  0.41536810  1  -0.07523  0  -0.243352  -0.392666  0  3.984797  0
C  C162  1  0.33222773  0.62978139  0.01203149  1  0.422244  0  -0.069097  0.082344  0  3.916368  0
C  C163  1  0.26300920  0.66118846  0.96317114  1  -0.086165  0  -0.24287  -0.391776  0  3.983701  0
C  C164  1  0.44450664  0.36377956  0.11155600  1  0.394035  0  -0.06644  0.096185  0  3.913101  0
C  C165  1  0.38603121  0.33626747  0.08842709  1  -0.077267  0  -0.243373  -0.394192  0  3.983659  0
C  C166  1  0.68088303  0.49383059  0.97572343  1  0.422523  0  -0.068426  0.037817  0  3.895896  0
C  C167  1  0.52120291  0.56785738  0.11077512  1  0.009391  0  -0.086176  -0.102181  0  4.000567  0
C  C168  1  0.74438549  0.45670603  0.91613165  1  -0.004709  0  -0.173334  -0.142664  0  3.989612  0
C  C169  1  0.80414591  0.50090507  0.89200559  1  -0.105068  0  -0.242358  -0.347514  0  3.990516  0
C  C170  1  0.50470840  0.71728323  0.82122128  1  0.391902  0  -0.064877  0.03841  0  3.905642  0
C  C171  1  0.49147372  0.78427931  0.86221099  1  0.037577  0  -0.165263  -0.12672  0  3.987979  0
C  C172  1  0.52900197  0.84687208  0.81913793  1  -0.057972  0  -0.242184  -0.352817  0  3.983927  0
C  C173  1  0.47861841  0.52682020  0.09253788  1  0.012344  0  -0.010355  -0.044608  0  4.020989  0
O  O174  1  0.50263007  0.50240512  0.50065150  1  -1.236478  0  -0.574524  -1.02981  0  2.554901  0
O  O175  1  0.53199071  0.55605351  0.32685862  1  -1.17176  0  -0.316833  -0.550817  0  2.337429  0
O  O176  1  0.57219874  0.42863305  0.65755189  1  -1.174052  0  -0.319809  -0.553409  0  2.331455  0
O  O177  1  0.46490722  0.46722671  0.35952093  1  -1.172681  0  -0.318147  -0.549182  0  2.367766  0
O  O178  1  0.46321152  0.56072690  0.64996696  1  -1.176167  0  -0.317068  -0.544676  0  2.334036  0
O  O179  1  0.82911151  0.34487729  0.37909959  1  -1.074157  0  -0.211997  -0.253634  0  2.4857  0
O  O180  1  0.10245977  0.37146159  0.34106109  1  -1.079006  0  -0.197767  -0.214744  0  2.5292  0
O  O181  1  0.99235969  0.71947791  0.61709545  1  -1.076823  0  -0.21274  -0.254543  0  2.497698  0
O  O182  1  0.16565160  0.46181863  0.38764843  1  -1.072435  0  -0.199676  -0.221915  0  2.544511  0
O  O183  1  0.55165378  0.78091236  0.49212928  1  -1.06363  0  -0.205503  -0.239045  0  2.50397  0
O  O184  1  0.28529764  0.86319092  0.40981955  1  -1.061492  0  -0.200555  -0.22576  0  2.522118  0
O  O185  1  0.40259236  0.69948994  0.51309972  1  -1.172284  0  -0.30615  -0.533285  0  2.326056  0
O  O186  1  0.24188513  0.03496971  0.40799939  1  -1.059672  0  -0.204201  -0.22465  0  2.511321  0
O  O187  1  0.40037659  0.55600176  0.98960318  1  -1.057731  0  -0.185657  -0.197078  0  2.546198  0
O  O188  1  0.39466260  0.44404021  0.13447321  1  -1.077417  0  -0.208485  -0.251515  0  2.500801  0
O  O189  1  0.62261226  0.45419043  0.00231843  1  -1.058696  0  -0.207901  -0.234515  0  2.514609  0
O  O190  1  0.48075351  0.65261084  0.86914811  1  -1.064707  0  -0.193703  -0.234369  0  2.550765  0
O  O191  1  0.59569314  0.29533930  0.56536373  1  -1.171938  0  -0.314656  -0.543612  0  2.330519  0
O  O192  1  0.66917894  0.52552392  0.43025264  1  -1.17452  0  -0.30643  -0.536717  0  2.308667  0
O  O193  1  0.32514142  0.50746869  0.48232710  1  -1.180301  0  -0.318017  -0.550357  0  2.370652  0
O  O194  1  0.70124605  0.40313588  0.51735016  1  -1.172154  0  -0.307606  -0.542019  0  2.32007  0
O  O195  1  0.30700371  0.58281203  0.56656254  1  -1.160559  0  -0.317333  -0.54532  0  2.319642  0
O  O196  1  0.49740163  0.69151803  0.41562711  1  -1.167461  0  -0.306718  -0.543393  0  2.321811  0
O  O197  1  0.48464454  0.32815912  0.50419280  1  -1.177787  0  -0.319292  -0.550101  0  2.359452  0
