# generated using pymatgen
data_MnH16C18(N7O)2
_symmetry_space_group_name_H-M   'P 1'
_cell_length_a   7.23314484
_cell_length_b   7.45509636
_cell_length_c   9.47604130
_cell_angle_alpha   100.29680019
_cell_angle_beta   96.92521297
_cell_angle_gamma   109.98552927
_symmetry_Int_Tables_number   1
_chemical_formula_structural   MnH16C18(N7O)2
_chemical_formula_sum   'Mn1 H16 C18 N14 O2'
_cell_volume   463.26943777
_cell_formula_units_Z   1
loop_
 _symmetry_equiv_pos_site_id
 _symmetry_equiv_pos_as_xyz
  1  'x, y, z'
loop_
 _atom_site_type_symbol
 _atom_site_label
 _atom_site_symmetry_multiplicity
 _atom_site_fract_x
 _atom_site_fract_y
 _atom_site_fract_z
 _atom_site_occupancy
 _atom_site_hle17_ddec_charge
 _atom_site_hle17_ddec_spin_density
 _atom_site_hle17_ddec_sum_bond_order
 _atom_site_hle17_magmom
 _atom_site_hse06_10hf_ddec_charge
 _atom_site_hse06_10hf_ddec_spin_density
 _atom_site_hse06_10hf_ddec_sum_bond_order
 _atom_site_hse06_10hf_magmom
 _atom_site_hse06_ddec_charge
 _atom_site_hse06_ddec_spin_density
 _atom_site_hse06_ddec_sum_bond_order
 _atom_site_hse06_magmom
 _atom_site_pbe_cm5_charge
 _atom_site_pbe_ddec_charge
 _atom_site_pbe_ddec_spin_density
 _atom_site_pbe_ddec_sum_bond_order
 _atom_site_pbe_magmom
Mn  Mn0  1  0.50000156  0.50000363  0.50000368  1  0.734694  1.08483  2.693059  1.049  0.624519  1.060643  3.236453  1.018  0.671976  1.038288  3.173427  0.994  0.639161  0.598745  1.083699  3.2712  1.041
H  H1  1  0.72580519  0.87535630  0.47664327  1  0.376881  -0.001967  0.931834  -0.002  0.333816  -9.1e-05  1.031848  0.0  0.343638  8.8e-05  1.01814  0.0  0.293437  0.327059  -0.00019  1.041265  0.0
H  H2  1  0.27419433  0.12464504  0.52335556  1  0.376825  -0.001967  0.931885  -0.002  0.33377  -9.1e-05  1.031904  0.0  0.343592  8.8e-05  1.018198  0.0  0.293421  0.327016  -0.00019  1.041317  0.0
H  H3  1  0.81622989  0.72102420  0.39789274  1  0.390586  0.000704  0.899457  0.001  0.35562  -0.001038  0.987327  -0.001  0.365555  -0.00134  0.977332  -0.001  0.296324  0.348719  -0.000805  0.994067  -0.001
H  H4  1  0.18376938  0.27898008  0.60210540  1  0.390561  0.000704  0.89939  0.001  0.355597  -0.001039  0.987282  -0.001  0.365531  -0.001341  0.97729  -0.001  0.296332  0.348696  -0.000806  0.994021  -0.001
H  H5  1  0.07161414  0.19654035  0.36753260  1  0.094947  0.00015  0.996596  0.0  0.103775  0.000217  1.061075  0.0  0.107639  0.000199  1.05831  0.0  0.107604  0.100747  0.00025  1.063192  0.0
H  H6  1  0.92838707  0.80346541  0.63246805  1  0.09499  0.00015  0.996537  0.0  0.103783  0.000217  1.061056  0.0  0.107645  0.0002  1.058297  0.0  0.107597  0.100758  0.00025  1.063173  0.0
H  H7  1  0.88388129  0.89073118  0.17904555  1  0.11146  -2e-05  0.968746  0.0  0.11231  2e-05  1.047077  0.0  0.116959  8e-06  1.043252  0.0  0.104981  0.10875  5e-06  1.050335  0.0
H  H8  1  0.11612574  0.10927160  0.82095527  1  0.111517  -2e-05  0.968659  0.0  0.112366  2e-05  1.046981  0.0  0.117016  8e-06  1.043153  0.0  0.105019  0.108809  5e-06  1.050239  0.0
H  H9  1  0.67471492  0.22066098  0.91162181  1  0.104204  -2.3e-05  0.947587  0.0  0.116484  -5.1e-05  1.007509  0.0  0.119362  -2.1e-05  1.006246  0.0  0.106819  0.114447  -7.9e-05  1.00832  0.0
H  H10  1  0.32528092  0.77933452  0.08837905  1  0.104189  -2.3e-05  0.947569  0.0  0.116463  -5.1e-05  1.007502  0.0  0.119344  -2.1e-05  1.006236  0.0  0.106822  0.11443  -7.9e-05  1.008309  0.0
H  H11  1  0.86279996  0.52566152  0.10031924  1  0.100109  2.8e-05  0.967964  0.0  0.104846  1.3e-05  1.04042  0.0  0.108259  7e-06  1.038364  0.0  0.102935  0.10228  -8e-06  1.042168  0.0
H  H12  1  0.13719369  0.47433545  0.89967949  1  0.100073  2.8e-05  0.967998  0.0  0.104808  1.3e-05  1.04047  0.0  0.108208  6e-06  1.038425  0.0  0.102923  0.102245  -8e-06  1.042216  0.0
H  H13  1  0.52169038  0.40116155  0.81235712  1  0.099491  -4e-06  0.940374  0.0  0.104789  -1.1e-05  1.006623  0.0  0.107875  -7e-05  1.002523  0.0  0.137351  0.102391  5.2e-05  1.010051  0.0
H  H14  1  0.47831215  0.59883686  0.18764584  1  0.099494  -4e-06  0.940393  0.0  0.104803  -1.1e-05  1.00663  0.0  0.10789  -6.9e-05  1.002529  0.0  0.137355  0.102404  5.2e-05  1.01006  0.0
H  H15  1  0.62718472  0.95366880  0.71985524  1  0.107846  -6.4e-05  0.963935  0.0  0.105722  -0.000326  1.044986  0.0  0.109756  -0.000139  1.037825  0.0  0.142329  0.102651  -0.000461  1.049633  0.0
H  H16  1  0.37281810  0.04632664  0.28014418  1  0.107865  -6.3e-05  0.963958  0.0  0.105733  -0.000326  1.044996  0.0  0.109765  -0.000139  1.037842  0.0  0.142353  0.10268  -0.00046  1.049624  0.0
C  C17  1  0.10643627  0.56902163  0.35327108  1  0.266616  -0.006678  3.740108  -0.005  0.23937  -0.000715  4.015546  0.0  0.25119  0.001  4.031174  0.001  0.214629  0.231713  -0.002449  4.005041  -0.001
C  C18  1  0.89356185  0.43097973  0.64672868  1  0.266695  -0.006678  3.740161  -0.005  0.239477  -0.000714  4.015546  0.0  0.251301  0.000999  4.031168  0.001  0.214704  0.231821  -0.002449  4.00504  -0.001
C  C19  1  0.98586764  0.38413331  0.24726332  1  0.002974  -0.000174  3.770619  0.0  0.01845  -0.000939  4.01014  0.0  0.016495  -0.000203  4.030961  0.0  -0.007842  0.018591  -0.002325  3.997819  -0.001
C  C20  1  0.01412993  0.61586658  0.75273618  1  0.002925  -0.000173  3.770649  0.0  0.018433  -0.000939  4.010107  0.0  0.016478  -0.000201  4.030924  0.0  -0.007868  0.018576  -0.002325  3.997785  -0.001
C  C21  1  0.98518300  0.20241856  0.26791659  1  -0.062063  -0.001599  3.734522  -0.001  -0.088029  -0.000864  3.987197  -0.001  -0.087741  -0.000437  4.006115  0.0  -0.086175  -0.08861  -0.001623  3.976103  -0.001
C  C22  1  0.01481791  0.79758278  0.73208343  1  -0.062105  -0.001599  3.734516  -0.001  -0.088069  -0.000863  3.987188  -0.001  -0.087783  -0.000437  4.00611  0.0  -0.086182  -0.08865  -0.001623  3.976099  -0.001
C  C23  1  0.87905057  0.02985481  0.16241788  1  -0.139129  0.000111  3.720814  0.0  -0.163243  -0.00053  3.987747  0.0  -0.166596  -0.000147  4.002056  0.0  -0.093896  -0.16198  -0.001198  3.978018  0.0
C  C24  1  0.12095173  0.97014652  0.83758123  1  -0.139243  0.000111  3.720796  0.0  -0.163331  -0.00053  3.987713  0.0  -0.166685  -0.000147  4.002024  0.0  -0.093941  -0.162072  -0.001198  3.977992  0.0
C  C25  1  0.77106895  0.03707847  0.03236388  1  0.16647  -0.00212  3.786912  -0.001  0.144762  -0.001518  4.040431  -0.001  0.161466  -0.000708  4.062307  0.0  0.094957  0.1399  -0.00341  4.026716  -0.002
C  C26  1  0.22893416  0.96292140  0.96763722  1  0.16651  -0.002121  3.786803  -0.001  0.14477  -0.001517  4.040345  -0.001  0.161452  -0.000707  4.06222  0.0  0.094967  0.13991  -0.00341  4.02663  -0.002
C  C27  1  0.76312897  0.21548229  0.01116363  1  -0.145182  8.6e-05  3.737091  0.0  -0.170448  -0.000684  4.002664  0.0  -0.174614  -0.000103  4.019911  0.0  -0.094317  -0.167597  -0.001097  3.988833  0.0
C  C28  1  0.23686942  0.78451612  0.98883576  1  -0.145109  8.6e-05  3.73695  0.0  -0.17036  -0.000685  4.002536  0.0  -0.174527  -0.000103  4.019781  0.0  -0.094307  -0.16751  -0.001096  3.988706  0.0
C  C29  1  0.86893231  0.38731896  0.11820194  1  -0.067818  -0.001207  3.707622  -0.001  -0.089058  -0.000515  3.958154  0.0  -0.089048  -0.000297  3.97786  0.0  -0.083519  -0.089518  -0.000982  3.946266  0.0
C  C30  1  0.13106386  0.61268094  0.88179742  1  -0.067784  -0.001208  3.7076  -0.001  -0.089052  -0.000514  3.958143  0.0  -0.089029  -0.000299  3.977854  0.0  -0.083497  -0.089515  -0.000982  3.946256  0.0
C  C31  1  0.56909224  0.55844684  0.82630374  1  0.201259  -0.001109  3.680974  -0.001  0.146346  0.000644  3.976243  0.001  0.159739  0.000576  3.983473  0.001  0.15214  0.137761  0.001595  3.969513  0.001
C  C32  1  0.43090947  0.44155305  0.17369934  1  0.201279  -0.001107  3.680939  -0.001  0.146376  0.000644  3.976213  0.001  0.159766  0.000576  3.983453  0.001  0.152109  0.137792  0.001594  3.96948  0.001
C  C33  1  0.61669578  0.83754786  0.77602864  1  0.175686  -0.008655  3.588927  -0.005  0.096005  -0.010897  3.866729  -0.006  0.12622  -0.006586  3.874966  -0.003  0.163533  0.082301  -0.014581  3.863276  -0.008
C  C34  1  0.38330677  0.16245054  0.22397220  1  0.175671  -0.008649  3.589162  -0.005  0.096051  -0.010894  3.866927  -0.006  0.12624  -0.006583  3.875164  -0.003  0.163534  0.08233  -0.014576  3.863456  -0.008
N  N35  1  0.28396413  0.61549019  0.44777241  1  -0.273782  -0.015261  3.152568  -0.012  -0.22657  -0.01042  3.460528  -0.01  -0.24554  -0.008759  3.472624  -0.01  -0.229801  -0.214996  -0.012202  3.452217  -0.012
N  N36  1  0.71603344  0.38450969  0.55222604  1  -0.273777  -0.015266  3.15259  -0.012  -0.226598  -0.01042  3.460574  -0.01  -0.245567  -0.008756  3.472668  -0.01  -0.229851  -0.215026  -0.012203  3.452263  -0.012
N  N37  1  0.34188984  0.80813267  0.51247516  1  -0.068393  -0.001264  2.975532  0.0  -0.064208  -0.0031  3.273245  -0.001  -0.062278  -0.002295  3.28525  -0.001  -0.086815  -0.065798  -0.003717  3.265847  -0.002
N  N38  1  0.65810773  0.19186721  0.48752328  1  -0.068445  -0.001265  2.97554  0.0  -0.064262  -0.003099  3.273262  -0.001  -0.062332  -0.002296  3.285269  -0.001  -0.086826  -0.06585  -0.003718  3.265866  -0.002
N  N39  1  0.20801620  0.87430370  0.46205859  1  -0.107748  0.001257  3.128923  0.001  -0.071744  -0.000332  3.415421  0.0  -0.075468  -0.000371  3.427396  0.0  -0.091813  -0.068919  -0.000158  3.407067  0.0
N  N40  1  0.79198332  0.12569765  0.53794130  1  -0.107711  0.001258  3.12895  0.001  -0.071695  -0.000336  3.415436  0.0  -0.075422  -0.000373  3.427412  0.0  -0.091789  -0.068867  -0.000157  3.407077  0.0
N  N41  1  0.05748502  0.72960787  0.36303770  1  -0.335516  -0.001286  3.010468  -0.001  -0.298139  -0.000842  3.28218  0.0  -0.31077  -0.000485  3.29545  0.0  -0.224455  -0.289534  -0.00182  3.272166  -0.001
N  N42  1  0.94251368  0.27039495  0.63696125  1  -0.335571  -0.001286  3.010599  -0.001  -0.298198  -0.000841  3.282301  0.0  -0.31083  -0.000484  3.295571  0.0  -0.224486  -0.289594  -0.00182  3.272283  -0.001
N  N43  1  0.67462672  0.86197054  0.92181941  1  0.00266  -0.000265  3.618664  0.0  0.117955  -0.002148  3.796342  -0.001  0.076076  -0.001475  3.858012  -0.001  -0.12104  0.126204  -0.00229  3.779953  -0.001
N  N44  1  0.32537722  0.13802785  0.07818157  1  0.002648  -0.000264  3.618787  0.0  0.117949  -0.002148  3.796448  -0.001  0.076129  -0.001474  3.858064  -0.001  -0.121054  0.126197  -0.002289  3.780059  -0.001
N  N45  1  0.64398264  0.68425155  0.95475817  1  -0.263967  0.000582  2.893117  0.001  -0.258858  0.001714  3.167162  0.002  -0.259004  0.001531  3.18766  0.002  -0.214173  -0.251624  0.001665  3.156749  0.002
N  N46  1  0.35602129  0.31574684  0.04524281  1  -0.263991  0.000581  2.89307  0.001  -0.258872  0.001714  3.167093  0.002  -0.259038  0.001529  3.187584  0.002  -0.214162  -0.251641  0.001664  3.156678  0.002
N  N47  1  0.55169205  0.64565969  0.71183545  1  -0.33935  -0.014303  3.2917  -0.012  -0.280657  -0.007418  3.5964  -0.009  -0.303047  -0.005803  3.603496  -0.007  -0.35255  -0.265317  -0.008513  3.586332  -0.01
N  N48  1  0.44831132  0.35433724  0.28816527  1  -0.339399  -0.014305  3.291833  -0.012  -0.280782  -0.007416  3.596591  -0.009  -0.303167  -0.005802  3.603687  -0.007  -0.352541  -0.265439  -0.008513  3.586518  -0.01
O  O49  1  0.69578957  0.73123771  0.43562236  1  -0.765549  0.010663  2.117798  0.006  -0.701502  0.009506  2.375119  0.005  -0.732053  0.006684  2.349587  0.003  -0.550211  -0.678948  0.01249  2.391024  0.008
O  O50  1  0.30420913  0.26876510  0.56437554  1  -0.765494  0.010665  2.117797  0.006  -0.701474  0.009508  2.375099  0.005  -0.732025  0.006685  2.349574  0.003  -0.550225  -0.67892  0.012491  2.390999  0.008
