# generated using pymatgen
data_CdH18C24(SN6)2
_symmetry_space_group_name_H-M   'P 1'
_cell_length_a   9.11777377
_cell_length_b   11.23038358
_cell_length_c   13.07104505
_cell_angle_alpha   94.04930101
_cell_angle_beta   90.00005352
_cell_angle_gamma   90.00001661
_symmetry_Int_Tables_number   1
_chemical_formula_structural   CdH18C24(SN6)2
_chemical_formula_sum   'Cd2 H36 C48 S4 N24'
_cell_volume   1335.08283031
_cell_formula_units_Z   2
loop_
 _symmetry_equiv_pos_site_id
 _symmetry_equiv_pos_as_xyz
  1  'x, y, z'
loop_
 _atom_site_type_symbol
 _atom_site_label
 _atom_site_symmetry_multiplicity
 _atom_site_fract_x
 _atom_site_fract_y
 _atom_site_fract_z
 _atom_site_occupancy
 _atom_site_hle17_bader_spin_density
 _atom_site_hle17_ddec_charge
 _atom_site_hle17_ddec_spin_density
 _atom_site_hle17_ddec_sum_bond_order
 _atom_site_hle17_magmom
 _atom_site_hse06_10hf_bader_spin_density
 _atom_site_hse06_10hf_ddec_charge
 _atom_site_hse06_10hf_ddec_spin_density
 _atom_site_hse06_10hf_ddec_sum_bond_order
 _atom_site_hse06_10hf_magmom
 _atom_site_hse06_bader_spin_density
 _atom_site_hse06_ddec_charge
 _atom_site_hse06_ddec_spin_density
 _atom_site_hse06_ddec_sum_bond_order
 _atom_site_hse06_magmom
 _atom_site_pbe_bader_spin_density
 _atom_site_pbe_cm5_charge
 _atom_site_pbe_ddec_charge
 _atom_site_pbe_ddec_spin_density
 _atom_site_pbe_ddec_sum_bond_order
 _atom_site_pbe_magmom
Cd  Cd0  1  0.00000000  0.00000000  0.00000000  1  0  1.037406  0  1.949093  0  0  0.840678  0  2.418487  0  0  0.886706  0  2.379051  0  0  0.807095  0.8082  0  2.445708  0
Cd  Cd1  1  0.49999967  0.50000019  0.49999994  1  0  1.037372  0  1.949118  0  0  0.840641  0  2.418515  0  0  0.886668  0  2.37908  0  0  0.80709  0.808161  0  2.445734  0
H  H2  1  0.82359530  0.20082313  0.87477318  1  0  0.102165  0  0.984485  0  0  0.107164  0  1.052657  0  0  0.109335  0  1.052708  0  0  0.109924  0.105614  0  1.0528  0
H  H3  1  0.32359701  0.29917568  0.62522516  1  0  0.102175  0  0.984475  0  0  0.107151  0  1.052677  0  0  0.109322  0  1.052725  0  0  0.109901  0.1056  0  1.052817  0
H  H4  1  0.17640184  0.79917548  0.12522505  1  0  0.102162  0  0.984502  0  0  0.107137  0  1.052704  0  0  0.109309  0  1.052751  0  0  0.109909  0.105587  0  1.052844  0
H  H5  1  0.67640452  0.70082293  0.37477307  1  0  0.102167  0  0.984482  0  0  0.107166  0  1.052653  0  0  0.109337  0  1.052704  0  0  0.10992  0.105616  0  1.052795  0
H  H6  1  0.74824586  0.43316808  0.94419355  1  0  0.104793  0  1.011857  0  0  0.107485  0  1.089417  0  0  0.110881  0  1.087223  0  0  0.104181  0.105168  0  1.090701  0
H  H7  1  0.24824410  0.06683248  0.55580791  1  0  0.10478  0  1.011841  0  0  0.107454  0  1.08941  0  0  0.110847  0  1.087222  0  0  0.104175  0.105138  0  1.090692  0
H  H8  1  0.25175567  0.56683231  0.05580785  1  0  0.104791  0  1.011837  0  0  0.107481  0  1.089399  0  0  0.110876  0  1.087208  0  0  0.10418  0.105164  0  1.090683  0
H  H9  1  0.75175524  0.93316790  0.44419349  1  0  0.104786  0  1.011854  0  0  0.107478  0  1.089413  0  0  0.110875  0  1.08722  0  0  0.104177  0.105161  0  1.090696  0
H  H10  1  0.02249139  0.27810116  0.16255092  1  0  0.104361  0  0.93555  0  0  0.109724  0  1.003404  0  0  0.112981  0  0.998882  0  0  0.138667  0.107542  0  1.00604  0
H  H11  1  0.52248965  0.22189904  0.33744903  1  0  0.104356  0  0.935561  0  0  0.109719  0  1.003413  0  0  0.112976  0  0.99889  0  0  0.138667  0.107537  0  1.006049  0
H  H12  1  0.97751014  0.72189922  0.83744895  1  0  0.104346  0  0.935568  0  0  0.10971  0  1.00342  0  0  0.112968  0  0.998897  0  0  0.138666  0.107528  0  1.006056  0
H  H13  1  0.47750859  0.77810135  0.66255084  1  0  0.104354  0  0.935548  0  0  0.109718  0  1.003404  0  0  0.112975  0  0.998881  0  0  0.138669  0.107536  0  1.00604  0
H  H14  1  0.74488481  0.59610665  0.03833003  1  0  0.122965  0  0.963026  0  0  0.131539  0  1.028324  0  0  0.134954  0  1.027166  0  0  0.104146  0.129198  0  1.028964  0
H  H15  1  0.24488591  0.90389356  0.46167053  1  0  0.122976  0  0.962995  0  0  0.131541  0  1.028305  0  0  0.134955  0  1.027147  0  0  0.104139  0.129199  0  1.028944  0
H  H16  1  0.25511453  0.40389374  0.96166984  1  0  0.122957  0  0.963043  0  0  0.131533  0  1.028337  0  0  0.134948  0  1.027179  0  0  0.104139  0.129192  0  1.028976  0
H  H17  1  0.75511453  0.09610593  0.53833005  1  0  0.122976  0  0.963017  0  0  0.131551  0  1.028311  0  0  0.134965  0  1.027154  0  0  0.10415  0.129209  0  1.02895  0
H  H18  1  0.92776410  0.78247879  0.30933300  1  0  0.126025  0  0.943245  0  0  0.135967  0  1.001831  0  0  0.139242  0  1.001222  0  0  0.11229  0.133411  0  1.002767  0
H  H19  1  0.42776696  0.71752147  0.19066845  1  0  0.125993  0  0.943204  0  0  0.13597  0  1.001764  0  0  0.139221  0  1.001183  0  0  0.112294  0.133413  0  1.002703  0
H  H20  1  0.07223305  0.21752160  0.69066840  1  0  0.125988  0  0.9433  0  0  0.135962  0  1.001854  0  0  0.139214  0  1.001274  0  0  0.112284  0.133404  0  1.002794  0
H  H21  1  0.57223567  0.28247802  0.80933290  1  0  0.12603  0  0.943254  0  0  0.135972  0  1.001838  0  0  0.139247  0  1.001228  0  0  0.112299  0.133416  0  1.002775  0
H  H22  1  0.77470141  0.78278961  0.15076249  1  0  0.087527  0  0.990909  0  0  0.097697  0  1.051824  0  0  0.098961  0  1.052507  0  0  0.106561  0.096694  0  1.05156  0
H  H23  1  0.27470448  0.71720972  0.34923881  1  0  0.087496  0  0.990922  0  0  0.097663  0  1.051856  0  0  0.098929  0  1.052542  0  0  0.106525  0.09666  0  1.051593  0
H  H24  1  0.22529573  0.21720989  0.84923962  1  0  0.087484  0  0.990927  0  0  0.097649  0  1.051862  0  0  0.098916  0  1.052549  0  0  0.10652  0.096646  0  1.051599  0
H  H25  1  0.72529925  0.28278978  0.65076254  1  0  0.087529  0  0.990888  0  0  0.097683  0  1.05182  0  0  0.098946  0  1.052502  0  0  0.106556  0.096681  0  1.051556  0
H  H26  1  0.95564162  0.71375969  0.47972207  1  0  0.114768  0  0.974384  0  0  0.120834  0  1.042664  0  0  0.123385  0  1.042163  0  0  0.117164  0.119053  0  1.04307  0
H  H27  1  0.45563989  0.78623880  0.02027699  1  0  0.114745  0  0.974397  0  0  0.120803  0  1.042693  0  0  0.123354  0  1.042193  0  0  0.11715  0.119022  0  1.0431  0
H  H28  1  0.04435882  0.28624070  0.52027856  1  0  0.114768  0  0.974401  0  0  0.120825  0  1.042694  0  0  0.123375  0  1.042193  0  0  0.117169  0.119044  0  1.043101  0
H  H29  1  0.54435945  0.21375981  0.97972277  1  0  0.114771  0  0.974385  0  0  0.120838  0  1.042666  0  0  0.123389  0  1.042165  0  0  0.117168  0.119057  0  1.043072  0
H  H30  1  0.19115573  0.65423924  0.60055558  1  0  0.109084  0  0.944976  0  0  0.115942  0  1.008466  0  0  0.118719  0  1.007045  0  0  0.115557  0.113955  0  1.009432  0
H  H31  1  0.69115631  0.84576215  0.89944484  1  0  0.109026  0  0.94504  0  0  0.115885  0  1.008532  0  0  0.118661  0  1.007112  0  0  0.115513  0.113899  0  1.009499  0
H  H32  1  0.80884470  0.34576204  0.39944588  1  0  0.109037  0  0.945058  0  0  0.115897  0  1.008547  0  0  0.118677  0  1.007125  0  0  0.11552  0.113911  0  1.009514  0
H  H33  1  0.30884413  0.15423914  0.10055509  1  0  0.109055  0  0.945023  0  0  0.11591  0  1.008515  0  0  0.118692  0  1.00709  0  0  0.115531  0.113924  0  1.009482  0
H  H34  1  0.22323242  0.45790389  0.31355225  1  0  0.10109  0  0.942167  0  0  0.105385  0  1.012554  0  0  0.108148  0  1.009039  0  0  0.13442  0.103559  0  1.014591  0
H  H35  1  0.72323150  0.04209637  0.18644784  1  0  0.101088  0  0.942152  0  0  0.105385  0  1.01254  0  0  0.108148  0  1.009024  0  0  0.134426  0.103559  0  1.014577  0
H  H36  1  0.77676802  0.54209650  0.68644839  1  0  0.101067  0  0.942176  0  0  0.105362  0  1.012567  0  0  0.108125  0  1.009051  0  0  0.134413  0.103536  0  1.014604  0
H  H37  1  0.27676784  0.95790402  0.81355203  1  0  0.101115  0  0.942213  0  0  0.105411  0  1.012594  0  0  0.108175  0  1.009078  0  0  0.134434  0.103585  0  1.014631  0
C  C38  1  0.85279767  0.25260437  0.94491635  1  0  -0.002308  0  3.755114  0  0  -0.032122  0  4.019487  0  0  -0.031095  0  4.040228  0  0  -0.006657  -0.032967  0  4.005697  0
C  C39  1  0.35279487  0.24739444  0.55508202  1  0  -0.00237  0  3.754999  0  0  -0.032171  0  4.019365  0  0  -0.031144  0  4.040109  0  0  -0.006618  -0.033013  0  4.005571  0
C  C40  1  0.14720496  0.74739512  0.05508194  1  0  -0.002222  0  3.755092  0  0  -0.032017  0  4.019445  0  0  -0.030988  0  4.040188  0  0  -0.006558  -0.032859  0  4.005652  0
C  C41  1  0.64720228  0.75260417  0.44491621  1  0  -0.002368  0  3.755064  0  0  -0.032186  0  4.019445  0  0  -0.03116  0  4.040188  0  0  -0.006685  -0.033031  0  4.005654  0
C  C42  1  0.81668582  0.36728584  0.97807707  1  0  -0.055609  0  3.664591  0  0  -0.096392  0  3.925697  0  0  -0.094744  0  3.943761  0  0  -0.004704  -0.09776  0  3.913505  0
C  C43  1  0.31668513  0.13271385  0.52192133  1  0  -0.055573  0  3.664559  0  0  -0.096331  0  3.925675  0  0  -0.094682  0  3.943741  0  0  -0.004717  -0.097702  0  3.913482  0
C  C44  1  0.18331461  0.63271366  0.02192198  1  0  -0.055635  0  3.664603  0  0  -0.096413  0  3.925703  0  0  -0.094766  0  3.943769  0  0  -0.004726  -0.097783  0  3.913512  0
C  C45  1  0.68331420  0.86728564  0.47807696  1  0  -0.055571  0  3.664559  0  0  -0.096352  0  3.925662  0  0  -0.094704  0  3.943728  0  0  -0.004693  -0.097721  0  3.91347  0
C  C46  1  0.96016980  0.28635537  0.09289074  1  0  0.188825  0  3.62418  0  0  0.127146  0  3.88942  0  0  0.141897  0  3.900506  0  0  0.149035  0.117913  0  3.880813  0
C  C47  1  0.46016856  0.21364407  0.40710868  1  0  0.188813  0  3.624213  0  0  0.127138  0  3.889452  0  0  0.141889  0  3.900538  0  0  0.149019  0.117904  0  3.880844  0
C  C48  1  0.03983173  0.71364413  0.90710831  1  0  0.188817  0  3.624154  0  0  0.127143  0  3.889396  0  0  0.141893  0  3.900481  0  0  0.149009  0.117909  0  3.88079  0
C  C49  1  0.53983078  0.78635542  0.59289113  1  0  0.188854  0  3.624142  0  0  0.127172  0  3.889387  0  0  0.141923  0  3.900473  0  0  0.149037  0.117939  0  3.880779  0
C  C50  1  0.88615838  0.49594875  0.13585758  1  0  0.368276  0  3.78433  0  0  0.343571  0  4.04572  0  0  0.358259  0  4.061718  0  0  0.233718  0.333882  0  4.035032  0
C  C51  1  0.38615701  0.00405067  0.36414180  1  0  0.368308  0  3.78435  0  0  0.343619  0  4.045717  0  0  0.358308  0  4.061713  0  0  0.233735  0.33393  0  4.035028  0
C  C52  1  0.11384315  0.50405164  0.86414153  1  0  0.368293  0  3.78437  0  0  0.343594  0  4.045758  0  0  0.358283  0  4.061755  0  0  0.233733  0.333906  0  4.03507  0
C  C53  1  0.61384123  0.99594883  0.63585802  1  0  0.368278  0  3.784417  0  0  0.343571  0  4.045807  0  0  0.35826  0  4.061804  0  0  0.233718  0.333883  0  4.035118  0
C  C54  1  0.81051601  0.59690657  0.10784938  1  0  -0.194454  0  3.685589  0  0  -0.217267  0  3.940894  0  0  -0.226565  0  3.96118  0  0  -0.085687  -0.211122  0  3.927121  0
C  C55  1  0.31051591  0.90309366  0.39215123  1  0  -0.194531  0  3.685582  0  0  -0.217334  0  3.94088  0  0  -0.226634  0  3.961167  0  0  -0.085707  -0.211188  0  3.927106  0
C  C56  1  0.18948442  0.40309382  0.89215125  1  0  -0.194477  0  3.685668  0  0  -0.217288  0  3.940966  0  0  -0.226587  0  3.961254  0  0  -0.085678  -0.211142  0  3.927194  0
C  C57  1  0.68948342  0.09690583  0.60784935  1  0  -0.194454  0  3.685588  0  0  -0.217271  0  3.94089  0  0  -0.226571  0  3.961177  0  0  -0.085686  -0.211125  0  3.927117  0
C  C58  1  0.90937798  0.70088816  0.26078317  1  0  -0.205273  0  3.696037  0  0  -0.221633  0  3.942199  0  0  -0.230787  0  3.961589  0  0  -0.084906  -0.21569  0  3.929552  0
C  C59  1  0.40937545  0.79911299  0.23921603  1  0  -0.20532  0  3.695995  0  0  -0.221709  0  3.942172  0  0  -0.230841  0  3.961571  0  0  -0.084925  -0.215761  0  3.929525  0
C  C60  1  0.09062464  0.29911223  0.73921594  1  0  -0.20529  0  3.696069  0  0  -0.221679  0  3.942223  0  0  -0.230813  0  3.961626  0  0  -0.08491  -0.215725  0  3.929582  0
C  C61  1  0.59062279  0.20088829  0.76078313  1  0  -0.205288  0  3.696064  0  0  -0.221653  0  3.942224  0  0  -0.230805  0  3.961612  0  0  -0.084919  -0.215708  0  3.929578  0
C  C62  1  0.97366560  0.59272731  0.28245034  1  0  0.36096  0  3.795701  0  0  0.338698  0  4.054264  0  0  0.352911  0  4.070622  0  0  0.230261  0.329023  0  4.042784  0
C  C63  1  0.47366418  0.90727386  0.21754890  1  0  0.360941  0  3.795549  0  0  0.33867  0  4.054127  0  0  0.352882  0  4.070476  0  0  0.230237  0.328987  0  4.042659  0
C  C64  1  0.02633593  0.40727397  0.71754958  1  0  0.36095  0  3.79557  0  0  0.338711  0  4.054112  0  0  0.352924  0  4.070461  0  0  0.230228  0.329012  0  4.042666  0
C  C65  1  0.52633406  0.09272653  0.78245021  1  0  0.360957  0  3.795636  0  0  0.338683  0  4.054203  0  0  0.352895  0  4.070559  0  0  0.230257  0.329004  0  4.042729  0
C  C66  1  0.82552193  0.70060983  0.17173877  1  0  0.037142  0  3.728425  0  0  0.020283  0  3.975857  0  0  0.025473  0  3.99486  0  0  -0.063652  0.016828  0  3.963254  0
C  C67  1  0.32552281  0.79939041  0.32826185  1  0  0.037265  0  3.728355  0  0  0.0204  0  3.975787  0  0  0.02559  0  3.994781  0  0  -0.063581  0.016943  0  3.963185  0
C  C68  1  0.17447741  0.29939056  0.82826186  1  0  0.037233  0  3.728423  0  0  0.020369  0  3.975865  0  0  0.025556  0  3.994861  0  0  -0.063605  0.016911  0  3.963264  0
C  C69  1  0.67447873  0.20060909  0.67173873  1  0  0.037159  0  3.728454  0  0  0.020322  0  3.975875  0  0  0.025516  0  3.994874  0  0  -0.063631  0.016866  0  3.96327  0
C  C70  1  0.04670481  0.65325535  0.46394231  1  0  -0.049284  0  3.650329  0  0  -0.087392  0  3.910099  0  0  -0.085467  0  3.927982  0  0  0.002151  -0.08884  0  3.898349  0
C  C71  1  0.54670709  0.84674123  0.03605791  1  0  -0.049274  0  3.650322  0  0  -0.087386  0  3.910091  0  0  -0.085462  0  3.927972  0  0  0.00221  -0.088834  0  3.898342  0
C  C72  1  0.95329453  0.34674414  0.53605828  1  0  -0.049264  0  3.650255  0  0  -0.087367  0  3.910029  0  0  -0.085442  0  3.92791  0  0  0.002162  -0.088815  0  3.898279  0
C  C73  1  0.45329553  0.15325470  0.96394245  1  0  -0.049295  0  3.650325  0  0  -0.087415  0  3.910087  0  0  -0.08549  0  3.927971  0  0  0.002156  -0.088864  0  3.898339  0
C  C74  1  0.98493188  0.96634898  0.74182252  1  0  0.281303  0  4.101406  0  0  0.266802  0  4.40172  0  0  0.288371  0  4.416099  0  0  0.11896  0.251842  0  4.392071  0
C  C75  1  0.48493257  0.53365249  0.75817810  1  0  0.281237  0  4.101399  0  0  0.266737  0  4.401711  0  0  0.288307  0  4.416089  0  0  0.118916  0.251777  0  4.392062  0
C  C76  1  0.01506745  0.03365230  0.25817741  1  0  0.281249  0  4.101413  0  0  0.266749  0  4.401724  0  0  0.288318  0  4.416104  0  0  0.118934  0.251789  0  4.392075  0
C  C77  1  0.51506786  0.46634790  0.24182177  1  0  0.28124  0  4.101433  0  0  0.266738  0  4.40175  0  0  0.288308  0  4.41613  0  0  0.11892  0.251777  0  4.3921  0
C  C78  1  0.16347787  0.62233544  0.52273556  1  0  0.014069  0  3.727739  0  0  -0.022296  0  4.002427  0  0  -0.020439  0  4.021146  0  0  -0.000645  -0.023373  0  3.98982  0
C  C79  1  0.66347966  0.87766415  0.97726473  1  0  0.014178  0  3.72776  0  0  -0.022185  0  4.002442  0  0  -0.020331  0  4.02117  0  0  -0.000606  -0.023261  0  3.989834  0
C  C80  1  0.83652147  0.37766495  0.47726584  1  0  0.014097  0  3.727798  0  0  -0.022276  0  4.002502  0  0  -0.020422  0  4.021219  0  0  -0.000637  -0.023353  0  3.989895  0
C  C81  1  0.33652188  0.12233534  0.02273508  1  0  0.014117  0  3.72778  0  0  -0.022244  0  4.002466  0  0  -0.020392  0  4.021187  0  0  -0.000626  -0.02332  0  3.989859  0
C  C82  1  0.18443352  0.51666825  0.37723360  1  0  0.176358  0  3.649639  0  0  0.11607  0  3.920326  0  0  0.130394  0  3.931098  0  0  0.144673  0.106791  0  3.912845  0
C  C83  1  0.68443378  0.98333105  0.12276610  1  0  0.17638  0  3.649524  0  0  0.116078  0  3.920211  0  0  0.130403  0  3.93098  0  0  0.144693  0.106801  0  3.91273  0
C  C84  1  0.81556581  0.48333213  0.62276627  1  0  0.176396  0  3.649594  0  0  0.116109  0  3.92028  0  0  0.130433  0  3.93105  0  0  0.144692  0.106831  0  3.912799  0
C  C85  1  0.31556446  0.01666934  0.87723377  1  0  0.176344  0  3.649676  0  0  0.116047  0  3.920361  0  0  0.130372  0  3.931131  0  0  0.144687  0.106769  0  3.91288  0
S  S86  1  0.04196697  0.92666056  0.62689276  1  0  -0.413665  0  2.02458  0  0  -0.394018  0  2.314072  0  0  -0.408814  0  2.309865  0  0  -0.205808  -0.383118  0  2.315998  0
S  S87  1  0.54196741  0.57333989  0.87310750  1  0  -0.413632  0  2.024676  0  0  -0.393986  0  2.314171  0  0  -0.408783  0  2.309966  0  0  -0.20578  -0.383086  0  2.316098  0
S  S88  1  0.95803347  0.07333983  0.37310788  1  0  -0.413643  0  2.024609  0  0  -0.393996  0  2.314101  0  0  -0.408794  0  2.309896  0  0  -0.205795  -0.383097  0  2.316028  0
S  S89  1  0.45803302  0.42666050  0.12689237  1  0  -0.413618  0  2.024671  0  0  -0.393971  0  2.314165  0  0  -0.408768  0  2.309961  0  0  -0.205776  -0.383071  0  2.316092  0
N  N90  1  0.94153800  0.20372641  0.01688932  1  0  -0.365251  0  3.244585  0  0  -0.291564  0  3.521499  0  0  -0.31125  0  3.540194  0  0  -0.349396  -0.278076  0  3.508397  0
N  N91  1  0.44153689  0.29627392  0.48311015  1  0  -0.3652  0  3.244455  0  0  -0.291509  0  3.521358  0  0  -0.311197  0  3.540055  0  0  -0.349378  -0.278022  0  3.508253  0
N  N92  1  0.05846354  0.79627398  0.98311055  1  0  -0.365319  0  3.244563  0  0  -0.291633  0  3.521482  0  0  -0.31132  0  3.540175  0  0  -0.34945  -0.278146  0  3.50838  0
N  N93  1  0.55846136  0.70372558  0.51688891  1  0  -0.365226  0  3.244513  0  0  -0.291532  0  3.521423  0  0  -0.311219  0  3.54012  0  0  -0.34937  -0.278045  0  3.508319  0
N  N94  1  0.88598064  0.38847786  0.07249800  1  0  -0.120145  0  3.560625  0  0  -0.030847  0  3.773124  0  0  -0.047375  0  3.797044  0  0  -0.219419  -0.019843  0  3.756901  0
N  N95  1  0.38597939  0.11152156  0.42750061  1  0  -0.12012  0  3.560624  0  0  -0.030828  0  3.773112  0  0  -0.047356  0  3.79703  0  0  -0.219392  -0.019824  0  3.756889  0
N  N96  1  0.11402089  0.61152164  0.92750105  1  0  -0.120083  0  3.56064  0  0  -0.030787  0  3.773133  0  0  -0.047315  0  3.797053  0  0  -0.219374  -0.019783  0  3.756911  0
N  N97  1  0.61401994  0.88847794  0.57249845  1  0  -0.120152  0  3.560606  0  0  -0.030851  0  3.773105  0  0  -0.04738  0  3.797025  0  0  -0.21941  -0.019848  0  3.756882  0
N  N98  1  0.96461070  0.49267553  0.22177354  1  0  -0.438364  0  3.04861  0  0  -0.410333  0  3.316547  0  0  -0.42539  0  3.32886  0  0  -0.311803  -0.400093  0  3.307839  0
N  N99  1  0.46460812  0.00732480  0.27822594  1  0  -0.438358  0  3.048543  0  0  -0.410332  0  3.316474  0  0  -0.425389  0  3.328785  0  0  -0.311795  -0.400091  0  3.30777  0
N  N100  1  0.03539193  0.50732486  0.77822633  1  0  -0.438355  0  3.048557  0  0  -0.410338  0  3.316486  0  0  -0.425395  0  3.328797  0  0  -0.311799  -0.400091  0  3.307788  0
N  N101  1  0.53539012  0.99267558  0.72177316  1  0  -0.438385  0  3.048641  0  0  -0.410358  0  3.316588  0  0  -0.425416  0  3.328899  0  0  -0.311822  -0.400118  0  3.307881  0
N  N102  1  0.06066099  0.58511925  0.37154869  1  0  -0.130535  0  3.595464  0  0  -0.042987  0  3.809983  0  0  -0.059268  0  3.833999  0  0  -0.226805  -0.031957  0  3.793463  0
N  N103  1  0.56066123  0.91487912  0.12845011  1  0  -0.130532  0  3.595381  0  0  -0.042957  0  3.809878  0  0  -0.059236  0  3.833891  0  0  -0.226865  -0.031925  0  3.793361  0
N  N104  1  0.93933834  0.41488113  0.62845194  1  0  -0.130574  0  3.595432  0  0  -0.04303  0  3.809946  0  0  -0.059309  0  3.833958  0  0  -0.226801  -0.031993  0  3.793434  0
N  N105  1  0.43933920  0.08511949  0.87154889  1  0  -0.130516  0  3.595469  0  0  -0.042932  0  3.809951  0  0  -0.059212  0  3.833966  0  0  -0.226806  -0.031901  0  3.793433  0
N  N106  1  0.94124913  0.99612013  0.82558340  1  0  -0.572402  0  2.834209  0  0  -0.515111  0  3.102369  0  0  -0.534901  0  3.10877  0  0  -0.415681  -0.501492  0  3.09792  0
N  N107  1  0.44125080  0.50388044  0.67441714  1  0  -0.572363  0  2.834088  0  0  -0.515076  0  3.102251  0  0  -0.534865  0  3.108645  0  0  -0.415672  -0.501457  0  3.0978  0
N  N108  1  0.05875020  0.00388026  0.17441724  1  0  -0.572365  0  2.83416  0  0  -0.515078  0  3.102318  0  0  -0.534867  0  3.108717  0  0  -0.415675  -0.50146  0  3.097869  0
N  N109  1  0.55874964  0.49611995  0.32558350  1  0  -0.572371  0  2.834127  0  0  -0.515085  0  3.102295  0  0  -0.534872  0  3.108691  0  0  -0.415674  -0.501466  0  3.097845  0
N  N110  1  0.24863566  0.53841806  0.46746313  1  0  -0.371125  0  3.223135  0  0  -0.302682  0  3.507528  0  0  -0.321165  0  3.524486  0  0  -0.350097  -0.290237  0  3.496117  0
N  N111  1  0.74863579  0.96158304  0.03253673  1  0  -0.371188  0  3.223106  0  0  -0.302747  0  3.507513  0  0  -0.321228  0  3.524466  0  0  -0.350116  -0.290302  0  3.496103  0
N  N112  1  0.75136367  0.46158322  0.53253680  1  0  -0.37111  0  3.223079  0  0  -0.302665  0  3.507471  0  0  -0.321146  0  3.524428  0  0  -0.350095  -0.290219  0  3.49606  0
N  N113  1  0.25136355  0.03841824  0.96746396  1  0  -0.371161  0  3.223135  0  0  -0.302721  0  3.507532  0  0  -0.321202  0  3.524489  0  0  -0.350119  -0.290276  0  3.496123  0
