# generated using pymatgen
data_ZnH14C24S2(NO2)2
_symmetry_space_group_name_H-M   'P 1'
_cell_length_a   9.60707390
_cell_length_b   12.49512200
_cell_length_c   21.94076008
_cell_angle_alpha   89.99921474
_cell_angle_beta   90.00051227
_cell_angle_gamma   102.60312225
_symmetry_Int_Tables_number   1
_chemical_formula_structural   ZnH14C24S2(NO2)2
_chemical_formula_sum   'Zn4 H56 C96 S8 N8 O16'
_cell_volume   2570.34125761
_cell_formula_units_Z   4
loop_
 _symmetry_equiv_pos_site_id
 _symmetry_equiv_pos_as_xyz
  1  'x, y, z'
loop_
 _atom_site_type_symbol
 _atom_site_label
 _atom_site_symmetry_multiplicity
 _atom_site_fract_x
 _atom_site_fract_y
 _atom_site_fract_z
 _atom_site_occupancy
 _atom_site_pbe_bader_charge
 _atom_site_pbe_bader_spin_density
 _atom_site_pbe_cm5_charge
 _atom_site_pbe_ddec_charge
 _atom_site_pbe_ddec_spin_density
 _atom_site_pbe_ddec_sum_bond_order
 _atom_site_pbe_magmom
Zn  Zn0  1  0.42833044  0.59658351  0.00713680  1  1.313366  0  0.682826  0.860253  0  2.350887  0
Zn  Zn1  1  0.57167897  0.90342138  0.50714134  1  1.313409  0  0.68283  0.860218  0  2.350831  0
Zn  Zn2  1  0.57167859  0.40342340  0.99285666  1  1.313491  0  0.682832  0.860196  0  2.35078  0
Zn  Zn3  1  0.42833017  0.09658225  0.49285485  1  1.313351  0  0.682775  0.860148  0  2.350896  0
H  H4  1  0.21155381  0.91521084  0.07515966  1  0.08886  0  0.109131  0.115354  0  1.006706  0
H  H5  1  0.78845991  0.58478603  0.57515571  1  0.088536  0  0.109096  0.115246  0  1.006744  0
H  H6  1  0.78845439  0.08478951  0.92484337  1  0.088894  0  0.109116  0.115288  0  1.006697  0
H  H7  1  0.21154783  0.41521268  0.42484596  1  0.088774  0  0.109117  0.11527  0  1.00672  0
H  H8  1  0.94766909  0.14032042  0.11450235  1  0.104977  0  0.096779  0.092674  0  1.043674  0
H  H9  1  0.05232170  0.35966382  0.61450338  1  0.10528  0  0.096804  0.092666  0  1.043797  0
H  H10  1  0.05232498  0.85966681  0.88550023  1  0.104792  0  0.096815  0.092677  0  1.043709  0
H  H11  1  0.94766695  0.64032997  0.38549965  1  0.104981  0  0.096813  0.092664  0  1.04372  0
H  H12  1  0.64379221  0.85572688  0.05000163  1  0.105589  0  0.109779  0.083418  0  1.021321  0
H  H13  1  0.35620447  0.64425577  0.55000372  1  0.1059  0  0.109795  0.083383  0  1.021404  0
H  H14  1  0.35620292  0.14426773  0.94999502  1  0.105715  0  0.109782  0.083394  0  1.021261  0
H  H15  1  0.64378590  0.35573310  0.45000159  1  0.105694  0  0.109739  0.083336  0  1.021264  0
H  H16  1  0.74144463  0.23066528  0.13205340  1  0.116686  0  0.105189  0.113424  0  0.995404  0
H  H17  1  0.25853495  0.26931121  0.63205731  1  0.116911  0  0.105196  0.113475  0  0.995485  0
H  H18  1  0.25855258  0.76932933  0.86794462  1  0.11659  0  0.105187  0.113418  0  0.99549  0
H  H19  1  0.74144570  0.73067274  0.36794572  1  0.116568  0  0.105179  0.113425  0  0.995469  0
H  H20  1  0.49634804  0.12780146  0.10463905  1  0.110358  0  0.097651  0.064351  0  1.049681  0
H  H21  1  0.50364017  0.37217807  0.60465041  1  0.066724  0  0.097657  0.064293  0  1.049438  0
H  H22  1  0.50364755  0.87219479  0.89535623  1  0.1103  0  0.097627  0.064287  0  1.049605  0
H  H23  1  0.49634615  0.62780751  0.39535217  1  0.110158  0  0.097651  0.064352  0  1.04952  0
H  H24  1  0.72429627  0.27919444  0.33027010  1  0.113733  0  0.116113  0.138009  0  0.981782  0
H  H25  1  0.27569800  0.22080486  0.83027811  1  0.113748  0  0.116136  0.137991  0  0.981667  0
H  H26  1  0.27569575  0.72080756  0.66972382  1  0.113787  0  0.116146  0.137996  0  0.981739  0
H  H27  1  0.72429541  0.77920205  0.16972629  1  0.113707  0  0.116137  0.138014  0  0.981554  0
H  H28  1  0.11817991  0.43841708  0.14308562  1  0.129487  0  0.104603  0.125466  0  1.024397  0
H  H29  1  0.88182590  0.06158869  0.64308905  1  0.129609  0  0.104583  0.125453  0  1.024331  0
H  H30  1  0.88182831  0.56159065  0.85691058  1  0.129289  0  0.104586  0.125442  0  1.024254  0
H  H31  1  0.11816876  0.93840428  0.35691717  1  0.129626  0  0.10463  0.125523  0  1.024273  0
H  H32  1  0.91050035  0.37507082  0.23696475  1  0.077671  0  0.09592  0.099939  0  1.049543  0
H  H33  1  0.08949999  0.12493458  0.73697324  1  0.077773  0  0.095888  0.099834  0  1.049755  0
H  H34  1  0.08949341  0.62493363  0.76302461  1  0.077847  0  0.095846  0.099762  0  1.04989  0
H  H35  1  0.91049712  0.87507069  0.26303253  1  0.077743  0  0.095901  0.099884  0  1.049522  0
H  H36  1  0.12209964  0.03981635  0.25619039  1  0.077908  0  0.105988  0.126303  0  1.000805  0
H  H37  1  0.87789947  0.46018699  0.75618656  1  0.077816  0  0.105976  0.126227  0  1.000912  0
H  H38  1  0.87790048  0.96019220  0.74380809  1  0.077629  0  0.105944  0.126265  0  1.00088  0
H  H39  1  0.12209266  0.53981172  0.24380872  1  0.077808  0  0.105975  0.126306  0  1.000808  0
H  H40  1  0.40123313  0.81775843  0.05845270  1  0.142622  0  0.117761  0.087825  0  1.049967  0
H  H41  1  0.59878336  0.68224208  0.55845407  1  0.142777  0  0.117712  0.087788  0  1.049961  0
H  H42  1  0.59877612  0.18224192  0.94154714  1  0.14284  0  0.117719  0.087817  0  1.049931  0
H  H43  1  0.40121882  0.31775171  0.44154623  1  0.142776  0  0.117749  0.087797  0  1.05  0
H  H44  1  0.12649502  0.55650879  0.97415209  1  0.136589  0  0.111531  0.080576  0  1.037096  0
H  H45  1  0.87351392  0.94349756  0.47415386  1  0.136561  0  0.111505  0.080559  0  1.036986  0
H  H46  1  0.87351469  0.44349320  0.02584684  1  0.13658  0  0.111496  0.08061  0  1.037112  0
H  H47  1  0.12648606  0.05649951  0.52584644  1  0.136489  0  0.111522  0.080607  0  1.037095  0
H  H48  1  0.82230545  0.79316528  0.02509288  1  0.081813  0  0.102851  0.109266  0  1.015793  0
H  H49  1  0.17770452  0.70682200  0.52509195  1  0.080284  0  0.10285  0.109329  0  1.015799  0
H  H50  1  0.17769950  0.20682358  0.97490787  1  0.080761  0  0.102848  0.10933  0  1.015872  0
H  H51  1  0.82229928  0.29317752  0.47491791  1  0.07707  0  0.102891  0.109319  0  1.015878  0
H  H52  1  0.91915391  0.64378428  0.98872527  1  0.094553  0  0.105352  0.120781  0  1.019431  0
H  H53  1  0.08085687  0.85622012  0.48872370  1  0.094412  0  0.105324  0.120817  0  1.019409  0
H  H54  1  0.08085487  0.35621443  0.01127731  1  0.094456  0  0.105325  0.12076  0  1.019356  0
H  H55  1  0.91914891  0.14378269  0.51128297  1  0.094405  0  0.10531  0.120826  0  1.01936  0
H  H56  1  0.03546630  0.98580930  0.08417240  1  0.083787  0  0.097893  0.087118  0  1.030872  0
H  H57  1  0.96452544  0.51417918  0.58416422  1  0.083862  0  0.097868  0.087096  0  1.030884  0
H  H58  1  0.96452812  0.01418285  0.91583337  1  0.08382  0  0.097876  0.087103  0  1.030847  0
H  H59  1  0.03546299  0.48582117  0.41583835  1  0.084019  0  0.097926  0.087109  0  1.030841  0
C  C60  1  0.07056916  0.29040636  0.20383013  1  -0.040389  0  -0.02246  0.060459  0  4.07059  0
C  C61  1  0.92943695  0.20959974  0.70382894  1  -0.040268  0  -0.022407  0.060458  0  4.070547  0
C  C62  1  0.92943466  0.70960055  0.79616607  1  -0.040317  0  -0.022394  0.060531  0  4.070519  0
C  C63  1  0.07055796  0.79040143  0.29617045  1  -0.040319  0  -0.022424  0.060495  0  4.07046  0
C  C64  1  0.96428170  0.12722050  0.28920194  1  -0.183297  0  -0.00847  0.013743  0  4.010514  0
C  C65  1  0.03572090  0.37278541  0.78920235  1  -0.201099  0  -0.008487  0.013734  0  4.01064  0
C  C66  1  0.03572422  0.87279379  0.71079608  1  -0.201324  0  -0.008606  0.013653  0  4.010635  0
C  C67  1  0.96426626  0.62721412  0.21079977  1  -0.20157  0  -0.00846  0.013801  0  4.010369  0
C  C68  1  0.90276579  0.22200717  0.28405304  1  0.017466  0  -0.018601  0.071101  0  4.05499  0
C  C69  1  0.09723106  0.27799721  0.78405717  1  0.01803  0  -0.018582  0.07106  0  4.055403  0
C  C70  1  0.09723353  0.77800220  0.71594224  1  0.018155  0  -0.018571  0.07089  0  4.055617  0
C  C71  1  0.90275494  0.72200560  0.21594723  1  0.017591  0  -0.018492  0.071146  0  4.055101  0
C  C72  1  0.24501290  0.31922854  0.12771586  1  -0.212508  0  -0.025156  -0.106964  0  4.002214  0
C  C73  1  0.75499802  0.18078166  0.62771421  1  -0.212968  0  -0.025097  -0.106903  0  4.002098  0
C  C74  1  0.75499833  0.68078247  0.87228216  1  -0.213123  0  -0.025071  -0.107009  0  4.002128  0
C  C75  1  0.24501146  0.81921951  0.37228199  1  -0.213101  0  -0.025025  -0.106867  0  4.00206  0
C  C76  1  0.76214174  0.12374176  0.36055551  1  -0.12364  0  -0.022087  -0.104966  0  3.999556  0
C  C77  1  0.23786142  0.37626099  0.86055304  1  -0.124541  0  -0.022187  -0.105192  0  3.99976  0
C  C78  1  0.23786313  0.87626515  0.63944341  1  -0.124394  0  -0.022146  -0.10519  0  3.999766  0
C  C79  1  0.76212818  0.62374347  0.13944772  1  -0.124352  0  -0.022094  -0.104954  0  3.999828  0
C  C80  1  0.33773933  0.37201318  0.07740308  1  1.619359  0  0.204379  0.594196  0  4.233889  0
C  C81  1  0.66226486  0.12799892  0.57740239  1  1.618921  0  0.204429  0.594319  0  4.233943  0
C  C82  1  0.66226577  0.62799455  0.92259220  1  1.620108  0  0.204436  0.594415  0  4.233683  0
C  C83  1  0.33774611  0.87199651  0.42259289  1  1.62018  0  0.204503  0.594297  0  4.233569  0
C  C84  1  0.78689263  0.21673767  0.32578293  1  -0.042019  0  -0.087029  -0.1463  0  3.954786  0
C  C85  1  0.21310483  0.28327320  0.82578792  1  -0.042047  0  -0.086955  -0.146094  0  3.954879  0
C  C86  1  0.21310553  0.78327498  0.67421144  1  -0.042102  0  -0.086935  -0.145976  0  3.954897  0
C  C87  1  0.78688349  0.71673043  0.17421511  1  -0.042149  0  -0.086979  -0.146205  0  3.954922  0
C  C88  1  0.95749740  0.30350361  0.24140708  1  -0.000694  0  -0.087263  -0.162552  0  3.928603  0
C  C89  1  0.04250405  0.19650168  0.74141255  1  -0.001268  0  -0.087291  -0.162479  0  3.928909  0
C  C90  1  0.04250169  0.69650494  0.75858546  1  -0.001299  0  -0.087288  -0.162398  0  3.929169  0
C  C91  1  0.95749143  0.80349785  0.25859231  1  -0.000905  0  -0.087309  -0.162557  0  3.928809  0
C  C92  1  0.14145847  0.36035238  0.15652215  1  -0.017299  0  -0.097553  -0.165006  0  3.978376  0
C  C93  1  0.85854997  0.13965802  0.65652214  1  -0.016925  0  -0.097544  -0.16497  0  3.978448  0
C  C94  1  0.85854755  0.63965863  0.84347450  1  -0.016474  0  -0.097492  -0.16485  0  3.978287  0
C  C95  1  0.14145048  0.86034069  0.34347861  1  -0.01685  0  -0.097612  -0.165066  0  3.978426  0
C  C96  1  0.07677505  0.11223298  0.25236061  1  0.00932  0  -0.10096  -0.182895  0  4.008965  0
C  C97  1  0.92322852  0.38777536  0.75235799  1  0.00904  0  -0.101016  -0.182919  0  4.00906  0
C  C98  1  0.92323225  0.88777885  0.74763786  1  0.00951  0  -0.10093  -0.182978  0  4.009066  0
C  C99  1  0.07676014  0.61222581  0.24764048  1  0.009634  0  -0.1011  -0.183181  0  4.009046  0
C  C100  1  0.65630669  0.08731057  0.40922970  1  1.581537  0  0.207775  0.596606  0  4.21972  0
C  C101  1  0.34370308  0.41270097  0.90922872  1  1.58261  0  0.207803  0.596592  0  4.219483  0
C  C102  1  0.34370350  0.91270044  0.59076832  1  1.581975  0  0.207772  0.596524  0  4.219682  0
C  C103  1  0.65630121  0.58730758  0.09076702  1  1.582244  0  0.207705  0.596466  0  4.219593  0
C  C104  1  0.12823753  0.19391021  0.20974291  1  -0.145425  0  -0.009915  0.011887  0  4.02356  0
C  C105  1  0.87177202  0.30609658  0.70973936  1  -0.145029  0  -0.009845  0.011986  0  4.02347  0
C  C106  1  0.87177011  0.80609916  0.79025557  1  -0.14503  0  -0.009936  0.011986  0  4.023367  0
C  C107  1  0.12822635  0.69390212  0.29025729  1  -0.145481  0  -0.009855  0.012121  0  4.023338  0
C  C108  1  0.29337070  0.78053512  0.04367056  1  0.422991  0  0.048957  0.09707  0  3.939117  0
C  C109  1  0.70663771  0.71945997  0.54367069  1  0.422948  0  0.048843  0.096984  0  3.938598  0
C  C110  1  0.70663913  0.21946359  0.95633111  1  0.4229  0  0.048909  0.096888  0  3.939127  0
C  C111  1  0.29335568  0.28053218  0.45633006  1  0.422716  0  0.048909  0.09699  0  3.939239  0
C  C112  1  0.13879297  0.63548346  0.99695594  1  0.371232  0  0.04301  0.096775  0  3.950357  0
C  C113  1  0.86121676  0.86451667  0.49695782  1  0.371638  0  0.043145  0.096824  0  3.95041  0
C  C114  1  0.86121466  0.36451853  0.00304436  1  0.371029  0  0.043098  0.096592  0  3.95028  0
C  C115  1  0.13878206  0.13547630  0.50304384  1  0.371145  0  0.043127  0.096678  0  3.950302  0
C  C116  1  0.04490849  0.78826425  0.03378980  1  0.024225  0  0.010063  0.157557  0  4.019095  0
C  C117  1  0.95510081  0.71173106  0.53378459  1  0.024684  0  0.010022  0.15755  0  4.019354  0
C  C118  1  0.95509925  0.21173446  0.96621460  1  0.024544  0  0.009975  0.157422  0  4.01939  0
C  C119  1  0.04489987  0.28826847  0.46622027  1  0.024822  0  0.010011  0.157443  0  4.01932  0
C  C120  1  0.81334772  0.99123593  0.07937826  1  0.082843  0  -0.013145  0.050117  0  4.039805  0
C  C121  1  0.18664498  0.50874528  0.57937802  1  0.082783  0  -0.013178  0.050001  0  4.039876  0
C  C122  1  0.18664601  0.00875376  0.92062295  1  0.08267  0  -0.0132  0.049979  0  4.039801  0
C  C123  1  0.81334505  0.49124605  0.42062684  1  0.082572  0  -0.013172  0.049916  0  4.03992  0
C  C124  1  0.02445012  0.68514605  0.00500721  1  0.01207  0  -0.087454  -0.190877  0  3.937856  0
C  C125  1  0.97555959  0.81485643  0.50500400  1  0.012123  0  -0.087475  -0.190957  0  3.937877  0
C  C126  1  0.97555819  0.31485102  0.99499491  1  0.012393  0  -0.08747  -0.190785  0  3.937801  0
C  C127  1  0.02444317  0.18514310  0.49499903  1  0.012055  0  -0.087498  -0.190915  0  3.937964  0
C  C128  1  0.92468121  0.83999911  0.04187353  1  -0.030955  0  -0.091009  -0.144826  0  3.96499  0
C  C129  1  0.07532437  0.65998617  0.54186939  1  -0.02976  0  -0.090952  -0.144861  0  3.96523  0
C  C130  1  0.07532154  0.15999303  0.95813041  1  -0.030217  0  -0.09093  -0.144849  0  3.964951  0
C  C131  1  0.92467642  0.34001008  0.45814002  1  -0.026775  0  -0.091044  -0.144935  0  3.965027  0
C  C132  1  0.18470552  0.83535048  0.05309505  1  0.001382  0  -0.078152  -0.166012  0  3.915157  0
C  C133  1  0.81530996  0.66464687  0.55309012  1  0.001442  0  -0.077958  -0.165711  0  3.91502  0
C  C134  1  0.81530199  0.16464741  0.94690798  1  0.001093  0  -0.07799  -0.165685  0  3.915045  0
C  C135  1  0.18469674  0.33535184  0.44691246  1  0.001632  0  -0.078014  -0.165722  0  3.915164  0
C  C136  1  0.83870655  0.09770914  0.10392291  1  -0.129699  0  -0.073766  -0.086349  0  3.946355  0
C  C137  1  0.16127540  0.40227041  0.60392220  1  -0.130238  0  -0.07373  -0.086261  0  3.945851  0
C  C138  1  0.16128509  0.90228055  0.89607921  1  -0.13018  0  -0.073779  -0.086311  0  3.946188  0
C  C139  1  0.83870664  0.59771846  0.39608037  1  -0.129501  0  -0.073744  -0.086252  0  3.946081  0
C  C140  1  0.67001550  0.93975347  0.06742600  1  0.47262  0  0.048115  0.048217  0  3.9219  0
C  C141  1  0.32997692  0.56023127  0.56743001  1  0.472703  0  0.048004  0.048253  0  3.92213  0
C  C142  1  0.32997835  0.06024032  0.93257156  1  0.472528  0  0.048077  0.048279  0  3.921724  0
C  C143  1  0.67001045  0.43976170  0.43257575  1  0.472708  0  0.048163  0.048416  0  3.921892  0
C  C144  1  0.93196749  0.93882316  0.06846248  1  -0.082077  0  -0.075755  -0.089486  0  3.975572  0
C  C145  1  0.06802819  0.56116566  0.56845863  1  -0.081631  0  -0.075878  -0.089617  0  3.975787  0
C  C146  1  0.06802728  0.06116653  0.93153963  1  -0.081527  0  -0.075814  -0.089511  0  3.975367  0
C  C147  1  0.93196544  0.43883469  0.43154668  1  -0.081545  0  -0.075875  -0.089414  0  3.975557  0
C  C148  1  0.72488281  0.14781116  0.11369198  1  -0.100837  0  -0.08913  -0.126651  0  3.997478  0
C  C149  1  0.27511050  0.35216736  0.61369348  1  -0.101618  0  -0.089168  -0.126679  0  3.997141  0
C  C150  1  0.27511369  0.85218099  0.88630832  1  -0.100476  0  -0.089125  -0.1267  0  3.997456  0
C  C151  1  0.72487918  0.64781905  0.38630910  1  -0.101251  0  -0.089102  -0.126681  0  3.997225  0
C  C152  1  0.58767257  0.08993045  0.09890165  1  0.507797  0  0.040331  0.090386  0  3.982273  0
C  C153  1  0.41230700  0.41004839  0.59890734  1  0.551325  0  0.040357  0.090497  0  3.981898  0
C  C154  1  0.41231966  0.91006498  0.90109682  1  0.50817  0  0.040405  0.090606  0  3.982259  0
C  C155  1  0.58767123  0.58993802  0.40109615  1  0.508114  0  0.04036  0.090505  0  3.98209  0
S  S156  1  0.26248003  0.19309016  0.15683206  1  0.188093  0  0.074692  0.086888  0  2.784418  0
S  S157  1  0.73753896  0.30692434  0.65682434  1  0.188  0  0.074675  0.086896  0  2.784371  0
S  S158  1  0.73753781  0.80692577  0.84316960  1  0.187588  0  0.074634  0.086815  0  2.784369  0
S  S159  1  0.26247296  0.69308175  0.34316639  1  0.187956  0  0.074622  0.086756  0  2.784438  0
S  S160  1  0.87829838  0.03788406  0.34462546  1  0.182774  0  0.073154  0.081596  0  2.871112  0
S  S161  1  0.12171312  0.46212722  0.84462094  1  0.200647  0  0.073113  0.081628  0  2.871058  0
S  S162  1  0.12171911  0.96213433  0.65537575  1  0.200855  0  0.073178  0.081704  0  2.8709  0
S  S163  1  0.87827369  0.53787477  0.15537982  1  0.201031  0  0.073086  0.081531  0  2.871033  0
N  N164  1  0.27182334  0.68168647  0.01604834  1  -1.247044  0  -0.333379  -0.230716  0  3.540627  0
N  N165  1  0.72819082  0.81831988  0.51604733  1  -1.247369  0  -0.333352  -0.230698  0  3.540449  0
N  N166  1  0.72818405  0.31831470  0.98395241  1  -1.247107  0  -0.333342  -0.2305  0  3.54048  0
N  N167  1  0.27181461  0.18167801  0.48394932  1  -1.247005  0  -0.333411  -0.230618  0  3.540436  0
N  N168  1  0.55980010  0.98690682  0.07690840  1  -1.230982  0  -0.322044  -0.265993  0  3.358248  0
N  N169  1  0.44019025  0.51307361  0.57691596  1  -1.230942  0  -0.321941  -0.26601  0  3.357975  0
N  N170  1  0.44019375  0.01308696  0.92308825  1  -1.231155  0  -0.322025  -0.266045  0  3.358217  0
N  N171  1  0.55979815  0.48691198  0.42309026  1  -1.2312  0  -0.322038  -0.266055  0  3.358318  0
O  O172  1  0.32201060  0.46662827  0.06180066  1  -1.181464  0  -0.318293  -0.557248  0  2.337174  0
O  O173  1  0.67798281  0.03337268  0.56180853  1  -1.181323  0  -0.318372  -0.557365  0  2.337149  0
O  O174  1  0.67797736  0.53337044  0.93818322  1  -1.18141  0  -0.318341  -0.557342  0  2.337256  0
O  O175  1  0.32201543  0.96662193  0.43819632  1  -1.181715  0  -0.318433  -0.557404  0  2.336765  0
O  O176  1  0.42342531  0.31821997  0.05413991  1  -1.163295  0  -0.319865  -0.542661  0  2.284196  0
O  O177  1  0.57659358  0.18179427  0.55413254  1  -1.162872  0  -0.319826  -0.542678  0  2.28427  0
O  O178  1  0.57659182  0.68179350  0.94586130  1  -1.163833  0  -0.319878  -0.542772  0  2.284053  0
O  O179  1  0.42342724  0.81821018  0.44585728  1  -1.163511  0  -0.319875  -0.542638  0  2.28431  0
O  O180  1  0.57169230  0.14870443  0.42372788  1  -1.163694  0  -0.312076  -0.530987  0  2.289523  0
O  O181  1  0.42830528  0.35129614  0.92373181  1  -1.164165  0  -0.3121  -0.530917  0  2.289447  0
O  O182  1  0.42830422  0.85129510  0.57626604  1  -1.163742  0  -0.312088  -0.530867  0  2.289381  0
O  O183  1  0.57168604  0.64870339  0.07626712  1  -1.16386  0  -0.312064  -0.530895  0  2.289253  0
O  O184  1  0.66175264  0.99516537  0.43294500  1  -1.176332  0  -0.316272  -0.560826  0  2.387501  0
O  O185  1  0.33826857  0.50484679  0.93293673  1  -1.176561  0  -0.316243  -0.56085  0  2.38744  0
O  O186  1  0.33827259  0.00484728  0.56705939  1  -1.176566  0  -0.316243  -0.560825  0  2.387517  0
O  O187  1  0.66175447  0.49516914  0.06705217  1  -1.17644  0  -0.316248  -0.560856  0  2.387661  0
