# generated using pymatgen
data_HoH5C7NCl3
_symmetry_space_group_name_H-M   'P 1'
_cell_length_a   6.91463573
_cell_length_b   7.49378049
_cell_length_c   11.42669737
_cell_angle_alpha   78.98589771
_cell_angle_beta   75.36087275
_cell_angle_gamma   59.20253606
_symmetry_Int_Tables_number   1
_chemical_formula_structural   HoH5C7NCl3
_chemical_formula_sum   'Ho2 H10 C14 N2 Cl6'
_cell_volume   490.73227527
_cell_formula_units_Z   2
loop_
 _symmetry_equiv_pos_site_id
 _symmetry_equiv_pos_as_xyz
  1  'x, y, z'
loop_
 _atom_site_type_symbol
 _atom_site_label
 _atom_site_symmetry_multiplicity
 _atom_site_fract_x
 _atom_site_fract_y
 _atom_site_fract_z
 _atom_site_occupancy
 _atom_site_hle17_bader_spin_density
 _atom_site_hle17_ddec_charge
 _atom_site_hle17_ddec_spin_density
 _atom_site_hle17_ddec_sum_bond_order
 _atom_site_hle17_magmom
 _atom_site_hse06_10hf_bader_spin_density
 _atom_site_hse06_10hf_ddec_charge
 _atom_site_hse06_10hf_ddec_spin_density
 _atom_site_hse06_10hf_ddec_sum_bond_order
 _atom_site_hse06_10hf_magmom
 _atom_site_hse06_bader_spin_density
 _atom_site_hse06_ddec_charge
 _atom_site_hse06_ddec_spin_density
 _atom_site_hse06_ddec_sum_bond_order
 _atom_site_hse06_magmom
 _atom_site_pbe_bader_spin_density
 _atom_site_pbe_cm5_charge
 _atom_site_pbe_ddec_charge
 _atom_site_pbe_ddec_spin_density
 _atom_site_pbe_ddec_sum_bond_order
 _atom_site_pbe_magmom
Ho  Ho0  1  0.85559553  0.31924484  0.47134452  1  0  1.961106  0  1.892549  0  0  1.857929  0  2.341186  0  0  1.92626  0  2.260358  0  0  1.036227  1.80995  0  2.39659  0
Ho  Ho1  1  0.14438642  0.68075401  0.52865569  1  0  1.961144  0  1.892499  0  0  1.857966  0  2.341129  0  0  1.926313  0  2.260268  0  0  1.036273  1.80999  0  2.396537  0
H  H2  1  0.46231605  0.82950511  0.74316338  1  0  0.111484  0  0.948887  0  0  0.12121  0  1.009211  0  0  0.124216  0  1.00736  0  0  0.098182  0.11891  0  1.01079  0
H  H3  1  0.53767240  0.17048724  0.25684090  1  0  0.111427  0  0.948855  0  0  0.121179  0  1.009165  0  0  0.124187  0  1.007309  0  0  0.098159  0.118881  0  1.010744  0
H  H4  1  0.16852980  0.20268290  0.75871110  1  0  0.108142  0  0.97802  0  0  0.116705  0  1.040763  0  0  0.119748  0  1.039465  0  0  0.091448  0.114548  0  1.041642  0
H  H5  1  0.83146782  0.79730911  0.24129254  1  0  0.108167  0  0.977961  0  0  0.11669  0  1.040739  0  0  0.119739  0  1.039451  0  0  0.091444  0.114533  0  1.041624  0
H  H6  1  0.58158878  0.60034418  0.92827543  1  0  0.090938  0  0.955593  0  0  0.102436  0  1.016115  0  0  0.104927  0  1.015693  0  0  0.099875  0.100532  0  1.016651  0
H  H7  1  0.41842017  0.39965811  0.07172679  1  0  0.091025  0  0.955532  0  0  0.102534  0  1.016043  0  0  0.105001  0  1.015651  0  0  0.099883  0.100616  0  1.0166  0
H  H8  1  0.99425724  0.34933773  0.96053788  1  0  0.094633  0  0.944226  0  0  0.107789  0  1.001411  0  0  0.110592  0  0.99997  0  0  0.105518  0.105678  0  1.002614  0
H  H9  1  0.00574929  0.65066625  0.03946280  1  0  0.094715  0  0.944174  0  0  0.107835  0  1.001392  0  0  0.110644  0  0.999942  0  0  0.105547  0.105741  0  1.002579  0
H  H10  1  0.40635969  0.74495636  0.13255900  1  0  0.111842  0  0.955036  0  0  0.12311  0  1.013949  0  0  0.12615  0  1.012224  0  0  0.100186  0.120857  0  1.015234  0
H  H11  1  0.59365699  0.25504865  0.86744421  1  0  0.111807  0  0.95507  0  0  0.123082  0  1.013963  0  0  0.126122  0  1.012238  0  0  0.100179  0.120824  0  1.015251  0
C  C12  1  0.19069394  0.05500356  0.05796253  1  0  -0.008078  0  3.899972  0  0  0.017062  0  4.127035  0  0  0.011649  0  4.15064  0  0  -0.0  0.020812  0  4.11072  0
C  C13  1  0.80931569  0.94500028  0.94203852  1  0  -0.008053  0  3.90025  0  0  0.017083  0  4.127278  0  0  0.011666  0  4.150888  0  0  4.5e-05  0.02083  0  4.110967  0
C  C14  1  0.38530435  0.89282728  0.83177245  1  0  -0.023173  0  3.679915  0  0  -0.042363  0  3.931158  0  0  -0.04104  0  3.950319  0  0  -0.073729  -0.042672  0  3.918019  0
C  C15  1  0.61470159  0.10715994  0.16822861  1  0  -0.023142  0  3.680156  0  0  -0.042347  0  3.931376  0  0  -0.04102  0  3.95053  0  0  -0.073751  -0.042655  0  3.91823  0
C  C16  1  0.09397218  0.13723609  0.17324262  1  0  0.386135  0  3.688559  0  0  0.365457  0  3.947455  0  0  0.382681  0  3.963266  0  0  0.23963  0.353698  0  3.936922  0
C  C17  1  0.90603428  0.86276489  0.82675669  1  0  0.386065  0  3.688528  0  0  0.365386  0  3.947419  0  0  0.382616  0  3.963228  0  0  0.239598  0.353624  0  3.936884  0
C  C18  1  0.22094871  0.10310513  0.84025805  1  0  -0.059459  0  3.72547  0  0  -0.07298  0  3.977016  0  0  -0.077148  0  3.998617  0  0  -0.086705  -0.07047  0  3.962522  0
C  C19  1  0.77905271  0.89689738  0.15974630  1  0  -0.059526  0  3.725253  0  0  -0.073004  0  3.976823  0  0  -0.077192  0  3.998412  0  0  -0.086681  -0.070496  0  3.96234  0
C  C20  1  0.45191588  0.76376251  0.93626842  1  0  -0.082887  0  3.768714  0  0  -0.096485  0  4.024609  0  0  -0.101263  0  4.047288  0  0  -0.089541  -0.093387  0  4.009118  0
C  C21  1  0.54808329  0.23624157  0.06373699  1  0  -0.082934  0  3.768505  0  0  -0.096553  0  4.02441  0  0  -0.101314  0  4.047095  0  0  -0.089535  -0.093447  0  4.008907  0
C  C22  1  0.12276747  0.18550757  0.95293700  1  0  -0.078262  0  3.717874  0  0  -0.101042  0  3.962732  0  0  -0.101401  0  3.983611  0  0  -0.072652  -0.100723  0  3.948585  0
C  C23  1  0.87724117  0.81448885  0.04705986  1  0  -0.078298  0  3.71768  0  0  -0.101053  0  3.962521  0  0  -0.101411  0  3.983398  0  0  -0.072673  -0.100745  0  3.948378  0
C  C24  1  0.35571400  0.84276598  0.05004375  1  0  -0.080909  0  3.713176  0  0  -0.104088  0  3.958036  0  0  -0.104257  0  3.979014  0  0  -0.073782  -0.103503  0  3.943311  0
C  C25  1  0.64430322  0.15723458  0.94995554  1  0  -0.080894  0  3.713171  0  0  -0.104058  0  3.958012  0  0  -0.10423  0  3.978986  0  0  -0.073798  -0.103468  0  3.943278  0
N  N26  1  0.01553032  0.20367303  0.26838682  1  0  -0.526208  0  2.884417  0  0  -0.485042  0  3.148367  0  0  -0.505368  0  3.157458  0  0  -0.405736  -0.471567  0  3.142517  0
N  N27  1  0.98446374  0.79632849  0.73161101  1  0  -0.526154  0  2.884344  0  0  -0.484982  0  3.148282  0  0  -0.505311  0  3.157373  0  0  -0.405716  -0.471505  0  3.142426  0
Cl  Cl28  1  0.22564433  0.99551931  0.53707344  1  0  -0.662614  0  1.017157  0  0  -0.632926  0  1.291862  0  0  -0.655682  0  1.269704  0  0  -0.320405  -0.616654  0  1.30701  0
Cl  Cl29  1  0.77434795  0.00447634  0.46292015  1  0  -0.662604  0  1.017207  0  0  -0.632923  0  1.291923  0  0  -0.655682  0  1.269768  0  0  -0.320398  -0.616651  0  1.307074  0
Cl  Cl30  1  0.47253569  0.39371709  0.64563879  1  0  -0.670005  0  0.969864  0  0  -0.636564  0  1.233912  0  0  -0.658352  0  1.21116  0  0  -0.32772  -0.620923  0  1.249741  0
Cl  Cl31  1  0.52744747  0.60627583  0.35435580  1  0  -0.670013  0  0.969886  0  0  -0.63656  0  1.233909  0  0  -0.658336  0  1.211151  0  0  -0.327714  -0.620923  0  1.249754  0
Cl  Cl32  1  0.12538255  0.48928911  0.35862589  1  0  -0.672704  0  1.016498  0  0  -0.640247  0  1.287762  0  0  -0.661759  0  1.265019  0  0  -0.320825  -0.625121  0  1.303489  0
Cl  Cl33  1  0.87460153  0.51071127  0.64137202  1  0  -0.672714  0  1.016502  0  0  -0.640235  0  1.287728  0  0  -0.661745  0  1.264981  0  0  -0.320833  -0.625115  0  1.303451  0
