# generated using pymatgen
data_AlH3C10SNO7F
_symmetry_space_group_name_H-M   'P 1'
_cell_length_a   6.65509252
_cell_length_b   11.11048710
_cell_length_c   12.76835145
_cell_angle_alpha   83.55054101
_cell_angle_beta   74.53208811
_cell_angle_gamma   73.08140246
_symmetry_Int_Tables_number   1
_chemical_formula_structural   AlH3C10SNO7F
_chemical_formula_sum   'Al2 H6 C20 S2 N2 O14 F2'
_cell_volume   869.91416174
_cell_formula_units_Z   2
loop_
 _symmetry_equiv_pos_site_id
 _symmetry_equiv_pos_as_xyz
  1  'x, y, z'
loop_
 _atom_site_type_symbol
 _atom_site_label
 _atom_site_symmetry_multiplicity
 _atom_site_fract_x
 _atom_site_fract_y
 _atom_site_fract_z
 _atom_site_occupancy
 _atom_site_pbe_bader_charge
 _atom_site_pbe_bader_spin_density
 _atom_site_pbe_cm5_charge
 _atom_site_pbe_ddec_charge
 _atom_site_pbe_ddec_spin_density
 _atom_site_pbe_ddec_sum_bond_order
 _atom_site_pbe_magmom
Al  Al0  1  0.49056955  0.50154880  0.50725383  1  2.503105  0  0.395957  1.641145  0  2.570506  0
Al  Al1  1  0.99205804  0.50300005  0.50558410  1  2.502355  0  0.397519  1.64099  0  2.565963  0
H  H2  1  0.27032363  0.35710349  0.58180544  1  0.63894  0  0.341105  0.426963  0  0.877874  0
H  H3  1  0.77099492  0.57249386  0.37698530  1  0.610317  0  0.346278  0.424376  0  0.868048  0
H  H4  1  0.20581383  0.23939771  0.34486206  1  0.10693  0  0.106497  0.112386  0  1.031773  0
H  H5  1  0.54498272  0.12540817  0.22255270  1  0.084578  0  0.107631  0.103551  0  0.983813  0
H  H6  1  0.44845569  0.77016245  0.36406196  1  0.078855  0  0.110074  0.115052  0  1.031585  0
H  H7  1  0.66633734  0.89015588  0.23133876  1  0.081107  0  0.109131  0.106765  0  0.979172  0
C  C8  1  0.84978221  0.27571741  0.49519349  1  1.631438  0  0.267793  0.642439  0  4.111893  0
C  C9  1  0.64923888  0.50418722  0.69912729  1  1.633206  0  0.267334  0.675424  0  4.126644  0
C  C10  1  0.13802690  0.72634933  0.51618233  1  1.661874  0  0.27296  0.644887  0  4.13087  0
C  C11  1  0.33763696  0.50141435  0.30925547  1  1.550982  0  0.255795  0.667303  0  4.142665  0
C  C12  1  0.41261727  0.47208506  0.88951661  1  0.598931  0  0.106596  0.261429  0  4.061617  0
C  C13  1  0.58025351  0.52862667  0.11882803  1  0.524377  0  0.102789  0.261932  0  4.063335  0
C  C14  1  0.58862037  0.50369299  0.81805106  1  -0.108759  0  -0.021943  -0.240525  0  3.939098  0
C  C15  1  0.40330829  0.49859081  0.19071524  1  -0.050187  0  -0.037844  -0.263721  0  3.985047  0
C  C16  1  0.58686488  0.51860694  0.00874685  1  -0.114389  0  -0.03028  -0.131608  0  4.128975  0
C  C17  1  0.40906001  0.47996246  0.99945884  1  -0.121342  0  -0.027552  -0.114575  0  4.115247  0
C  C18  1  0.92248125  0.13436809  0.49415812  1  0.088991  0  0.008659  -0.09848  0  3.888813  0
C  C19  1  0.12584841  0.07063172  0.42617912  1  0.006661  0  0.013534  0.081657  0  3.932735  0
C  C20  1  0.79570977  0.06528083  0.56348387  1  0.234843  0  0.09092  0.014909  0  3.919828  0
C  C21  1  0.25659600  0.13696826  0.34944302  1  -0.064583  0  -0.082569  -0.122115  0  3.946372  0
C  C22  1  0.44695449  0.07278696  0.28103005  1  -0.078591  0  -0.078254  -0.061894  0  4.004327  0
C  C23  1  0.06865532  0.86828162  0.51086420  1  0.099034  0  0.020948  -0.072648  0  3.870407  0
C  C24  1  0.87251369  0.93333334  0.57529235  1  0.165224  0  0.08947  0.00639  0  3.915302  0
C  C25  1  0.19698101  0.93534485  0.43250899  1  -0.022565  0  0.009812  0.067453  0  3.932065  0
C  C26  1  0.39351446  0.87243281  0.35994084  1  0.000178  0  -0.080668  -0.11609  0  3.936631  0
C  C27  1  0.51565905  0.93983627  0.28608399  1  0.055664  0  -0.08149  -0.069783  0  4.007221  0
S  S28  1  0.75438076  0.54360700  0.88515936  1  0.376717  0  0.130251  0.227054  0  2.837223  0
S  S29  1  0.23913998  0.45710179  0.12310444  1  0.306745  0  0.101416  0.179586  0  2.823327  0
N  N30  1  0.74749808  0.86424091  0.66078472  1  0.416497  0  0.064113  0.523463  0  4.211963  0
N  N31  1  0.58550628  0.13325763  0.63471606  1  0.431107  0  0.064871  0.517034  0  4.245477  0
O  O32  1  0.66277534  0.32855997  0.47994978  1  -1.245332  0  -0.232094  -0.58241  0  2.350321  0
O  O33  1  0.83125814  0.52527636  0.65229786  1  -1.256921  0  -0.229732  -0.573836  0  2.330391  0
O  O34  1  0.00849697  0.67378152  0.49478148  1  -1.249853  0  -0.2295  -0.580028  0  2.340419  0
O  O35  1  0.46584999  0.52455670  0.35794822  1  -1.255524  0  -0.239293  -0.601104  0  2.351385  0
O  O36  1  0.32183706  0.67287793  0.53400928  1  -1.238652  0  -0.216514  -0.551674  0  2.338108  0
O  O37  1  0.15279532  0.48182095  0.35427680  1  -1.258788  0  -0.242332  -0.5986  0  2.332712  0
O  O38  1  0.98102707  0.32884858  0.51368265  1  -1.245579  0  -0.222498  -0.570861  0  2.352375  0
O  O39  1  0.51857672  0.48186339  0.65195875  1  -1.25232  0  -0.229522  -0.581109  0  2.347923  0
O  O40  1  0.24719954  0.44249978  0.55008219  1  -1.437982  0  -0.449357  -0.991883  0  2.188133  0
O  O41  1  0.74056904  0.55699819  0.45522656  1  -1.414446  0  -0.448669  -0.986658  0  2.181934  0
O  O42  1  0.85276882  0.77921818  0.71200145  1  -0.428984  0  -0.107847  -0.307391  0  1.949957  0
O  O43  1  0.54781370  0.89694893  0.67605612  1  -0.443264  0  -0.122254  -0.312146  0  1.883878  0
O  O44  1  0.42470460  0.16137493  0.59694327  1  -0.429453  0  -0.093554  -0.2915  0  1.967646  0
O  O45  1  0.59126731  0.15956122  0.72511785  1  -0.41547  0  -0.114469  -0.300613  0  1.863519  0
F  F46  1  0.26086992  0.43636810  0.85956978  1  -0.620692  0  -0.076581  -0.10287  0  1.420233  0
F  F47  1  0.73048195  0.56646943  0.14925556  1  -0.634979  0  -0.086636  -0.118067  0  1.401539  0
