# generated using pymatgen
data_V4P2H18C24N4O15
_symmetry_space_group_name_H-M   'P 1'
_cell_length_a   9.82658929
_cell_length_b   10.04677049
_cell_length_c   14.91180937
_cell_angle_alpha   103.01529905
_cell_angle_beta   89.99974828
_cell_angle_gamma   90.00040945
_symmetry_Int_Tables_number   1
_chemical_formula_structural   V4P2H18C24N4O15
_chemical_formula_sum   'V8 P4 H36 C48 N8 O30'
_cell_volume   1434.35540145
_cell_formula_units_Z   2
loop_
 _symmetry_equiv_pos_site_id
 _symmetry_equiv_pos_as_xyz
  1  'x, y, z'
loop_
 _atom_site_type_symbol
 _atom_site_label
 _atom_site_symmetry_multiplicity
 _atom_site_fract_x
 _atom_site_fract_y
 _atom_site_fract_z
 _atom_site_occupancy
 _atom_site_hle17_ddec_charge
 _atom_site_hle17_ddec_spin_density
 _atom_site_hle17_ddec_sum_bond_order
 _atom_site_hle17_magmom
 _atom_site_hse06_10hf_ddec_charge
 _atom_site_hse06_10hf_ddec_spin_density
 _atom_site_hse06_10hf_ddec_sum_bond_order
 _atom_site_hse06_10hf_magmom
 _atom_site_hse06_ddec_charge
 _atom_site_hse06_ddec_spin_density
 _atom_site_hse06_ddec_sum_bond_order
 _atom_site_hse06_magmom
 _atom_site_pbe_cm5_charge
 _atom_site_pbe_ddec_charge
 _atom_site_pbe_ddec_spin_density
 _atom_site_pbe_ddec_sum_bond_order
 _atom_site_pbe_magmom
V  V0  1  0.41793304  0.21859515  0.95680114  1  1.777589  1.220205  2.650007  1.166  1.787048  0.963729  3.056068  0.925  1.865823  1.075987  3.009455  1.034  1.413788  1.739205  0.858207  3.084291  0.823
V  V1  1  0.58206898  0.21859720  0.45680198  1  1.777706  -1.220236  2.649894  -1.166  1.787096  -0.963715  3.056094  -0.925  1.865943  -1.075984  3.009349  -1.034  1.413819  1.739259  -0.858195  3.084305  -0.823
V  V2  1  0.58207036  0.78140390  0.04319819  1  1.777619  -1.220269  2.649941  -1.166  1.787028  -0.963714  3.056092  -0.925  1.865845  -1.075995  3.009411  -1.034  1.413779  1.739169  -0.858188  3.084358  -0.823
V  V3  1  0.41793137  0.78139981  0.54319772  1  1.777707  1.220149  2.649871  1.166  1.787108  0.963686  3.056036  0.925  1.865878  1.075965  3.009412  1.034  1.413821  1.739262  0.858148  3.08426  0.823
V  V4  1  0.32330310  0.32462193  0.75445093  1  1.989871  0.201349  2.899093  0.195  2.04902  0.139109  3.288802  0.137  2.141353  0.089054  3.272626  0.09  1.473226  1.979775  0.178025  3.311134  0.174
V  V5  1  0.67669799  0.32462457  0.25444890  1  1.989843  -0.20137  2.899062  -0.195  2.049008  -0.139117  3.288744  -0.137  2.141351  -0.089057  3.272558  -0.09  1.473223  1.979745  -0.178034  3.311118  -0.174
V  V6  1  0.67669521  0.67537305  0.24554981  1  1.989725  -0.201405  2.899203  -0.195  2.04886  -0.139134  3.288932  -0.137  2.141203  -0.089077  3.272747  -0.09  1.47318  1.979598  -0.178051  3.311289  -0.174
V  V7  1  0.32330745  0.67537042  0.74555318  1  1.989747  0.201456  2.899061  0.195  2.048875  0.139172  3.288783  0.137  2.141216  0.089099  3.272603  0.09  1.473159  1.979655  0.178096  3.311102  0.174
P  P8  1  0.52582577  0.90486930  0.86102550  1  1.833631  0.002042  4.751587  0.003  1.666711  0.001557  5.273891  0.003  1.733356  0.000864  5.20799  0.002  0.453718  1.619964  0.001989  5.318032  0.003
P  P9  1  0.47417778  0.90486862  0.36102691  1  1.833548  -0.00204  4.751691  -0.003  1.666657  -0.001553  5.273967  -0.003  1.733305  -0.000862  5.208064  -0.002  0.453689  1.619893  -0.001988  5.318143  -0.003
P  P10  1  0.47417763  0.09512974  0.13897316  1  1.833602  -0.002039  4.75164  -0.003  1.666739  -0.001553  5.273893  -0.003  1.73338  -0.000861  5.207992  -0.002  0.453748  1.619979  -0.001987  5.318069  -0.003
P  P11  1  0.52582664  0.09512838  0.63897212  1  1.833634  0.002043  4.751563  0.003  1.666764  0.001554  5.273806  0.003  1.733407  0.000865  5.207905  0.002  0.453745  1.62  0.001988  5.31799  0.003
H  H12  1  0.58338734  0.88332527  0.71927483  1  0.433529  -0.000277  0.845752  0.0  0.404827  -0.000194  0.918374  0.0  0.41568  -0.000228  0.906068  0.0  0.325378  0.397212  -0.00015  0.926931  0.0
H  H13  1  0.41661802  0.88332729  0.21927815  1  0.433571  0.000276  0.845707  0.0  0.40487  0.000193  0.918311  0.0  0.415724  0.000229  0.906005  0.0  0.325411  0.397256  0.00015  0.926861  0.0
H  H14  1  0.41662013  0.11667378  0.28072383  1  0.433537  0.000276  0.845772  0.0  0.404828  0.000194  0.918402  0.0  0.415678  0.000229  0.906099  0.0  0.325384  0.397216  0.00015  0.926948  0.0
H  H15  1  0.58338131  0.11667177  0.78072252  1  0.433511  -0.000275  0.845768  0.0  0.404825  -0.000193  0.918354  0.0  0.415675  -0.000229  0.906053  0.0  0.325382  0.397212  -0.00015  0.926902  0.0
H  H16  1  0.45691990  0.48966590  0.09646483  1  0.09671  -0.001051  0.947975  -0.001  0.104475  -0.00031  1.011941  0.0  0.108291  -0.000349  1.007049  0.0  0.12577  0.101665  -0.000262  1.015624  0.0
H  H17  1  0.54308140  0.48967586  0.59646139  1  0.096688  0.00105  0.948058  0.001  0.104442  0.00031  1.01203  0.0  0.108263  0.00035  1.007126  0.0  0.125768  0.101636  0.000262  1.015708  0.0
H  H18  1  0.54308248  0.51033110  0.90353420  1  0.096648  0.001051  0.94806  0.001  0.104468  0.00031  1.011965  0.0  0.10827  0.00035  1.007085  0.0  0.12577  0.10166  0.000262  1.015647  0.0
H  H19  1  0.45690878  0.51032518  0.40353220  1  0.096672  -0.001049  0.948137  -0.001  0.104442  -0.00031  1.012087  0.0  0.108269  -0.000349  1.007188  0.0  0.125762  0.101634  -0.000262  1.015767  0.0
H  H20  1  0.31266769  0.66257174  0.20063250  1  0.117771  8.1e-05  0.978293  0.0  0.125065  -0.000162  1.038218  0.0  0.128534  -0.000127  1.036892  0.0  0.108897  0.122552  -0.000195  1.039469  0.0
H  H21  1  0.68733417  0.66258465  0.70062640  1  0.117711  -8.1e-05  0.978273  0.0  0.125022  0.000162  1.03819  0.0  0.128491  0.000127  1.036865  0.0  0.108865  0.122509  0.000194  1.039446  0.0
H  H22  1  0.68733368  0.33742322  0.79936690  1  0.117775  -8.2e-05  0.978235  0.0  0.12508  0.000162  1.03814  0.0  0.128549  0.000127  1.036816  0.0  0.108917  0.122568  0.000194  1.039391  0.0
H  H23  1  0.31265601  0.33742250  0.29936609  1  0.117768  8e-05  0.978155  0.0  0.125034  -0.000162  1.038141  0.0  0.128505  -0.000127  1.036814  0.0  0.108877  0.122517  -0.000194  1.0394  0.0
H  H24  1  0.05809705  0.63114056  0.19884646  1  0.117124  -0.000568  0.937051  -0.001  0.130935  9.8e-05  0.991898  0.0  0.133888  1.9e-05  0.989185  0.0  0.111107  0.128653  0.000197  0.994258  0.0
H  H25  1  0.94190458  0.63115106  0.69884464  1  0.117074  0.000569  0.937043  0.001  0.130868  -9.8e-05  0.991951  0.0  0.13381  -2e-05  0.989241  0.0  0.111127  0.128597  -0.000198  0.994305  0.0
H  H26  1  0.94190635  0.36885441  0.80115428  1  0.11708  0.000567  0.937049  0.001  0.13092  -9.8e-05  0.991867  0.0  0.133875  -1.9e-05  0.989153  0.0  0.111105  0.128634  -0.000197  0.99424  0.0
H  H27  1  0.05808254  0.36885613  0.30115255  1  0.117066  -0.000567  0.937043  -0.001  0.130873  9.7e-05  0.991916  0.0  0.133826  2e-05  0.989204  0.0  0.111081  0.128598  0.000197  0.99426  0.0
H  H28  1  0.85802538  0.48944386  0.13228789  1  0.085479  -0.000564  0.993461  0.0  0.087331  -0.000414  1.07316  0.0  0.08952  -0.000335  1.072307  0.0  0.103937  0.086248  -0.000444  1.072938  0.0
H  H29  1  0.14197669  0.48945028  0.63229312  1  0.08544  0.000564  0.993297  0.0  0.087314  0.000413  1.072997  0.0  0.089502  0.000335  1.072142  0.0  0.103925  0.086234  0.000444  1.072773  0.0
H  H30  1  0.14197802  0.51055317  0.86771450  1  0.085398  0.000564  0.993491  0.0  0.087297  0.000414  1.073156  0.0  0.089484  0.000335  1.072308  0.0  0.103909  0.086221  0.000444  1.07292  0.0
H  H31  1  0.85801857  0.51055494  0.36771316  1  0.085408  -0.000563  0.993511  0.0  0.087284  -0.000414  1.073194  0.0  0.089469  -0.000334  1.072349  0.0  0.103901  0.086206  -0.000444  1.07296  0.0
H  H32  1  0.76376034  0.28308447  0.02687959  1  0.123559  -0.000716  0.976076  0.0  0.135933  -0.00077  1.034902  0.0  0.141058  -0.000817  1.032093  0.0  0.107392  0.133095  -0.000738  1.035488  0.0
H  H33  1  0.23624095  0.28308945  0.52688300  1  0.123577  0.000718  0.976046  0.0  0.135923  0.00077  1.034899  0.0  0.141051  0.000817  1.032083  0.0  0.107411  0.133086  0.000738  1.035484  0.0
H  H34  1  0.23624001  0.71691255  0.97312213  1  0.123555  0.000718  0.97615  0.0  0.135939  0.00077  1.034957  0.0  0.141067  0.000817  1.032142  0.0  0.107393  0.133103  0.000738  1.035543  0.0
H  H35  1  0.76375736  0.71691575  0.47312060  1  0.123568  -0.00072  0.9761  0.0  0.135953  -0.00077  1.034907  0.0  0.141083  -0.000817  1.03209  0.0  0.107399  0.133115  -0.000738  1.035495  0.0
H  H36  1  0.80723148  0.05870307  0.91184453  1  0.117759  8.3e-05  0.924537  0.0  0.13096  2.2e-05  0.977475  0.0  0.134794  4e-05  0.97468  0.0  0.114841  0.127685  2e-05  0.980193  0.0
H  H37  1  0.19276969  0.05870977  0.41184583  1  0.117804  -8.5e-05  0.924539  0.0  0.130995  -2.2e-05  0.977478  0.0  0.134828  -4e-05  0.974686  0.0  0.114867  0.127721  -2e-05  0.980193  0.0
H  H38  1  0.19276785  0.94129903  0.08815459  1  0.117752  -8.6e-05  0.924572  0.0  0.130968  -2.2e-05  0.977497  0.0  0.134802  -4e-05  0.974701  0.0  0.114836  0.127692  -2e-05  0.980214  0.0
H  H39  1  0.80722964  0.94130150  0.58815062  1  0.117815  8.5e-05  0.924485  0.0  0.131035  2.2e-05  0.977393  0.0  0.134868  4e-05  0.974599  0.0  0.114864  0.12776  2e-05  0.980114  0.0
H  H40  1  0.97877146  0.90078671  0.81686349  1  0.115501  -0.000141  0.937364  0.0  0.129489  -3.6e-05  0.988502  0.0  0.13265  -2.5e-05  0.987818  0.0  0.111541  0.127222  -5.7e-05  0.98929  0.0
H  H41  1  0.02122930  0.90080043  0.31686096  1  0.11549  0.000143  0.937287  0.0  0.129463  3.6e-05  0.988448  0.0  0.13263  2.4e-05  0.987757  0.0  0.111517  0.127195  5.7e-05  0.989242  0.0
H  H42  1  0.02122888  0.09920931  0.18313941  1  0.11553  0.000141  0.937347  0.0  0.129516  3.6e-05  0.988488  0.0  0.132679  2.5e-05  0.987799  0.0  0.111539  0.127246  5.7e-05  0.98928  0.0
H  H43  1  0.97877207  0.09921085  0.68313616  1  0.115518  -0.00014  0.937357  0.0  0.129502  -3.6e-05  0.988496  0.0  0.132666  -2.5e-05  0.987813  0.0  0.111544  0.127234  -5.7e-05  0.989287  0.0
H  H44  1  0.22406828  0.96235640  0.83105450  1  0.078048  -0.000177  0.970635  0.0  0.081732  -0.000139  1.04364  0.0  0.084091  -0.000142  1.041047  0.0  0.118589  0.079827  -0.000153  1.04578  0.0
H  H45  1  0.77593386  0.96236681  0.33105132  1  0.077992  0.000181  0.970613  0.0  0.081637  0.000139  1.043645  0.0  0.083998  0.000142  1.04105  0.0  0.118561  0.079734  0.000153  1.045777  0.0
H  H46  1  0.77593105  0.03763656  0.16894930  1  0.077991  0.000181  0.970654  0.0  0.081664  0.000139  1.043694  0.0  0.084023  0.000142  1.041102  0.0  0.118575  0.079773  0.000153  1.045796  0.0
H  H47  1  0.22406751  0.03763430  0.66895032  1  0.078024  -0.000181  0.970585  0.0  0.08169  -0.000139  1.043615  0.0  0.08405  -0.000142  1.041022  0.0  0.118573  0.079788  -0.000153  1.045743  0.0
C  C48  1  0.34689694  0.47815730  0.09768242  1  0.175106  0.023064  3.643642  0.018  0.144839  0.018806  3.902054  0.014  0.159593  0.016275  3.911052  0.012  0.064409  0.13445  0.021541  3.897587  0.015
C  C49  1  0.65310325  0.47816696  0.59768063  1  0.175278  -0.023049  3.643617  -0.018  0.144998  -0.018804  3.902068  -0.014  0.159753  -0.016276  3.911076  -0.012  0.064489  0.134608  -0.021541  3.897599  -0.015
C  C50  1  0.65310544  0.52183867  0.90231512  1  0.175191  -0.023064  3.64356  -0.018  0.144856  -0.018805  3.902005  -0.014  0.159626  -0.016276  3.911033  -0.012  0.064449  0.134465  -0.021542  3.897539  -0.015
C  C51  1  0.34688794  0.52183819  0.40231625  1  0.175163  0.023032  3.6439  0.018  0.144868  0.018805  3.902354  0.014  0.159612  0.016276  3.911368  0.012  0.064464  0.134478  0.021539  3.897884  0.015
C  C52  1  0.26479129  0.57469027  0.15577962  1  -0.112135  -0.014593  3.708014  -0.011  -0.124666  -0.006695  3.963767  -0.006  -0.132193  -0.00777  3.982097  -0.006  -0.081068  -0.120825  -0.005619  3.953243  -0.005
C  C53  1  0.73520920  0.57469841  0.65577603  1  -0.112125  0.01458  3.707851  0.011  -0.124652  0.006693  3.963598  0.006  -0.132181  0.007773  3.98193  0.006  -0.081049  -0.120815  0.00562  3.95308  0.005
C  C54  1  0.73521109  0.42530979  0.84421987  1  -0.112182  0.014592  3.707954  0.011  -0.124696  0.006694  3.963722  0.006  -0.132227  0.00777  3.982054  0.006  -0.081106  -0.120856  0.005619  3.9532  0.005
C  C55  1  0.26477893  0.42530672  0.34421817  1  -0.112029  -0.014558  3.707764  -0.011  -0.124531  -0.006695  3.963538  -0.006  -0.132062  -0.007771  3.981877  -0.006  -0.08102  -0.120691  -0.005619  3.953015  -0.005
C  C56  1  0.12524332  0.55751252  0.15503906  1  -0.034279  0.024202  3.660839  0.017  -0.061895  0.019611  3.908307  0.013  -0.057543  0.016378  3.925134  0.011  -0.058875  -0.0655  0.024181  3.898034  0.016
C  C57  1  0.87475909  0.55752054  0.65503707  1  -0.034159  -0.024191  3.661058  -0.017  -0.061862  -0.01961  3.908574  -0.013  -0.057495  -0.016382  3.925383  -0.011  -0.058927  -0.065475  -0.024184  3.89831  -0.016
C  C58  1  0.87475804  0.44248551  0.84496079  1  -0.034191  -0.0242  3.660914  -0.017  -0.061888  -0.019611  3.908353  -0.013  -0.057535  -0.016381  3.925178  -0.011  -0.058898  -0.065497  -0.024184  3.898079  -0.016
C  C59  1  0.12523413  0.44248666  0.34496146  1  -0.034286  0.024161  3.661037  0.017  -0.061955  0.019608  3.908484  0.013  -0.057606  0.016374  3.925311  0.011  -0.058924  -0.065559  0.024176  3.898215  0.016
C  C60  1  0.06783661  0.44172754  0.09570025  1  0.026722  -0.00937  3.789454  -0.008  0.045724  -0.004022  4.015515  -0.004  0.042006  -0.004787  4.04079  -0.004  0.001938  0.049126  -0.003419  3.998436  -0.004
C  C61  1  0.93216332  0.44173800  0.59570180  1  0.02655  0.009358  3.789918  0.008  0.045748  0.004021  4.015737  0.004  0.042034  0.004787  4.041006  0.004  0.001957  0.049148  0.003419  3.998661  0.004
C  C62  1  0.93216373  0.55826845  0.90429930  1  0.026649  0.009367  3.789718  0.008  0.045796  0.004021  4.015585  0.004  0.042086  0.004788  4.040862  0.004  0.001948  0.049189  0.003419  3.9985  0.004
C  C63  1  0.06783193  0.55826514  0.40429948  1  0.026588  -0.009335  3.789822  -0.008  0.045767  -0.004021  4.015651  -0.004  0.042061  -0.004785  4.040915  -0.004  0.001958  0.049156  -0.003419  3.998565  -0.004
C  C64  1  0.92479614  0.41519847  0.08928680  1  -0.089034  0.006033  3.747594  0.005  -0.110948  0.001905  4.00629  0.001  -0.114504  0.002578  4.030572  0.002  -0.081079  -0.108199  0.001793  3.989363  0.001
C  C65  1  0.07520569  0.41520341  0.58928866  1  -0.089018  -0.00602  3.747565  -0.005  -0.111017  -0.001906  4.0062  -0.001  -0.114586  -0.002578  4.030514  -0.002  -0.08108  -0.108267  -0.001794  3.989268  -0.001
C  C66  1  0.07520523  0.58479958  0.91071506  1  -0.088973  -0.006026  3.74766  -0.005  -0.110984  -0.001906  4.006309  -0.001  -0.114546  -0.002581  4.030606  -0.002  -0.081044  -0.108233  -0.001794  3.989384  -0.001
C  C67  1  0.92478957  0.58480077  0.41071546  1  -0.088922  0.005977  3.74772  0.005  -0.110933  0.001905  4.00638  0.001  -0.114489  0.002577  4.030662  0.002  -0.081032  -0.108188  0.001793  3.989469  0.001
C  C68  1  0.87325006  0.30110366  0.03160115  1  -0.102635  -0.008104  3.719071  -0.006  -0.129552  -0.003713  3.974641  -0.003  -0.133595  -0.004438  3.996489  -0.003  -0.0826  -0.127096  -0.00335  3.959319  -0.002
C  C69  1  0.12675133  0.30111100  0.53160522  1  -0.102568  0.008088  3.719245  0.006  -0.129406  0.003713  3.974801  0.003  -0.133449  0.004439  3.996642  0.003  -0.082609  -0.126953  0.00335  3.95948  0.002
C  C70  1  0.12675334  0.69889438  0.96840005  1  -0.102653  0.008093  3.719187  0.006  -0.129555  0.003714  3.974763  0.003  -0.133598  0.004441  3.996609  0.003  -0.082632  -0.127103  0.00335  3.959446  0.002
C  C71  1  0.87324597  0.69889420  0.46839838  1  -0.10269  -0.008044  3.71924  -0.006  -0.129577  -0.003712  3.9748  -0.003  -0.133621  -0.004438  3.996647  -0.003  -0.082637  -0.127123  -0.003349  3.959481  -0.002
C  C72  1  0.96176252  0.20424867  0.97516333  1  0.030086  0.003469  3.794645  0.003  0.046401  0.001759  4.025798  0.001  0.04395  0.001857  4.050638  0.002  0.002437  0.048311  0.002007  4.009456  0.002
C  C73  1  0.03824029  0.20425744  0.47516672  1  0.030166  -0.003456  3.794611  -0.003  0.046417  -0.00176  4.025879  -0.001  0.043969  -0.001859  4.050716  -0.002  0.002448  0.048324  -0.002008  4.009543  -0.002
C  C74  1  0.03823783  0.79574834  0.02483570  1  0.030174  -0.00346  3.794578  -0.003  0.046455  -0.001759  4.025799  -0.001  0.044004  -0.001859  4.05064  -0.002  0.002471  0.048363  -0.002007  4.00946  -0.002
C  C75  1  0.96176005  0.79574979  0.52483449  1  0.03022  0.003427  3.794696  0.003  0.046477  0.00176  4.025912  0.001  0.044026  0.001858  4.050754  0.002  0.002483  0.048388  0.002007  4.009572  0.002
C  C76  1  0.91557230  0.08297262  0.91526148  1  -0.034038  -0.001822  3.648216  -0.001  -0.057889  0.000127  3.895066  0.0  -0.054643  -0.000486  3.911025  0.0  -0.057002  -0.059919  0.000416  3.884677  0.0
C  C77  1  0.08442800  0.08298168  0.41526278  1  -0.034307  0.001813  3.648432  0.001  -0.058129  -0.000128  3.895312  0.0  -0.054887  0.000486  3.911271  0.0  -0.057088  -0.060155  -0.000416  3.884924  0.0
C  C78  1  0.08442805  0.91702745  0.08473867  1  -0.034079  0.001816  3.648192  0.001  -0.057935  -0.000129  3.895051  0.0  -0.05469  0.000485  3.911009  0.0  -0.057003  -0.059965  -0.000416  3.884662  0.0
C  C79  1  0.91557133  0.91702858  0.58473554  1  -0.03427  -0.001778  3.648319  -0.001  -0.058117  0.000128  3.895177  0.0  -0.054873  -0.000486  3.911143  0.0  -0.057014  -0.060144  0.000416  3.884786  0.0
C  C80  1  0.00932949  0.99581149  0.86340061  1  -0.112845  0.002859  3.719302  0.002  -0.128964  0.001823  3.97538  0.001  -0.135869  0.001618  3.996468  0.001  -0.078831  -0.124372  0.002684  3.961327  0.002
C  C81  1  0.99067165  0.99582433  0.36340053  1  -0.112696  -0.00285  3.719505  -0.002  -0.128793  -0.001825  3.975495  -0.001  -0.135706  -0.001617  3.996599  -0.001  -0.078801  -0.124205  -0.002685  3.961447  -0.002
C  C82  1  0.99066882  0.00418451  0.13660095  1  -0.112848  -0.002847  3.719467  -0.002  -0.128933  -0.001824  3.975522  -0.001  -0.135839  -0.001618  3.996614  -0.001  -0.078823  -0.12434  -0.002684  3.961471  -0.002
C  C83  1  0.00932971  0.00418696  0.63659793  1  -0.112746  0.002812  3.719421  0.002  -0.128857  0.001824  3.975491  0.001  -0.135765  0.001618  3.996581  0.001  -0.078835  -0.124265  0.002684  3.96144  0.002
C  C84  1  0.14857164  0.02970161  0.87108334  1  0.165732  -0.000538  3.661347  0.0  0.136226  0.00075  3.926833  0.0  0.145187  0.000293  3.942376  0.0  0.063075  0.130564  0.000882  3.916708  0.0
C  C85  1  0.85143061  0.02971355  0.37108286  1  0.165835  0.000514  3.661551  0.0  0.136404  -0.000748  3.926986  0.0  0.145365  -0.000295  3.942529  0.0  0.063148  0.130739  -0.000882  3.916862  0.0
C  C86  1  0.85143074  0.97029338  0.12891874  1  0.165815  0.000516  3.661516  0.0  0.136267  -0.000749  3.927056  0.0  0.145229  -0.000293  3.9426  0.0  0.063078  0.130603  -0.000882  3.916936  0.0
C  C87  1  0.14856771  0.97029061  0.62891790  1  0.165769  -0.000485  3.661495  0.0  0.136259  0.000749  3.926983  0.0  0.14522  0.000294  3.942526  0.0  0.063097  0.130594  0.000882  3.916861  0.0
C  C88  1  0.10414254  0.22867442  0.97886506  1  0.132431  -0.004474  3.766679  -0.004  0.131158  -0.002041  4.005154  -0.002  0.135392  -0.002599  4.025938  -0.002  0.118056  0.128236  -0.001598  3.991571  -0.002
C  C89  1  0.89585635  0.22868156  0.47886709  1  0.132272  0.004463  3.766652  0.004  0.130909  0.00204  4.005321  0.002  0.135146  0.002599  4.02611  0.002  0.117967  0.127986  0.001598  3.99174  0.002
C  C90  1  0.89585882  0.77132259  0.02113464  1  0.132367  0.004467  3.766637  0.004  0.131041  0.00204  4.0052  0.002  0.135281  0.0026  4.02599  0.002  0.117965  0.128113  0.001598  3.991608  0.002
C  C91  1  0.10413789  0.77132159  0.52113553  1  0.132409  -0.004434  3.7666  -0.004  0.1311  -0.00204  4.005127  -0.002  0.135339  -0.002599  4.025916  -0.002  0.117899  0.128166  -0.001598  3.991537  -0.002
C  C92  1  0.15745759  0.34821209  0.03949483  1  0.146658  0.010536  3.739417  0.009  0.141711  0.008446  3.977729  0.007  0.14775  0.00724  3.998558  0.006  0.119011  0.136805  0.010056  3.964387  0.008
C  C93  1  0.84254612  0.34821789  0.53949663  1  0.146821  -0.010526  3.739379  -0.009  0.141872  -0.00845  3.977624  -0.007  0.147898  -0.007239  3.998474  -0.006  0.118996  0.136965  -0.010059  3.964282  -0.008
C  C94  1  0.84254479  0.65178491  0.96050352  1  0.146628  -0.010529  3.739477  -0.009  0.141684  -0.008448  3.977729  -0.007  0.147703  -0.00724  3.998588  -0.006  0.118993  0.136806  -0.010058  3.964347  -0.008
C  C95  1  0.15745016  0.65178424  0.46050652  1  0.14665  0.0105  3.739304  0.009  0.141673  0.008447  3.977583  0.007  0.147691  0.007239  3.998436  0.006  0.118985  0.136802  0.010056  3.964192  0.008
N  N96  1  0.29509646  0.36743474  0.04076898  1  -0.397816  -0.024837  3.308497  -0.037  -0.360287  -0.007591  3.586881  -0.021  -0.382761  -0.010397  3.605048  -0.024  -0.381121  -0.346746  -0.004057  3.575968  -0.018
N  N97  1  0.70490331  0.36744068  0.54076984  1  -0.397943  0.024831  3.308422  0.037  -0.360413  0.007592  3.586828  0.021  -0.382898  0.010398  3.604999  0.024  -0.381111  -0.34687  0.004059  3.575913  0.018
N  N98  1  0.70490491  0.63256430  0.95922968  1  -0.397763  0.024841  3.308334  0.037  -0.360251  0.007591  3.586768  0.021  -0.382725  0.0104  3.604935  0.024  -0.3811  -0.346714  0.004059  3.575845  0.018
N  N99  1  0.29509297  0.63256041  0.45922979  1  -0.397798  -0.024809  3.308539  -0.037  -0.36027  -0.00759  3.586974  -0.021  -0.382737  -0.010399  3.60515  -0.024  -0.381101  -0.346738  -0.004057  3.576045  -0.018
N  N100  1  0.19523403  0.14243435  0.92745693  1  -0.378296  -0.002204  3.235403  -0.003  -0.345459  -0.001455  3.513335  -0.002  -0.364028  -0.001215  3.533164  -0.002  -0.343581  -0.334453  -0.000997  3.50039  -0.001
N  N101  1  0.80476865  0.14244192  0.42745727  1  -0.37832  0.002215  3.2355  0.003  -0.34545  0.001456  3.513435  0.002  -0.364026  0.001216  3.53326  0.002  -0.343536  -0.334442  0.000997  3.500488  0.001
N  N102  1  0.80476530  0.85756266  0.07254411  1  -0.378306  0.002214  3.235321  0.003  -0.345409  0.001456  3.513241  0.002  -0.363981  0.001214  3.533066  0.002  -0.343501  -0.334402  0.000997  3.5003  0.001
N  N103  1  0.19523169  0.85756023  0.57254654  1  -0.378325  -0.002244  3.235407  -0.003  -0.345395  -0.001455  3.51325  -0.002  -0.363962  -0.001216  3.533073  -0.002  -0.343478  -0.334387  -0.000997  3.500304  -0.001
O  O104  1  0.55547329  0.29761430  0.99572173  1  -0.655611  -0.261527  1.36017  -0.253  -0.677354  -0.106411  1.630244  -0.105  -0.72625  -0.139515  1.625683  -0.139  -0.558458  -0.643739  -0.084496  1.631363  -0.082
O  O105  1  0.44453006  0.29761139  0.49572356  1  -0.65568  0.261556  1.360285  0.253  -0.677388  0.106402  1.63037  0.104  -0.726306  0.139515  1.625789  0.139  -0.558491  -0.643782  0.084491  1.631489  0.082
O  O106  1  0.44452807  0.70238677  0.00427522  1  -0.655652  0.261595  1.36019  0.253  -0.677368  0.106413  1.630267  0.105  -0.726285  0.139526  1.625692  0.139  -0.558475  -0.64376  0.084497  1.631392  0.082
O  O107  1  0.55547233  0.70238459  0.50427531  1  -0.655696  -0.26151  1.360211  -0.253  -0.677415  -0.106404  1.630302  -0.105  -0.726318  -0.139507  1.625742  -0.139  -0.558478  -0.6438  -0.084487  1.631423  -0.082
O  O108  1  0.39417773  0.29893870  0.85268936  1  -0.926605  -0.053706  1.669171  -0.077  -0.95643  -0.018019  1.991815  -0.044  -0.994021  -0.017098  1.983907  -0.041  -0.670654  -0.932193  -0.009443  1.997944  -0.036
O  O109  1  0.60582252  0.29894191  0.35268896  1  -0.926624  0.053713  1.669174  0.077  -0.956425  0.018023  1.991802  0.044  -0.994033  0.017098  1.983886  0.041  -0.670646  -0.932181  0.009448  1.99793  0.036
O  O110  1  0.60582364  0.70105830  0.14730900  1  -0.926601  0.053723  1.669221  0.077  -0.956406  0.018024  1.991862  0.044  -0.994005  0.017108  1.983951  0.041  -0.670648  -0.932158  0.009449  1.997993  0.036
O  O111  1  0.39417885  0.70105303  0.64730775  1  -0.926562  -0.053741  1.669104  -0.077  -0.956368  -0.018039  1.991762  -0.044  -0.99396  -0.017115  1.983853  -0.041  -0.670597  -0.932136  -0.009457  1.997881  -0.036
O  O112  1  0.48068393  0.05254841  0.86283595  1  -0.933068  0.007277  2.0327  -0.006  -0.871844  0.012588  2.308303  0.0  -0.906231  0.012709  2.286408  -0.001  -0.409552  -0.846252  0.012389  2.321507  0.0
O  O113  1  0.51932159  0.05254598  0.36283832  1  -0.933041  -0.007279  2.032717  0.006  -0.871848  -0.012589  2.308372  0.0  -0.906249  -0.012709  2.28647  0.001  -0.409494  -0.846257  -0.01239  2.321577  0.0
O  O114  1  0.51932151  0.94745166  0.13716353  1  -0.933063  -0.007279  2.032658  0.006  -0.871858  -0.012589  2.308278  0.0  -0.906249  -0.012709  2.286379  0.001  -0.409533  -0.846262  -0.012389  2.321488  0.0
O  O115  1  0.48067978  0.94744899  0.63716242  1  -0.933097  0.007277  2.032642  -0.006  -0.871894  0.012586  2.308283  0.0  -0.906284  0.012707  2.28639  -0.001  -0.409556  -0.846299  0.012388  2.321492  0.0
O  O116  1  0.62697901  0.86389251  0.77560213  1  -0.760649  -0.001523  1.966513  -0.001  -0.689524  -0.001132  2.179533  -0.001  -0.711383  -0.000972  2.154491  -0.001  -0.376839  -0.673436  -0.001116  2.196085  -0.001
O  O117  1  0.37302583  0.86389119  0.27560440  1  -0.760764  0.001524  1.966508  0.001  -0.689612  0.001132  2.179515  0.001  -0.711476  0.000972  2.154476  0.001  -0.376929  -0.67352  0.001116  2.196062  0.001
O  O118  1  0.37302948  0.13610960  0.22439833  1  -0.760684  0.001524  1.966465  0.001  -0.689559  0.001131  2.17953  0.001  -0.711419  0.000971  2.154504  0.001  -0.376903  -0.673465  0.001116  2.196076  0.001
O  O119  1  0.62697146  0.13610787  0.72439627  1  -0.760661  -0.001525  1.966484  -0.001  -0.689574  -0.001132  2.179529  -0.001  -0.711432  -0.000972  2.154495  -0.001  -0.376886  -0.673478  -0.001116  2.196075  -0.001
O  O120  1  0.60303636  0.89173654  0.94642511  1  -0.90156  -0.012926  2.016293  -0.001  -0.855088  -0.021269  2.29685  -0.009  -0.8907  -0.02043  2.27813  -0.007  -0.402372  -0.829148  -0.022186  2.308101  -0.01
O  O121  1  0.39696347  0.89173639  0.44642816  1  -0.901543  0.012928  2.016306  0.001  -0.855058  0.021268  2.296835  0.009  -0.890661  0.02043  2.278119  0.007  -0.40237  -0.82912  0.022186  2.308083  0.01
O  O122  1  0.39696602  0.10826354  0.05357504  1  -0.901558  0.012929  2.016438  0.001  -0.855077  0.021267  2.296949  0.009  -0.890682  0.020429  2.278235  0.007  -0.402359  -0.829138  0.022187  2.308197  0.01
O  O123  1  0.60303687  0.10826268  0.55357452  1  -0.901557  -0.012927  2.01638  -0.001  -0.855061  -0.021266  2.296897  -0.009  -0.890674  -0.02043  2.278172  -0.007  -0.402372  -0.829126  -0.022184  2.308149  -0.01
O  O124  1  0.40118813  0.80611673  0.84134537  1  -0.902227  0.003053  1.977714  -0.001  -0.859593  0.005957  2.267988  0.002  -0.889217  0.004045  2.246637  0.002  -0.428006  -0.83783  0.00787  2.28264  0.003
O  O125  1  0.59881585  0.80611381  0.34134878  1  -0.902141  -0.00305  1.977831  0.001  -0.859551  -0.005955  2.268132  -0.002  -0.889178  -0.004043  2.246788  -0.002  -0.427971  -0.837767  -0.007866  2.282766  -0.003
O  O126  1  0.59881832  0.19388229  0.15865060  1  -0.902204  -0.003051  1.977857  0.001  -0.859621  -0.005955  2.268113  -0.002  -0.889246  -0.004043  2.246766  -0.002  -0.427986  -0.837848  -0.007867  2.282769  -0.003
O  O127  1  0.40118246  0.19388115  0.65864995  1  -0.902205  0.003049  1.977653  -0.001  -0.859613  0.005955  2.267915  0.002  -0.889235  0.004043  2.246569  0.002  -0.427982  -0.837838  0.007866  2.282564  0.003
O  O128  1  0.35367644  0.49999678  0.75000143  1  -0.998451  -0.008531  1.517498  -0.013  -1.02365  -0.000132  1.817184  -0.004  -1.061918  -0.000167  1.807431  -0.003  -0.692483  -0.994623  0.001423  1.825093  -0.004
O  O129  1  0.64632492  0.49999715  0.24999580  1  -0.998413  0.008533  1.517506  0.013  -1.023608  0.000133  1.817173  0.004  -1.061873  0.000169  1.807418  0.003  -0.692467  -0.994566  -0.001422  1.825093  0.004
O  O130  1  0.16264295  0.29026451  0.75615548  1  -0.723231  -0.030784  1.277989  -0.03  -0.738217  -0.007412  1.524895  -0.008  -0.75897  -0.007933  1.521074  -0.008  -0.580853  -0.72353  -0.006292  1.529002  -0.007
O  O131  1  0.83735991  0.29026614  0.25615418  1  -0.723199  0.030795  1.277894  0.03  -0.73819  0.007414  1.524801  0.008  -0.758945  0.007937  1.520972  0.008  -0.580842  -0.723507  0.006294  1.52891  0.007
O  O132  1  0.83736147  0.70973149  0.24384609  1  -0.723182  0.030803  1.277931  0.03  -0.738163  0.007415  1.524822  0.008  -0.758928  0.007939  1.521014  0.008  -0.580833  -0.723478  0.006295  1.528933  0.007
O  O133  1  0.16264248  0.70973191  0.74384903  1  -0.723144  -0.030808  1.277913  -0.03  -0.738133  -0.007418  1.524833  -0.008  -0.758876  -0.007945  1.520995  -0.008  -0.580788  -0.723463  -0.006298  1.528935  -0.007
