# generated using pymatgen
data_ZnH18C21(NO3)2
_symmetry_space_group_name_H-M   'P 1'
_cell_length_a   8.27895987
_cell_length_b   10.19396257
_cell_length_c   13.22756808
_cell_angle_alpha   67.17985962
_cell_angle_beta   79.49072022
_cell_angle_gamma   79.34205810
_symmetry_Int_Tables_number   1
_chemical_formula_structural   ZnH18C21(NO3)2
_chemical_formula_sum   'Zn2 H36 C42 N4 O12'
_cell_volume   1003.64027969
_cell_formula_units_Z   2
loop_
 _symmetry_equiv_pos_site_id
 _symmetry_equiv_pos_as_xyz
  1  'x, y, z'
loop_
 _atom_site_type_symbol
 _atom_site_label
 _atom_site_symmetry_multiplicity
 _atom_site_fract_x
 _atom_site_fract_y
 _atom_site_fract_z
 _atom_site_occupancy
 _atom_site_hle17_bader_spin_density
 _atom_site_hle17_ddec_charge
 _atom_site_hle17_ddec_spin_density
 _atom_site_hle17_ddec_sum_bond_order
 _atom_site_hle17_magmom
 _atom_site_hse06_10hf_bader_spin_density
 _atom_site_hse06_10hf_ddec_charge
 _atom_site_hse06_10hf_ddec_spin_density
 _atom_site_hse06_10hf_ddec_sum_bond_order
 _atom_site_hse06_10hf_magmom
 _atom_site_hse06_bader_spin_density
 _atom_site_hse06_ddec_charge
 _atom_site_hse06_ddec_spin_density
 _atom_site_hse06_ddec_sum_bond_order
 _atom_site_hse06_magmom
 _atom_site_pbe_bader_spin_density
 _atom_site_pbe_cm5_charge
 _atom_site_pbe_ddec_charge
 _atom_site_pbe_ddec_spin_density
 _atom_site_pbe_ddec_sum_bond_order
 _atom_site_pbe_magmom
Zn  Zn0  1  0.05509398  0.57019003  0.84420292  1  0  1.086765  0  1.844798  0  0  0.906826  0  2.331829  0  0  0.953392  0  2.270794  0  0  0.707322  0.873616  0  2.373716  0
Zn  Zn1  1  0.94490994  0.42980617  0.15579791  1  0  1.086856  0  1.844827  0  0  0.906999  0  2.331792  0  0  0.953551  0  2.270755  0  0  0.707434  0.873774  0  2.373697  0
H  H2  1  0.73623446  0.74031164  0.93941009  1  0  0.101738  0  0.978641  0  0  0.109914  0  1.043466  0  0  0.111806  0  1.041834  0  0  0.136325  0.108407  0  1.04462  0
H  H3  1  0.26375650  0.25966611  0.06059839  1  0  0.101617  0  0.978785  0  0  0.109871  0  1.043518  0  0  0.111765  0  1.041881  0  0  0.136329  0.108356  0  1.044667  0
H  H4  1  0.51398176  0.79155120  0.66112014  1  0  0.125132  0  0.93875  0  0  0.138013  0  0.993799  0  0  0.140759  0  0.992014  0  0  0.131468  0.135884  0  0.995376  0
H  H5  1  0.48601321  0.20845459  0.33887746  1  0  0.125147  0  0.938702  0  0  0.138028  0  0.993757  0  0  0.140774  0  0.991971  0  0  0.131476  0.135898  0  0.995338  0
H  H6  1  0.82447474  0.62551595  0.65814127  1  0  0.114269  0  0.960963  0  0  0.123322  0  1.020899  0  0  0.125651  0  1.020117  0  0  0.120834  0.121518  0  1.021585  0
H  H7  1  0.17551764  0.37447579  0.34186299  1  0  0.114232  0  0.960996  0  0  0.123295  0  1.020928  0  0  0.125635  0  1.020132  0  0  0.12081  0.121489  0  1.021615  0
H  H8  1  0.34366380  0.80428748  0.88520074  1  0  0.091126  0  0.967196  0  0  0.102953  0  1.032327  0  0  0.104195  0  1.03116  0  0  0.108603  0.101713  0  1.033651  0
H  H9  1  0.65633490  0.19571830  0.11479945  1  0  0.091151  0  0.967206  0  0  0.102974  0  1.032334  0  0  0.104209  0  1.031167  0  0  0.108589  0.10174  0  1.033652  0
H  H10  1  0.39559789  0.96091480  0.77409424  1  0  0.103565  0  0.944825  0  0  0.117428  0  1.007643  0  0  0.118897  0  1.006042  0  0  0.117144  0.11631  0  1.008822  0
H  H11  1  0.60440106  0.03908141  0.22590340  1  0  0.103585  0  0.944867  0  0  0.117466  0  1.007655  0  0  0.11893  0  1.006052  0  0  0.117152  0.116348  0  1.008835  0
H  H12  1  0.59035743  0.08142482  0.71560808  1  0  0.105623  0  0.959607  0  0  0.126058  0  1.0198  0  0  0.127452  0  1.019648  0  0  0.089173  0.125124  0  1.019768  0
H  H13  1  0.40964348  0.91857462  0.28438990  1  0  0.105634  0  0.959675  0  0  0.126092  0  1.01984  0  0  0.127484  0  1.019688  0  0  0.089169  0.125159  0  1.019807  0
H  H14  1  0.67179140  0.21144829  0.74197894  1  0  0.105648  0  0.957492  0  0  0.127296  0  1.017959  0  0  0.128305  0  1.018311  0  0  0.088855  0.126531  0  1.017734  0
H  H15  1  0.32821160  0.78855334  0.25801740  1  0  0.105698  0  0.957515  0  0  0.127371  0  1.017952  0  0  0.128378  0  1.018306  0  0  0.088887  0.126605  0  1.017726  0
H  H16  1  0.45874668  0.23187176  0.72919621  1  0  0.115287  0  0.950786  0  0  0.136179  0  1.011995  0  0  0.136741  0  1.012973  0  0  0.091157  0.135584  0  1.01157  0
H  H17  1  0.54125470  0.76813204  0.27079743  1  0  0.115354  0  0.95073  0  0  0.136249  0  1.01194  0  0  0.13681  0  1.01292  0  0  0.091195  0.135658  0  1.011509  0
H  H18  1  0.40509935  0.66500147  0.02765707  1  0  0.105396  0  0.965062  0  0  0.125127  0  1.025796  0  0  0.12678  0  1.025411  0  0  0.088077  0.123964  0  1.026047  0
H  H19  1  0.59489808  0.33500434  0.97234099  1  0  0.105365  0  0.965081  0  0  0.125095  0  1.025819  0  0  0.126748  0  1.025432  0  0  0.088085  0.123925  0  1.026077  0
H  H20  1  0.28720969  0.70070113  0.14201477  1  0  0.106795  0  0.947421  0  0  0.128818  0  1.007934  0  0  0.12964  0  1.008658  0  0  0.089995  0.128198  0  1.007323  0
H  H21  1  0.71278251  0.29930675  0.85798408  1  0  0.106801  0  0.947473  0  0  0.128818  0  1.007982  0  0  0.129631  0  1.008716  0  0  0.090021  0.128198  0  1.007369  0
H  H22  1  0.50065543  0.63787227  0.14447578  1  0  0.112971  0  0.945381  0  0  0.13636  0  1.003604  0  0  0.137564  0  1.003713  0  0  0.092641  0.135523  0  1.003492  0
H  H23  1  0.49933782  0.36213670  0.85552262  1  0  0.112929  0  0.945375  0  0  0.136347  0  1.003573  0  0  0.137565  0  1.003663  0  0  0.092679  0.135508  0  1.003462  0
H  H24  1  0.08848068  0.96013193  0.82294813  1  0  0.099261  0  0.956589  0  0  0.108465  0  1.018287  0  0  0.111088  0  1.017546  0  0  0.106608  0.106461  0  1.019006  0
H  H25  1  0.91151221  0.03987165  0.17705187  1  0  0.099242  0  0.956602  0  0  0.108451  0  1.018303  0  0  0.111073  0  1.017565  0  0  0.106587  0.106447  0  1.019021  0
H  H26  1  0.92329053  0.79478607  0.17178121  1  0  0.109964  0  0.955533  0  0  0.116635  0  1.020289  0  0  0.120048  0  1.018308  0  0  0.107016  0.113979  0  1.022008  0
H  H27  1  0.07670669  0.20522086  0.82821428  1  0  0.109978  0  0.95552  0  0  0.11663  0  1.020293  0  0  0.120045  0  1.018319  0  0  0.107018  0.113975  0  1.02201  0
H  H28  1  0.21859313  0.47732142  0.47213837  1  0  0.100643  0  0.958765  0  0  0.110149  0  1.021466  0  0  0.113512  0  1.019347  0  0  0.106037  0.107694  0  1.023093  0
H  H29  1  0.78141768  0.52268556  0.52786153  1  0  0.100688  0  0.958766  0  0  0.110146  0  1.021523  0  0  0.113531  0  1.01938  0  0  0.106082  0.107696  0  1.023142  0
H  H30  1  0.53854144  0.53757720  0.66804935  1  0  0.088199  0  0.986745  0  0  0.094814  0  1.057044  0  0  0.097523  0  1.056533  0  0  0.100439  0.092877  0  1.057439  0
H  H31  1  0.46146677  0.46243832  0.33194990  1  0  0.088116  0  0.98685  0  0  0.094798  0  1.057098  0  0  0.097509  0  1.056587  0  0  0.100394  0.092853  0  1.057496  0
H  H32  1  0.93759959  0.64984725  0.37435960  1  0  0.403871  0  0.889284  0  0  0.371472  0  0.97231  0  0  0.384586  0  0.954592  0  0  0.299058  0.362263  0  0.982418  0
H  H33  1  0.06239863  0.35015330  0.62563459  1  0  0.403703  0  0.889429  0  0  0.371459  0  0.972222  0  0  0.384576  0  0.95457  0  0  0.299067  0.36225  0  0.982334  0
H  H34  1  0.17881492  0.78207401  0.48470413  1  0  0.103252  0  0.958994  0  0  0.111172  0  1.022332  0  0  0.11374  0  1.021845  0  0  0.104925  0.109242  0  1.022905  0
H  H35  1  0.82119518  0.21791469  0.51530116  1  0  0.103307  0  0.958921  0  0  0.111322  0  1.02215  0  0  0.11383  0  1.021735  0  0  0.104978  0.109386  0  1.022717  0
H  H36  1  0.72614245  0.07046658  0.42950601  1  0  0.098364  0  0.949442  0  0  0.106638  0  1.012199  0  0  0.110798  0  1.008832  0  0  0.104084  0.103624  0  1.014679  0
H  H37  1  0.27386080  0.92952636  0.57049735  1  0  0.098368  0  0.949451  0  0  0.106626  0  1.012226  0  0  0.110786  0  1.008857  0  0  0.104108  0.10361  0  1.014706  0
C  C38  1  0.72165466  0.73160520  0.86269924  1  0  0.164884  0  3.651954  0  0  0.105013  0  3.905691  0  0  0.118905  0  3.919547  0  0  0.142332  0.096046  0  3.896212  0
C  C39  1  0.27833876  0.26838010  0.13730676  1  0  0.165033  0  3.651821  0  0  0.105136  0  3.90555  0  0  0.119027  0  3.919405  0  0  0.142402  0.096182  0  3.896058  0
C  C40  1  0.60778481  0.75666337  0.71661769  1  0  -0.052166  0  3.645959  0  0  -0.093241  0  3.899607  0  0  -0.092145  0  3.918534  0  0  0.010286  -0.09417  0  3.887275  0
C  C41  1  0.39220473  0.24333051  0.28338477  1  0  -0.052182  0  3.6458  0  0  -0.093242  0  3.899468  0  0  -0.092148  0  3.918398  0  0  0.010258  -0.094173  0  3.88714  0
C  C42  1  0.75914035  0.67422660  0.71621922  1  0  0.009421  0  3.737247  0  0  -0.02352  0  4.000652  0  0  -0.021913  0  4.022124  0  0  0.001995  -0.024495  0  3.98631  0
C  C43  1  0.24084927  0.32575967  0.28378997  1  0  0.009503  0  3.737104  0  0  -0.023434  0  4.000491  0  0  -0.021835  0  4.021958  0  0  0.002103  -0.02441  0  3.98615  0
C  C44  1  0.44049929  0.87528835  0.84776409  1  0  -0.056134  0  3.639263  0  0  -0.121151  0  3.8872  0  0  -0.116715  0  3.897153  0  0  -0.055134  -0.123932  0  3.880616  0
C  C45  1  0.55949882  0.12471320  0.15223361  1  0  -0.056207  0  3.639407  0  0  -0.121271  0  3.887346  0  0  -0.116796  0  3.897239  0  0  -0.055127  -0.124057  0  3.880762  0
C  C46  1  0.47662201  0.93685232  0.92742141  1  0  -0.05013  0  3.724663  0  0  -0.045017  0  3.975958  0  0  -0.047948  0  4.001925  0  0  -0.021933  -0.042948  0  3.958402  0
C  C47  1  0.52337522  0.06315461  0.07257408  1  0  -0.050331  0  3.724714  0  0  -0.045073  0  3.975903  0  0  -0.048007  0  4.001871  0  0  -0.022013  -0.043005  0  3.958343  0
C  C48  1  0.52947740  0.07392050  0.88478512  1  0  0.055684  0  3.704683  0  0  0.065555  0  3.95344  0  0  0.064842  0  3.978666  0  0  -0.013642  0.065867  0  3.936447  0
C  C49  1  0.47051577  0.92608856  0.11520873  1  0  0.055781  0  3.70455  0  0  0.065601  0  3.953243  0  0  0.064869  0  3.978496  0  0  -0.01353  0.06592  0  3.936239  0
C  C50  1  0.45047282  0.86091700  0.04241708  1  0  0.045835  0  3.709568  0  0  0.057318  0  3.958807  0  0  0.056391  0  3.984486  0  0  -0.016161  0.057879  0  3.941505  0
C  C51  1  0.54951826  0.13908987  0.95757841  1  0  0.04594  0  3.709499  0  0  0.057285  0  3.958847  0  0  0.056349  0  3.984531  0  0  -0.016121  0.05785  0  3.941543  0
C  C52  1  0.56439476  0.15288007  0.76214487  1  0  -0.326739  0  3.729313  0  0  -0.404688  0  3.965429  0  0  -0.406745  0  3.97625  0  0  -0.244548  -0.402861  0  3.9579  0
C  C53  1  0.43560634  0.84712581  0.23785198  1  0  -0.326873  0  3.729371  0  0  -0.404866  0  3.96549  0  0  -0.406916  0  3.976316  0  0  -0.244615  -0.40304  0  3.957961  0
C  C54  1  0.40825128  0.70906910  0.09062363  1  0  -0.328021  0  3.734814  0  0  -0.407635  0  3.97429  0  0  -0.410051  0  3.985284  0  0  -0.243226  -0.405638  0  3.966485  0
C  C55  1  0.59174349  0.29093780  0.90937216  1  0  -0.327935  0  3.734804  0  0  -0.407536  0  3.974298  0  0  -0.409954  0  3.985297  0  0  -0.243287  -0.405534  0  3.966501  0
C  C56  1  0.01656397  0.71915670  0.99454327  1  0  0.662649  0  3.892569  0  0  0.607816  0  4.187883  0  0  0.64322  0  4.178626  0  0  0.223492  0.584188  0  4.1928  0
C  C57  1  0.98343297  0.28084476  0.00545838  1  0  0.66274  0  3.892465  0  0  0.607857  0  4.187765  0  0  0.643262  0  4.178496  0  0  0.223481  0.584226  0  4.192687  0
C  C58  1  0.00829180  0.86441060  0.99725284  1  0  -0.063765  0  3.758974  0  0  -0.041266  0  3.991878  0  0  -0.049083  0  4.015287  0  0  -0.01208  -0.035635  0  3.97528  0
C  C59  1  0.99170795  0.13559627  0.00274690  1  0  -0.06385  0  3.75889  0  0  -0.041148  0  3.991523  0  0  -0.048963  0  4.014927  0  0  -0.012044  -0.035516  0  3.974927  0
C  C60  1  0.05024374  0.97899173  0.89988096  1  0  -0.062356  0  3.719704  0  0  -0.084512  0  3.966919  0  0  -0.085494  0  3.988173  0  0  -0.076842  -0.083846  0  3.952749  0
C  C61  1  0.94975861  0.02100661  0.10011943  1  0  -0.062334  0  3.719663  0  0  -0.084567  0  3.966841  0  0  -0.08555  0  3.988093  0  0  -0.076833  -0.083901  0  3.952669  0
C  C62  1  0.95692228  0.88528137  0.09749837  1  0  -0.055614  0  3.695682  0  0  -0.078887  0  3.943034  0  0  -0.079383  0  3.962987  0  0  -0.0753  -0.078473  0  3.929858  0
C  C63  1  0.04307511  0.11471696  0.90249959  1  0  -0.055633  0  3.69562  0  0  -0.078945  0  3.942884  0  0  -0.079447  0  3.962838  0  0  -0.075316  -0.078533  0  3.929711  0
C  C64  1  0.22187144  0.51503781  0.66424005  1  0  0.651134  0  3.894816  0  0  0.598048  0  4.190818  0  0  0.632587  0  4.183021  0  0  0.215151  0.57449  0  4.195855  0
C  C65  1  0.77813022  0.48496480  0.33575995  1  0  0.651099  0  3.89485  0  0  0.597946  0  4.190934  0  0  0.632486  0  4.183136  0  0  0.215155  0.574389  0  4.195962  0
C  C66  1  0.36469857  0.50734831  0.57892594  1  0  -0.062471  0  3.762079  0  0  -0.038504  0  3.992538  0  0  -0.045362  0  4.014617  0  0  -0.012753  -0.033944  0  3.977968  0
C  C67  1  0.63530749  0.49266509  0.42107116  1  0  -0.06225  0  3.762065  0  0  -0.038237  0  3.992526  0  0  -0.045092  0  4.014609  0  0  -0.012677  -0.033698  0  3.977998  0
C  C68  1  0.34232816  0.48530538  0.48452226  1  0  -0.065797  0  3.7238  0  0  -0.089417  0  3.971002  0  0  -0.09016  0  3.990889  0  0  -0.080302  -0.089133  0  3.957979  0
C  C69  1  0.65767793  0.51471552  0.51547417  1  0  -0.065986  0  3.723794  0  0  -0.089625  0  3.971073  0  0  -0.090374  0  3.990921  0  0  -0.08041  -0.089342  0  3.958053  0
C  C70  1  0.52294557  0.52215863  0.59368002  1  0  -0.070068  0  3.733426  0  0  -0.091392  0  3.978144  0  0  -0.092447  0  3.999195  0  0  -0.081058  -0.090534  0  3.963879  0
C  C71  1  0.47706286  0.47784825  0.40632398  1  0  -0.070134  0  3.733663  0  0  -0.091547  0  3.978389  0  0  -0.092607  0  3.999436  0  0  -0.081081  -0.090666  0  3.964092  0
C  C72  1  0.88300542  0.83059383  0.40239538  1  0  0.635048  0  3.845816  0  0  0.588184  0  4.145248  0  0  0.62056  0  4.13691  0  0  0.224812  0.566266  0  4.150286  0
C  C73  1  0.11699422  0.16939812  0.59760266  1  0  0.634982  0  3.845606  0  0  0.588081  0  4.145101  0  0  0.62046  0  4.136767  0  0  0.224817  0.566162  0  4.150132  0
C  C74  1  0.94604759  0.91748827  0.45209332  1  0  -0.0693  0  3.765834  0  0  -0.048265  0  3.998576  0  0  -0.055561  0  4.022595  0  0  -0.015229  -0.043511  0  3.982385  0
C  C75  1  0.05395992  0.08250143  0.54791425  1  0  -0.069125  0  3.765887  0  0  -0.048034  0  3.998554  0  0  -0.055329  0  4.022559  0  0  -0.015181  -0.043279  0  3.982357  0
C  C76  1  0.10094447  0.87737654  0.49170456  1  0  -0.061531  0  3.716249  0  0  -0.085926  0  3.966647  0  0  -0.086259  0  3.987117  0  0  -0.081196  -0.085568  0  3.952766  0
C  C77  1  0.89906418  0.12261329  0.50829755  1  0  -0.061677  0  3.716421  0  0  -0.086184  0  3.966851  0  0  -0.086468  0  3.987351  0  0  -0.081258  -0.085813  0  3.952955  0
C  C78  1  0.84600195  0.04066543  0.46061779  1  0  -0.068072  0  3.737919  0  0  -0.091697  0  3.988097  0  0  -0.092774  0  4.008064  0  0  -0.080558  -0.090851  0  3.974514  0
C  C79  1  0.15400130  0.95932751  0.53938557  1  0  -0.068068  0  3.737841  0  0  -0.091693  0  3.987974  0  0  -0.09277  0  4.00796  0  0  -0.080535  -0.090845  0  3.974394  0
N  N80  1  0.82902119  0.65936620  0.80799341  1  0  -0.413249  0  3.344534  0  0  -0.329988  0  3.649536  0  0  -0.351848  0  3.661463  0  0  -0.367045  -0.315847  0  3.64156  0
N  N81  1  0.17096608  0.34061905  0.19201183  1  0  -0.413281  0  3.344454  0  0  -0.330075  0  3.649537  0  0  -0.351933  0  3.66146  0  0  -0.367192  -0.31593  0  3.641554  0
N  N82  1  0.58707916  0.79209204  0.80941244  1  0  -0.039667  0  3.553041  0  0  0.057065  0  3.765649  0  0  0.042942  0  3.791056  0  0  -0.232198  0.066242  0  3.748499  0
N  N83  1  0.41291811  0.20789978  0.19059045  1  0  -0.039655  0  3.552877  0  0  0.057024  0  3.765553  0  0  0.042895  0  3.790952  0  0  -0.232218  0.066199  0  3.748407  0
O  O84  1  0.11582823  0.68809717  0.91864720  1  0  -0.633321  0  2.065044  0  0  -0.561436  0  2.334932  0  0  -0.587238  0  2.3166  0  0  -0.313687  -0.542704  0  2.346699  0
O  O85  1  0.88416302  0.31190863  0.08134782  1  0  -0.63331  0  2.065035  0  0  -0.561423  0  2.33488  0  0  -0.587243  0  2.31659  0  0  -0.313645  -0.542691  0  2.346651  0
O  O86  1  0.91879848  0.63665038  0.06724069  1  0  -0.647451  0  2.119658  0  0  -0.577403  0  2.404817  0  0  -0.603444  0  2.385365  0  0  -0.317658  -0.558505  0  2.417506  0
O  O87  1  0.08121146  0.36333938  0.93276507  1  0  -0.647469  0  2.119506  0  0  -0.577403  0  2.404676  0  0  -0.60345  0  2.385228  0  0  -0.317635  -0.558503  0  2.417363  0
O  O88  1  0.24088169  0.57917132  0.72763590  1  0  -0.631797  0  2.023547  0  0  -0.558136  0  2.290387  0  0  -0.586884  0  2.275084  0  0  -0.324973  -0.538328  0  2.300298  0
O  O89  1  0.75912251  0.42082370  0.27237129  1  0  -0.631866  0  2.023581  0  0  -0.5582  0  2.290447  0  0  -0.586941  0  2.275138  0  0  -0.324993  -0.538386  0  2.300354  0
O  O90  1  0.09115961  0.46218885  0.67238911  1  0  -0.620592  0  1.984429  0  0  -0.56661  0  2.21574  0  0  -0.59076  0  2.203174  0  0  -0.307628  -0.549766  0  2.223347  0
O  O91  1  0.90884808  0.53781396  0.32760406  1  0  -0.620607  0  1.984349  0  0  -0.566531  0  2.215726  0  0  -0.590682  0  2.203147  0  0  -0.307649  -0.549689  0  2.223343  0
O  O92  1  0.98484253  0.71147652  0.40513550  1  0  -0.563633  0  2.099336  0  0  -0.514878  0  2.324053  0  0  -0.53728  0  2.306887  0  0  -0.336279  -0.499201  0  2.333482  0
O  O93  1  0.01516324  0.28851550  0.59486179  1  0  -0.563401  0  2.099623  0  0  -0.514727  0  2.324174  0  0  -0.537141  0  2.307083  0  0  -0.336247  -0.499051  0  2.3336  0
O  O94  1  0.74985093  0.86582476  0.36371112  1  0  -0.560607  0  1.912554  0  0  -0.523084  0  2.127188  0  0  -0.54243  0  2.119803  0  0  -0.2985  -0.509617  0  2.131913  0
O  O95  1  0.25017676  0.13417612  0.63628248  1  0  -0.560715  0  1.911904  0  0  -0.52319  0  2.126558  0  0  -0.542536  0  2.119177  0  0  -0.298571  -0.509722  0  2.131278  0
