# generated using pymatgen
data_Mn2H8W(C7N6)2
_symmetry_space_group_name_H-M   'P 1'
_cell_length_a   9.74495274
_cell_length_b   9.87220886
_cell_length_c   10.78938576
_cell_angle_alpha   94.78038485
_cell_angle_beta   103.93294072
_cell_angle_gamma   102.87685884
_symmetry_Int_Tables_number   1
_chemical_formula_structural   Mn2H8W(C7N6)2
_chemical_formula_sum   'Mn4 H16 W2 C28 N24'
_cell_volume   971.75971428
_cell_formula_units_Z   2
loop_
 _symmetry_equiv_pos_site_id
 _symmetry_equiv_pos_as_xyz
  1  'x, y, z'
loop_
 _atom_site_type_symbol
 _atom_site_label
 _atom_site_symmetry_multiplicity
 _atom_site_fract_x
 _atom_site_fract_y
 _atom_site_fract_z
 _atom_site_occupancy
 _atom_site_pbe_cm5_charge
 _atom_site_pbe_ddec_charge
 _atom_site_pbe_ddec_spin_density
 _atom_site_pbe_ddec_sum_bond_order
 _atom_site_pbe_magmom
Mn  Mn0  1  0.64491004  0.28239329  0.80220932  1  0.706879  0.88283  -4.606484  2.606143  -4.347
Mn  Mn1  1  0.35508402  0.71760835  0.19778930  1  0.706874  0.882794  -4.606534  2.606192  -4.347
Mn  Mn2  1  0.89219091  0.75707010  0.53341100  1  0.745252  0.863426  4.565738  2.690536  4.264
Mn  Mn3  1  0.10780842  0.24293148  0.46659339  1  0.745294  0.863513  4.565752  2.690542  4.264
H  H4  1  0.93526091  0.40460813  0.69707719  1  0.122732  0.119545  0.000404  1.010221  0.0
H  H5  1  0.06472591  0.59538619  0.30291832  1  0.122743  0.119549  0.000404  1.010244  0.0
H  H6  1  0.92098825  0.27715841  0.05870280  1  0.138798  0.104233  0.00011  0.995315  0.0
H  H7  1  0.07900914  0.72283587  0.94129408  1  0.138756  0.10418  0.00011  0.995373  0.0
H  H8  1  0.21985012  0.44571806  0.84969740  1  0.123071  0.120469  -0.000384  1.024851  0.0
H  H9  1  0.78013733  0.55428258  0.15029599  1  0.123088  0.120514  -0.000384  1.024883  0.0
H  H10  1  0.19005077  0.35918854  0.05930421  1  0.33482  0.28868  -0.000587  0.920695  -0.001
H  H11  1  0.80994513  0.64081208  0.94069009  1  0.334845  0.288905  -0.000586  0.92053  -0.001
H  H12  1  0.16793037  0.93727198  0.44067359  1  0.12577  0.122078  0.000547  1.005101  0.001
H  H13  1  0.83207746  0.06273377  0.55933299  1  0.125759  0.12197  0.000547  1.005319  0.001
H  H14  1  0.71428402  0.83227531  0.26000121  1  0.140725  0.101876  -0.000575  1.009554  0.0
H  H15  1  0.28572476  0.16772207  0.73999933  1  0.140728  0.101887  -0.000575  1.00963  0.0
H  H16  1  0.12196844  0.01273723  0.19388087  1  0.121846  0.122002  0.00012  1.039224  0.0
H  H17  1  0.87804306  0.98726641  0.80612541  1  0.121852  0.122027  0.000121  1.039187  0.0
H  H18  1  0.84323526  0.92982727  0.09602298  1  0.30811  0.274878  0.000283  1.021805  0.0
H  H19  1  0.15677486  0.07017114  0.90397886  1  0.308092  0.274844  0.000283  1.021841  0.0
W  W20  1  0.56875422  0.26655901  0.28704558  1  0.945612  0.467841  -0.000507  6.093599  -0.001
W  W21  1  0.43124673  0.73344470  0.71295470  1  0.945607  0.467952  -0.000516  6.093336  -0.001
C  C22  1  0.63247134  0.26077211  0.49131520  1  0.033229  0.036945  -0.028091  3.77077  -0.026
C  C23  1  0.36752899  0.73922530  0.50868443  1  0.033225  0.036915  -0.028094  3.770705  -0.026
C  C24  1  0.72193427  0.45997967  0.37366788  1  0.035773  0.050478  0.056156  3.791503  0.05
C  C25  1  0.27806324  0.54002302  0.62633064  1  0.035812  0.05051  0.05615  3.791502  0.05
C  C26  1  0.62459301  0.27612346  0.10655480  1  0.011696  -0.014979  -0.026293  3.795941  -0.025
C  C27  1  0.37540655  0.72387501  0.89344382  1  0.011709  -0.014933  -0.026296  3.795897  -0.025
C  C28  1  0.48123091  0.44092868  0.23365220  1  0.039395  0.049309  -0.043679  3.770673  -0.04
C  C29  1  0.51877245  0.55907612  0.76634221  1  0.039414  0.049315  -0.043687  3.770557  -0.04
C  C30  1  0.52532986  0.04264608  0.27024449  1  0.026435  0.024  -0.045051  3.750065  -0.04
C  C31  1  0.47466736  0.95735554  0.72975573  1  0.026502  0.024158  -0.045063  3.749876  -0.04
C  C32  1  0.39174036  0.25157505  0.37053715  1  0.042459  0.074016  0.061376  3.792624  0.054
C  C33  1  0.60826310  0.74843811  0.62946537  1  0.042383  0.07389  0.061376  3.792777  0.054
C  C34  1  0.78376784  0.23009238  0.32219232  1  0.059086  0.086295  0.068825  3.694492  0.059
C  C35  1  0.21623277  0.76990606  0.67781024  1  0.05904  0.086223  0.068821  3.694518  0.059
C  C36  1  0.37217574  0.17241222  0.13666713  1  0.030101  0.049828  -0.000359  3.801441  0.0
C  C37  1  0.62782281  0.82759042  0.86333625  1  0.030114  0.049812  -0.00036  3.801386  0.0
C  C38  1  0.97468671  0.38452452  0.79480824  1  -0.000642  -0.04032  -0.005184  3.992467  -0.005
C  C39  1  0.02530145  0.61547085  0.20518672  1  -0.000639  -0.04033  -0.005184  3.992758  -0.005
C  C40  1  0.96149079  0.31637421  0.97999401  1  0.149478  0.15689  -0.012214  3.927428  -0.011
C  C41  1  0.03850371  0.68362113  0.02000233  1  0.14956  0.156972  -0.012214  3.927488  -0.011
C  C42  1  0.11555689  0.40423171  0.86831244  1  0.006376  -0.042346  -0.00094  3.943722  0.0
C  C43  1  0.88443366  0.59576472  0.13168128  1  0.00639  -0.042308  -0.00094  3.94397  0.0
C  C44  1  0.06680175  0.92886658  0.36813620  1  0.004879  -0.051809  0.015891  4.005763  0.01
C  C45  1  0.93320391  0.07113497  0.63187049  1  0.004849  -0.051844  0.015894  4.005893  0.01
C  C46  1  0.83162726  0.87000219  0.27761971  1  0.153118  0.157737  0.023038  3.925928  0.018
C  C47  1  0.16838664  0.13000251  0.72238348  1  0.153065  0.157655  0.023045  3.925578  0.018
C  C48  1  0.04572841  0.96566712  0.24597480  1  0.013958  -0.036779  0.01588  3.926561  0.011
C  C49  1  0.95428260  0.03433864  0.75402969  1  0.014038  -0.036671  0.015878  3.926375  0.011
N  N50  1  0.66481596  0.26633336  0.60398633  1  -0.347006  -0.346454  -0.025026  3.264904  -0.005
N  N51  1  0.33518354  0.73366090  0.39601194  1  -0.346985  -0.346417  -0.025023  3.264901  -0.005
N  N52  1  0.81205012  0.56163536  0.42791216  1  -0.380895  -0.367868  0.025455  3.33535  -0.005
N  N53  1  0.18794949  0.43836728  0.57209238  1  -0.380926  -0.367901  0.025461  3.335429  -0.005
N  N54  1  0.64486599  0.27708914  0.00361127  1  -0.355786  -0.350783  -0.028125  3.315552  -0.007
N  N55  1  0.35513195  0.72290722  0.99638869  1  -0.355769  -0.35081  -0.028122  3.315519  -0.007
N  N56  1  0.43267646  0.53722272  0.20862536  1  -0.371035  -0.369566  -0.022344  3.321455  0.01
N  N57  1  0.56732661  0.46278102  0.79136983  1  -0.371058  -0.369591  -0.022341  3.321403  0.01
N  N58  1  0.49345484  0.91926191  0.25230680  1  -0.371055  -0.359336  -0.023281  3.347401  0.007
N  N59  1  0.50654217  0.08074287  0.74769271  1  -0.371113  -0.359492  -0.02328  3.347367  0.007
N  N60  1  0.28687621  0.23982498  0.40832068  1  -0.392542  -0.383539  0.019333  3.404219  -0.018
N  N61  1  0.71312564  0.76018608  0.59168225  1  -0.392443  -0.383408  0.019331  3.404315  -0.018
N  N62  1  0.90548414  0.22225013  0.34997669  1  -0.379557  -0.368748  0.018155  3.359355  -0.022
N  N63  1  0.09451597  0.77775039  0.65002963  1  -0.37952  -0.368699  0.018153  3.359284  -0.022
N  N64  1  0.26142370  0.11700753  0.06086727  1  -0.342858  -0.359513  -0.002246  3.055375  -0.002
N  N65  1  0.73857668  0.88299404  0.93913828  1  -0.342885  -0.359546  -0.002248  3.055376  -0.002
N  N66  1  0.87937294  0.33000935  0.86560160  1  -0.356531  -0.330523  -0.042765  3.577061  -0.02
N  N67  1  0.12061994  0.66998388  0.13439700  1  -0.356542  -0.330538  -0.042766  3.577137  -0.02
N  N68  1  0.10449860  0.36083166  0.98442859  1  -0.376236  -0.20044  -0.004827  3.714062  -0.004
N  N69  1  0.89549568  0.63916686  0.01556425  1  -0.376348  -0.20078  -0.004827  3.714172  -0.004
N  N70  1  0.93169595  0.86903442  0.38669837  1  -0.372131  -0.333947  0.042615  3.627457  0.015
N  N71  1  0.06831023  0.13096508  0.61330085  1  -0.372127  -0.333917  0.042614  3.627138  0.015
N  N72  1  0.89738880  0.92812337  0.19169337  1  -0.373362  -0.196438  0.005068  3.703316  0.004
N  N73  1  0.10262447  0.07187501  0.80831194  1  -0.373348  -0.196367  0.00507  3.703046  0.004
