# generated using pymatgen
data_CuH28C36N8(OF)4
_symmetry_space_group_name_H-M   'P 1'
_cell_length_a   8.24868949
_cell_length_b   9.41268664
_cell_length_c   11.81556194
_cell_angle_alpha   108.37554446
_cell_angle_beta   103.97684216
_cell_angle_gamma   91.40360693
_symmetry_Int_Tables_number   1
_chemical_formula_structural   CuH28C36N8(OF)4
_chemical_formula_sum   'Cu1 H28 C36 N8 O4 F4'
_cell_volume   839.77539435
_cell_formula_units_Z   1
loop_
 _symmetry_equiv_pos_site_id
 _symmetry_equiv_pos_as_xyz
  1  'x, y, z'
loop_
 _atom_site_type_symbol
 _atom_site_label
 _atom_site_symmetry_multiplicity
 _atom_site_fract_x
 _atom_site_fract_y
 _atom_site_fract_z
 _atom_site_occupancy
 _atom_site_hle17_ddec_charge
 _atom_site_hle17_ddec_spin_density
 _atom_site_hle17_ddec_sum_bond_order
 _atom_site_hle17_magmom
 _atom_site_hse06_10hf_ddec_charge
 _atom_site_hse06_10hf_ddec_spin_density
 _atom_site_hse06_10hf_ddec_sum_bond_order
 _atom_site_hse06_10hf_magmom
 _atom_site_hse06_ddec_charge
 _atom_site_hse06_ddec_spin_density
 _atom_site_hse06_ddec_sum_bond_order
 _atom_site_hse06_magmom
 _atom_site_pbe_cm5_charge
 _atom_site_pbe_ddec_charge
 _atom_site_pbe_ddec_spin_density
 _atom_site_pbe_ddec_sum_bond_order
 _atom_site_pbe_magmom
Cu  Cu0  1  0.49999739  0.99999729  0.49999178  1  0.818897  -0.713476  1.906352  -0.542  0.776807  -0.782089  2.288587  -0.635  0.850126  -0.837562  2.236618  -0.706  0.796114  0.731884  -0.74413  2.32416  -0.589
H  H1  1  0.85536985  0.03805467  0.45226629  1  0.112449  -0.000234  0.969784  -0.001  0.120381  -0.000365  1.031429  -0.001  0.122186  -0.000258  1.031066  -0.001  0.118925  0.11896  -0.000443  1.031809  -0.001
H  H2  1  0.14463497  0.96188011  0.54774702  1  0.112437  -0.000235  0.969741  -0.001  0.120355  -0.000365  1.031447  -0.001  0.122163  -0.000258  1.031078  -0.001  0.118878  0.118931  -0.000442  1.031831  -0.001
H  H3  1  0.10840718  0.37338933  0.89520155  1  0.095387  3.2e-05  0.909637  0.0  0.10913  2e-05  0.97127  0.0  0.110274  2.9e-05  0.969671  0.0  0.11642  0.107997  -8e-06  0.972657  0.0
H  H4  1  0.89157388  0.62659349  0.10478555  1  0.095334  4e-05  0.90965  0.0  0.10911  2e-05  0.971234  0.0  0.110359  2.9e-05  0.969494  0.0  0.116419  0.107954  -7e-06  0.972643  0.0
H  H5  1  0.91493256  0.45374003  0.88923241  1  0.086808  7.1e-05  0.915251  0.0  0.105545  -1.3e-05  0.972572  0.0  0.10577  -2e-06  0.972768  0.0  0.120297  0.105362  -1.2e-05  0.972364  0.0
H  H6  1  0.08504481  0.54623379  0.11075259  1  0.086708  7.7e-05  0.915288  0.0  0.105484  -1.3e-05  0.97254  0.0  0.105708  -2e-06  0.972744  0.0  0.12028  0.105269  -1.2e-05  0.972367  0.0
H  H7  1  0.68165314  0.26459498  0.76295331  1  0.104652  1.4e-05  1.001747  0.0  0.109031  -6.9e-05  1.073141  0.0  0.111688  -2.6e-05  1.069593  0.0  0.133053  0.10696  -0.000126  1.075768  -0.001
H  H8  1  0.31831392  0.73544379  0.23700450  1  0.104717  1.4e-05  1.001705  0.0  0.109006  -7e-05  1.073201  0.0  0.111655  -2.6e-05  1.069677  0.0  0.133042  0.106934  -0.000127  1.07583  -0.001
H  H9  1  0.33844140  0.49325944  0.87512589  1  0.116575  5.2e-05  0.967165  0.0  0.125056  9e-06  1.029745  0.0  0.128785  8e-06  1.026637  0.0  0.102915  0.12185  4e-06  1.032839  0.0
H  H10  1  0.66153782  0.50674693  0.12487633  1  0.116627  4.2e-05  0.967103  0.0  0.125119  9e-06  1.029687  0.0  0.128849  8e-06  1.02658  0.0  0.102937  0.121908  4e-06  1.032779  0.0
H  H11  1  0.29762433  0.83574298  0.70164440  1  0.098939  4.6e-05  0.983471  0.0  0.105127  3e-06  1.051875  0.0  0.108253  3e-06  1.050311  0.0  0.095503  0.102438  3e-06  1.053672  0.0
H  H12  1  0.70235230  0.16429004  0.29839477  1  0.09899  3.6e-05  0.983489  0.0  0.105159  3e-06  1.051856  0.0  0.108292  3e-06  1.050273  0.0  0.095503  0.102469  3e-06  1.053657  0.0
H  H13  1  0.11385083  0.25092426  0.62603252  1  0.119118  -0.000501  0.973948  -0.001  0.126763  -0.000422  1.039733  -0.001  0.128674  -0.000313  1.040167  0.0  0.122296  0.125391  -0.000513  1.039457  -0.001
H  H14  1  0.88619441  0.74898523  0.37399114  1  0.119058  -0.000499  0.974185  -0.001  0.126681  -0.000422  1.039987  -0.001  0.128594  -0.000313  1.040421  0.0  0.122286  0.125317  -0.000513  1.03971  -0.001
H  H15  1  0.98891556  0.80163385  0.66139951  1  0.092586  5.2e-05  0.960762  0.0  0.103982  3.8e-05  1.020626  0.0  0.10671  3.4e-05  1.020138  0.0  0.099629  0.102172  3.9e-05  1.02077  0.0
H  H16  1  0.01104490  0.19838162  0.33860787  1  0.092536  5.5e-05  0.960764  0.0  0.103931  3.8e-05  1.020624  0.0  0.10667  3.4e-05  1.020081  0.0  0.099629  0.10212  3.9e-05  1.020768  0.0
H  H17  1  0.47388323  0.68339120  0.81274538  1  0.075457  -7e-06  0.962028  0.0  0.085802  -2e-06  1.025396  0.0  0.087497  -2e-06  1.026153  0.0  0.093141  0.084487  0.0  1.025036  0.0
H  H18  1  0.52608372  0.31664410  0.18729699  1  0.075118  -5e-06  0.96207  0.0  0.085517  -2e-06  1.025406  0.0  0.087204  -2e-06  1.026199  0.0  0.093018  0.084266  0.0  1.024968  0.0
H  H19  1  0.74548932  0.49700339  0.70349110  1  0.080891  -7.3e-05  0.950013  0.0  0.094324  -7.1e-05  1.016436  0.0  0.095203  -2.7e-05  1.016051  0.0  0.1141  0.093681  -8e-05  1.016668  0.0
H  H20  1  0.25447319  0.50298059  0.29650167  1  0.081035  -7.7e-05  0.949981  0.0  0.094427  -7e-05  1.016401  0.0  0.095315  -2.7e-05  1.015993  0.0  0.114122  0.093784  -8e-05  1.016634  0.0
H  H21  1  0.76341191  0.68223848  0.80768890  1  0.089459  -3.3e-05  0.905713  0.0  0.107198  -7e-05  0.963969  0.0  0.107565  -4.5e-05  0.963162  0.0  0.119023  0.106845  -4.3e-05  0.964668  0.0
H  H22  1  0.23655660  0.31773413  0.19230447  1  0.089486  -3.2e-05  0.905796  0.0  0.107293  -7.1e-05  0.9639  0.0  0.107614  -4.5e-05  0.963183  0.0  0.119036  0.106936  -4.3e-05  0.964607  0.0
H  H23  1  0.58442833  0.66904058  0.33951809  1  0.113857  -0.000125  0.987835  -0.001  0.115507  -0.000294  1.059471  -0.001  0.118748  -0.00019  1.056872  -0.001  0.115323  0.112981  -0.000374  1.061614  -0.001
H  H24  1  0.41552694  0.33095468  0.66047979  1  0.113779  -0.000122  0.988077  -0.001  0.115422  -0.000294  1.059763  -0.001  0.118653  -0.00019  1.057141  -0.001  0.11535  0.112894  -0.000374  1.061895  -0.001
H  H25  1  0.73122063  0.47825723  0.46520828  1  0.120019  -0.000621  0.959257  -0.001  0.130419  -0.000526  1.018016  -0.001  0.132462  -0.000391  1.018296  0.0  0.121967  0.128981  -0.000626  1.017856  -0.001
H  H26  1  0.26871714  0.52171896  0.53478597  1  0.120133  -0.000617  0.959283  -0.001  0.130416  -0.000526  1.018131  -0.001  0.132528  -0.000391  1.018329  0.0  0.121956  0.128931  -0.000626  1.018025  -0.001
H  H27  1  0.65277593  0.88366629  0.72235768  1  0.0988  -2.8e-05  0.977871  0.0  0.100521  -6.9e-05  1.055096  0.0  0.102373  -2.2e-05  1.051993  0.0  0.129022  0.099042  -0.000109  1.05728  0.0
H  H28  1  0.34718858  0.11632325  0.27764110  1  0.098871  -3.1e-05  0.977806  0.0  0.100526  -6.9e-05  1.055084  0.0  0.102419  -2.2e-05  1.051952  0.0  0.129061  0.099048  -0.00011  1.057272  0.0
C  C29  1  0.86002780  0.11547909  0.54319241  1  -0.00537  0.002701  3.733508  0.001  -0.034233  0.000585  4.000912  0.0  -0.030982  0.00164  4.020989  0.001  -0.003737  -0.035933  -0.000298  3.987054  -0.001
C  C30  1  0.13998812  0.88447376  0.45681813  1  -0.005432  0.002715  3.732969  0.001  -0.034305  0.000585  4.00037  0.0  -0.031047  0.001651  4.020437  0.001  -0.003768  -0.036003  -0.000297  3.986516  -0.001
C  C31  1  0.48128329  0.07860027  0.91315590  1  -0.208368  3.9e-05  3.782549  0.0  -0.212657  4.2e-05  4.051028  0.0  -0.216677  -2e-06  4.064401  0.0  -0.030482  -0.210257  2.5e-05  4.042392  0.0
C  C32  1  0.51885302  0.92144248  0.08684642  1  -0.208546  6.8e-05  3.784059  0.0  -0.212465  4e-05  4.051903  0.0  -0.216327  -2e-06  4.064899  0.0  -0.030547  -0.210077  2.5e-05  4.043286  0.0
C  C33  1  0.00949026  0.41610218  0.83786497  1  -0.036282  -0.001009  3.64699  -0.001  -0.107875  -0.000785  3.905018  -0.001  -0.102476  -0.000594  3.915254  -0.001  -0.043156  -0.111158  -0.000933  3.897764  -0.001
C  C34  1  0.99049111  0.58388284  0.16212615  1  -0.036097  -0.001026  3.647268  -0.001  -0.107751  -0.000785  3.905135  -0.001  -0.102326  -0.000594  3.915268  -0.001  -0.04311  -0.110993  -0.000933  3.897867  -0.001
C  C35  1  0.45966862  0.15368527  0.81342103  1  0.674383  0.000346  3.963626  0.0  0.626587  0.00035  4.273979  0.0  0.660829  0.000266  4.262951  0.0  0.195487  0.603405  0.000389  4.280179  0.0
C  C36  1  0.54040280  0.84632998  0.18655402  1  0.674699  0.000336  3.963485  0.0  0.627049  0.000347  4.2734  0.0  0.661365  0.000266  4.262162  0.0  0.19583  0.60387  0.000389  4.279611  0.0
C  C37  1  0.76273375  0.22862811  0.70112392  1  0.142259  0.009003  3.640446  0.005  0.083539  0.002405  3.911449  0.001  0.098164  0.003934  3.924566  0.002  0.134165  0.073985  0.001482  3.902395  0.0
C  C38  1  0.23724351  0.77138318  0.29885216  1  0.142169  0.009001  3.6406  0.005  0.083452  0.002403  3.911703  0.001  0.098086  0.003931  3.924811  0.002  0.134191  0.073895  0.001479  3.902645  0.0
C  C39  1  0.63178642  0.02391228  0.95394000  1  0.18191  1.1e-05  3.794056  0.0  0.145424  2.1e-05  4.10134  0.0  0.154932  2.9e-05  4.108085  0.0  0.080361  0.138648  3.9e-05  4.09739  0.0
C  C40  1  0.36837326  0.97616504  0.04608788  1  0.182028  -1.3e-05  3.795126  0.0  0.145263  2.3e-05  4.102474  0.0  0.154627  3e-05  4.109611  0.0  0.080108  0.13849  3.9e-05  4.098524  0.0
C  C41  1  0.64994696  0.94582342  0.03776596  1  0.187498  -1.3e-05  3.81424  0.0  0.151572  2.8e-05  4.121916  0.0  0.161778  4.6e-05  4.127603  0.0  0.081555  0.144718  4.9e-05  4.118177  0.0
C  C42  1  0.35019747  0.05425164  0.96226810  1  0.187278  1.2e-05  3.813814  0.0  0.151477  2.8e-05  4.121708  0.0  0.161331  4.6e-05  4.127958  0.0  0.081608  0.144619  4.9e-05  4.117971  0.0
C  C43  1  0.26130315  0.56189584  0.82930742  1  -0.104159  -0.000915  3.726339  -0.001  -0.126421  -0.000299  3.973377  0.0  -0.128  -0.000224  3.994322  0.0  -0.088071  -0.125115  -0.000355  3.95963  0.0
C  C44  1  0.73866904  0.43811391  0.17069958  1  -0.104229  -0.000842  3.72616  -0.001  -0.126568  -0.000297  3.973173  0.0  -0.128152  -0.000222  3.994148  0.0  -0.088087  -0.125249  -0.000355  3.959429  0.0
C  C45  1  0.08616974  0.54010274  0.80479530  1  0.008159  0.000286  3.736605  0.0  0.025737  0.000151  3.974652  0.0  0.023137  0.000219  4.000184  0.0  -0.018658  0.027055  -4.3e-05  3.957594  0.0
C  C46  1  0.91381018  0.45989016  0.19519931  1  0.008003  0.000192  3.736473  0.0  0.025798  0.000147  3.974262  0.0  0.023206  0.000213  3.999805  0.0  -0.018637  0.02712  -4.3e-05  3.957189  0.0
C  C47  1  0.23935234  0.75241771  0.73053167  1  -0.082317  -0.000736  3.790423  -0.001  -0.095072  -0.000224  4.041313  0.0  -0.097413  -0.000162  4.064181  0.0  -0.096835  -0.093303  -0.000325  4.026345  0.0
C  C48  1  0.76061882  0.24761213  0.26949475  1  -0.082681  -0.000668  3.791352  -0.001  -0.095403  -0.000228  4.042252  0.0  -0.097701  -0.00016  4.065017  0.0  -0.096875  -0.093642  -0.000325  4.027315  0.0
C  C49  1  0.98728303  0.21995838  0.62768819  1  -0.064214  -0.004586  3.661556  -0.005  -0.103915  -0.002287  3.913825  -0.003  -0.102821  -0.001977  3.93312  -0.002  -0.000993  -0.104505  -0.002536  3.900529  -0.003
C  C50  1  0.01273925  0.77997633  0.37232209  1  -0.064094  -0.004598  3.661329  -0.005  -0.103786  -0.002287  3.913575  -0.003  -0.102678  -0.001981  3.932824  -0.002  -0.000956  -0.104387  -0.002536  3.900282  -0.003
C  C51  1  0.06476475  0.73309402  0.70806050  1  -0.115989  0.000188  3.757532  0.0  -0.140504  3.7e-05  4.010447  0.0  -0.143005  0.000107  4.03147  0.0  -0.098165  -0.138991  6.3e-05  3.996212  0.0
C  C52  1  0.93519032  0.26690914  0.29193939  1  -0.115857  9.7e-05  3.758045  0.0  -0.140343  4.2e-05  4.01097  0.0  -0.142786  0.000102  4.031868  0.0  -0.098138  -0.138833  6.3e-05  3.996738  0.0
C  C53  1  0.33735921  0.66752713  0.79252706  1  -0.06518  0.000745  3.786531  0.0  -0.077545  0.000135  4.037705  0.0  -0.081904  0.000182  4.063753  0.0  -0.095053  -0.074513  0.000124  4.020188  0.0
C  C54  1  0.66261494  0.33249712  0.20749334  1  -0.064578  0.000637  3.786776  0.0  -0.077037  0.000137  4.038063  0.0  -0.081379  0.000178  4.064068  0.0  -0.094894  -0.074048  0.000124  4.020542  0.0
C  C55  1  0.98648178  0.62836297  0.74496014  1  0.025407  -0.000228  3.714919  0.0  0.038771  -0.000132  3.957179  0.0  0.038257  -9.3e-05  3.980822  0.0  -0.014273  0.039354  -0.00023  3.941124  0.0
C  C56  1  0.01347794  0.37161879  0.25503074  1  0.025707  -0.000172  3.71477  0.0  0.038837  -0.00013  3.957124  0.0  0.038315  -9e-05  3.98078  0.0  -0.014254  0.039418  -0.00023  3.941071  0.0
C  C57  1  0.79698265  0.61354852  0.72389680  1  -0.029078  -0.00098  3.653866  -0.001  -0.098344  -0.000751  3.909937  -0.001  -0.092998  -0.00055  3.919628  -0.001  -0.040959  -0.101898  -0.000868  3.903312  -0.001
C  C58  1  0.20298440  0.38643200  0.27609838  1  -0.029468  -0.00097  3.653913  -0.001  -0.098583  -0.000751  3.909762  -0.001  -0.093263  -0.000549  3.919524  -0.001  -0.041068  -0.102121  -0.000868  3.903106  -0.001
C  C59  1  0.61875310  0.68382163  0.43772088  1  -0.01384  0.00131  3.731231  0.0  -0.041549  -0.000399  4.004961  -0.001  -0.038799  0.000652  4.024021  0.0  -0.006516  -0.043369  -0.001157  3.992447  -0.002
C  C60  1  0.38119879  0.31616687  0.56227722  1  -0.013814  0.001318  3.731607  0.0  -0.041588  -0.000402  4.005383  -0.001  -0.038807  0.000653  4.024437  0.0  -0.006675  -0.043396  -0.001159  3.992846  -0.002
C  C61  1  0.69089988  0.58901090  0.49860763  1  -0.061188  -0.004501  3.667805  -0.005  -0.103498  -0.002414  3.926529  -0.003  -0.101798  -0.002081  3.945483  -0.002  -0.000468  -0.104389  -0.002677  3.913615  -0.003
C  C62  1  0.30904562  0.41097654  0.50138744  1  -0.061374  -0.004528  3.668001  -0.005  -0.103558  -0.002414  3.926715  -0.003  -0.101921  -0.002082  3.945627  -0.002  -0.000412  -0.10441  -0.002678  3.913824  -0.003
C  C63  1  0.65195456  0.79989294  0.63501409  1  0.159901  0.010999  3.645486  0.006  0.101535  0.0036  3.919694  0.002  0.116421  0.005082  3.932939  0.003  0.142031  0.091962  0.0026  3.910583  0.001
C  C64  1  0.34800606  0.20009551  0.36498292  1  0.159784  0.011032  3.64574  0.006  0.101408  0.0036  3.92003  0.002  0.116257  0.005083  3.933248  0.003  0.141926  0.09183  0.002601  3.910931  0.001
N  N65  1  0.72186323  0.12229349  0.59031171  1  -0.329673  -0.077416  3.342123  -0.104  -0.289095  -0.053373  3.654828  -0.075  -0.318462  -0.043565  3.67632  -0.065  -0.372088  -0.270781  -0.059895  3.640772  -0.08
N  N66  1  0.27813134  0.87769720  0.40967292  1  -0.329519  -0.077422  3.341813  -0.104  -0.288911  -0.053378  3.654494  -0.075  -0.318284  -0.043569  3.67599  -0.065  -0.372028  -0.270592  -0.0599  3.640434  -0.08
N  N67  1  0.92343086  0.29026918  0.72670123  1  -0.057016  -0.001095  3.567823  -0.002  0.037828  -0.001068  3.784416  -0.002  0.022838  -0.000566  3.810272  -0.001  -0.242767  0.047801  -0.001479  3.7665  -0.002
N  N68  1  0.07656878  0.70971231  0.27329117  1  -0.057141  -0.00109  3.568285  -0.002  0.037722  -0.001068  3.784883  -0.002  0.022754  -0.000567  3.810681  -0.001  -0.242815  0.047701  -0.001478  3.766951  -0.002
N  N69  1  0.59588986  0.81467873  0.52449721  1  -0.329058  -0.076401  3.334935  -0.102  -0.289794  -0.053412  3.646381  -0.075  -0.318297  -0.043743  3.66699  -0.065  -0.368835  -0.271891  -0.059628  3.633025  -0.08
N  N70  1  0.40407106  0.18531199  0.47549959  1  -0.328948  -0.076412  3.335068  -0.102  -0.289611  -0.053412  3.646432  -0.075  -0.318138  -0.043744  3.66707  -0.065  -0.368733  -0.271709  -0.059627  3.633077  -0.08
N  N71  1  0.71014429  0.66377101  0.62302209  1  -0.067883  -0.000962  3.606081  -0.002  0.026609  -0.00091  3.823694  -0.002  0.011466  -0.000451  3.849727  -0.001  -0.246508  0.036536  -0.00126  3.805944  -0.002
N  N72  1  0.28981574  0.33621292  0.37697534  1  -0.067736  -0.000962  3.606348  -0.002  0.026708  -0.00091  3.8239  -0.002  0.011559  -0.00045  3.849963  -0.001  -0.246436  0.036641  -0.00126  3.806138  -0.002
O  O73  1  0.41721215  0.06265577  0.70369186  1  -0.644316  0.001598  1.931941  0.0  -0.606267  0.00169  2.180525  0.0  -0.631503  0.001879  2.168368  0.0  -0.33078  -0.588245  0.001458  2.18843  0.0
O  O74  1  0.58277758  0.93735549  0.29628037  1  -0.644502  0.001609  1.931786  0.0  -0.606623  0.001685  2.18039  0.0  -0.631837  0.001887  2.168137  0.0  -0.331093  -0.588602  0.001459  2.188311  0.0
O  O75  1  0.49064411  0.29476450  0.84995536  1  -0.615799  -0.000285  1.883001  0.0  -0.576052  -0.000136  2.100128  0.0  -0.598618  -6.6e-05  2.090133  0.0  -0.336129  -0.559565  -0.000225  2.106537  0.0
O  O76  1  0.50939203  0.70524900  0.14999812  1  -0.615937  -0.000285  1.882907  0.0  -0.576311  -0.000133  2.1  0.0  -0.598859  -7.1e-05  2.089919  0.0  -0.336155  -0.559814  -0.000225  2.106406  0.0
F  F77  1  0.76645404  0.04774170  0.91090064  1  -0.182169  1.7e-05  1.201249  0.0  -0.12982  5e-06  1.360263  0.0  -0.136341  6e-06  1.349264  0.0  -0.096313  -0.125074  4e-06  1.367926  0.0
F  F78  1  0.23367573  0.95231831  0.08908474  1  -0.182206  1.6e-05  1.201809  0.0  -0.129647  4e-06  1.360761  0.0  -0.136222  5e-06  1.349817  0.0  -0.095991  -0.1249  3e-06  1.368421  0.0
F  F79  1  0.80083303  0.89441517  0.07382004  1  -0.182002  1.2e-05  1.188316  0.0  -0.132154  2.3e-05  1.343527  0.0  -0.139606  1.6e-05  1.33402  0.0  -0.102515  -0.127581  3.1e-05  1.351013  0.0
F  F80  1  0.19930145  0.10563166  0.92621435  1  -0.181847  1.4e-05  1.188497  0.0  -0.132072  2.1e-05  1.343769  0.0  -0.138236  1.6e-05  1.3328  0.0  -0.102535  -0.127499  3.1e-05  1.351261  0.0
