# generated using pymatgen
data_AgH6C3N7O3
_symmetry_space_group_name_H-M   'P 1'
_cell_length_a   6.78691182
_cell_length_b   10.31689313
_cell_length_c   11.58626280
_cell_angle_alpha   89.99966248
_cell_angle_beta   89.99993922
_cell_angle_gamma   101.37082334
_symmetry_Int_Tables_number   1
_chemical_formula_structural   AgH6C3N7O3
_chemical_formula_sum   'Ag4 H24 C12 N28 O12'
_cell_volume   795.34449525
_cell_formula_units_Z   4
loop_
 _symmetry_equiv_pos_site_id
 _symmetry_equiv_pos_as_xyz
  1  'x, y, z'
loop_
 _atom_site_type_symbol
 _atom_site_label
 _atom_site_symmetry_multiplicity
 _atom_site_fract_x
 _atom_site_fract_y
 _atom_site_fract_z
 _atom_site_occupancy
 _atom_site_hle17_bader_spin_density
 _atom_site_hle17_ddec_charge
 _atom_site_hle17_ddec_spin_density
 _atom_site_hle17_ddec_sum_bond_order
 _atom_site_hle17_magmom
 _atom_site_hse06_10hf_bader_spin_density
 _atom_site_hse06_10hf_ddec_charge
 _atom_site_hse06_10hf_ddec_spin_density
 _atom_site_hse06_10hf_ddec_sum_bond_order
 _atom_site_hse06_10hf_magmom
 _atom_site_hse06_bader_spin_density
 _atom_site_hse06_ddec_charge
 _atom_site_hse06_ddec_spin_density
 _atom_site_hse06_ddec_sum_bond_order
 _atom_site_hse06_magmom
 _atom_site_pbe_bader_spin_density
 _atom_site_pbe_cm5_charge
 _atom_site_pbe_ddec_charge
 _atom_site_pbe_ddec_spin_density
 _atom_site_pbe_ddec_sum_bond_order
 _atom_site_pbe_magmom
Ag  Ag0  1  0.78118912  0.09980027  0.62356293  1  0  0.58003  0  1.310422  0  0  0.444041  0  1.724228  0  0  0.475833  0  1.680633  0  0  0.468971  0.421444  0  1.755004  0
Ag  Ag1  1  0.71880105  0.40020335  0.12356229  1  0  0.580037  0  1.310527  0  0  0.444037  0  1.724348  0  0  0.475826  0  1.680752  0  0  0.468973  0.421439  0  1.755125  0
Ag  Ag2  1  0.21880968  0.90020142  0.37643734  1  0  0.580066  0  1.310516  0  0  0.444038  0  1.724321  0  0  0.475818  0  1.680725  0  0  0.468979  0.421442  0  1.755094  0
Ag  Ag3  1  0.28118684  0.59979637  0.87643885  1  0  0.58003  0  1.310406  0  0  0.444025  0  1.724188  0  0  0.475814  0  1.680592  0  0  0.46897  0.42143  0  1.754966  0
H  H4  1  0.99884374  0.93661800  0.90925505  1  0  0.335037  0  0.92133  0  0  0.311401  0  0.989966  0  0  0.320528  0  0.982378  0  0  0.295038  0.304851  0  0.995628  0
H  H5  1  0.50115392  0.56338470  0.40925630  1  0  0.334981  0  0.921381  0  0  0.311367  0  0.989966  0  0  0.320487  0  0.982392  0  0  0.295042  0.304819  0  0.99563  0
H  H6  1  0.00115563  0.06337578  0.09074523  1  0  0.335033  0  0.921292  0  0  0.311427  0  0.989851  0  0  0.320546  0  0.98228  0  0  0.295069  0.304879  0  0.99551  0
H  H7  1  0.49884783  0.43662194  0.59074397  1  0  0.335011  0  0.921406  0  0  0.311421  0  0.989938  0  0  0.320543  0  0.982364  0  0  0.295068  0.304872  0  0.995601  0
H  H8  1  0.99212477  0.95751061  0.75702472  1  0  0.32478  0  0.930582  0  0  0.300488  0  1.007132  0  0  0.309167  0  0.998787  0  0  0.291957  0.294256  0  1.013201  0
H  H9  1  0.50787584  0.54249120  0.25702953  1  0  0.324829  0  0.930583  0  0  0.300534  0  1.007132  0  0  0.309215  0  0.998785  0  0  0.292008  0.294299  0  1.013206  0
H  H10  1  0.00787579  0.04248219  0.24297383  1  0  0.324891  0  0.930325  0  0  0.300591  0  1.0069  0  0  0.309271  0  0.998552  0  0  0.292008  0.294358  0  1.01297  0
H  H11  1  0.49212651  0.45751742  0.74297679  1  0  0.32484  0  0.930419  0  0  0.300553  0  1.00698  0  0  0.309233  0  0.998633  0  0  0.291983  0.294319  0  1.013059  0
H  H12  1  0.15884765  0.30426771  0.14091949  1  0  0.349689  0  0.875556  0  0  0.33328  0  0.933262  0  0  0.340248  0  0.927794  0  0  0.313309  0.32844  0  0.937004  0
H  H13  1  0.34114384  0.19573460  0.64092045  1  0  0.349707  0  0.87552  0  0  0.333307  0  0.933209  0  0  0.340276  0  0.92774  0  0  0.313308  0.328465  0  0.936958  0
H  H14  1  0.84115203  0.69573200  0.85907906  1  0  0.349717  0  0.875527  0  0  0.333306  0  0.933231  0  0  0.340275  0  0.927764  0  0  0.313303  0.328466  0  0.936972  0
H  H15  1  0.65885438  0.80427501  0.35908155  1  0  0.349739  0  0.875523  0  0  0.333324  0  0.933239  0  0  0.340293  0  0.927769  0  0  0.313315  0.328485  0  0.936975  0
H  H16  1  0.20233271  0.46145093  0.08030849  1  0  0.336726  0  0.914789  0  0  0.315705  0  0.984802  0  0  0.323387  0  0.978025  0  0  0.299595  0.310259  0  0.989637  0
H  H17  1  0.29765576  0.03854589  0.58031376  1  0  0.336713  0  0.914717  0  0  0.315737  0  0.984699  0  0  0.323416  0  0.977924  0  0  0.29958  0.31029  0  0.989538  0
H  H18  1  0.79766401  0.53854385  0.91968747  1  0  0.336712  0  0.914727  0  0  0.315671  0  0.984776  0  0  0.323352  0  0.978002  0  0  0.29956  0.310222  0  0.989625  0
H  H19  1  0.70233449  0.96145680  0.41969083  1  0  0.336738  0  0.914724  0  0  0.315771  0  0.98468  0  0  0.323449  0  0.977905  0  0  0.299598  0.310321  0  0.989529  0
H  H20  1  0.02331809  0.51289200  0.69597372  1  0  0.335255  0  0.920405  0  0  0.312362  0  0.994078  0  0  0.321396  0  0.984966  0  0  0.295707  0.305929  0  1.00053  0
H  H21  1  0.47668975  0.98711301  0.19597763  1  0  0.335239  0  0.92041  0  0  0.312325  0  0.994099  0  0  0.321361  0  0.984983  0  0  0.295682  0.305892  0  1.000549  0
H  H22  1  0.97668512  0.48709980  0.30402569  1  0  0.335186  0  0.920424  0  0  0.312307  0  0.994078  0  0  0.321342  0  0.984966  0  0  0.295678  0.305873  0  1.000532  0
H  H23  1  0.52330641  0.01289461  0.80402696  1  0  0.335209  0  0.920448  0  0  0.312305  0  0.994148  0  0  0.32134  0  0.985036  0  0  0.295674  0.305872  0  1.0006  0
H  H24  1  0.96511068  0.37190829  0.60852367  1  0  0.345581  0  0.914865  0  0  0.326529  0  0.97833  0  0  0.334779  0  0.970606  0  0  0.30264  0.320691  0  0.983848  0
H  H25  1  0.53490106  0.12809346  0.10852715  1  0  0.345633  0  0.914804  0  0  0.326479  0  0.978389  0  0  0.334727  0  0.970667  0  0  0.302645  0.320641  0  0.983905  0
H  H26  1  0.03489577  0.62808451  0.39147747  1  0  0.345565  0  0.91485  0  0  0.326547  0  0.978273  0  0  0.334794  0  0.970553  0  0  0.302645  0.320711  0  0.983789  0
H  H27  1  0.46510098  0.87190923  0.89147658  1  0  0.345551  0  0.914881  0  0  0.326468  0  0.978379  0  0  0.334715  0  0.97066  0  0  0.30264  0.32063  0  0.983893  0
C  C28  1  0.02533540  0.12743820  0.85236596  1  0  0.699746  0  3.847423  0  0  0.642198  0  4.133999  0  0  0.673695  0  4.136854  0  0  0.344428  0.620971  0  4.131295  0
C  C29  1  0.47465912  0.37257051  0.35236702  1  0  0.699454  0  3.847608  0  0  0.642024  0  4.134056  0  0  0.673524  0  4.136916  0  0  0.344343  0.620802  0  4.131349  0
C  C30  1  0.97466813  0.87256943  0.14763604  1  0  0.699661  0  3.847807  0  0  0.642133  0  4.134356  0  0  0.673634  0  4.137213  0  0  0.344436  0.620914  0  4.131645  0
C  C31  1  0.52534058  0.62743910  0.64763411  1  0  0.69983  0  3.847225  0  0  0.642269  0  4.133855  0  0  0.673763  0  4.136712  0  0  0.344525  0.621051  0  4.13115  0
C  C32  1  0.10542577  0.30931915  0.96735422  1  0  0.687604  0  3.876455  0  0  0.628216  0  4.167244  0  0  0.65909  0  4.170843  0  0  0.339148  0.607311  0  4.164087  0
C  C33  1  0.39456859  0.19067984  0.46735283  1  0  0.68762  0  3.876647  0  0  0.628255  0  4.167359  0  0  0.659128  0  4.170959  0  0  0.339229  0.607348  0  4.164199  0
C  C34  1  0.89457477  0.69066870  0.03263915  1  0  0.687471  0  3.876935  0  0  0.628159  0  4.167604  0  0  0.65904  0  4.171203  0  0  0.339149  0.607272  0  4.164418  0
C  C35  1  0.60542286  0.80932680  0.53264485  1  0  0.687401  0  3.877149  0  0  0.628042  0  4.167891  0  0  0.658914  0  4.171493  0  0  0.339117  0.607146  0  4.16472  0
C  C36  1  0.03493379  0.33530390  0.77553478  1  0  0.688805  0  3.857215  0  0  0.631271  0  4.136395  0  0  0.662392  0  4.141669  0  0  0.33962  0.610153  0  4.132  0
C  C37  1  0.46506455  0.16469745  0.27553434  1  0  0.688856  0  3.85727  0  0  0.631243  0  4.136482  0  0  0.66236  0  4.141758  0  0  0.339635  0.610113  0  4.132091  0
C  C38  1  0.96507177  0.66468593  0.22447154  1  0  0.688952  0  3.857325  0  0  0.631472  0  4.136414  0  0  0.662596  0  4.141687  0  0  0.339776  0.610362  0  4.132007  0
C  C39  1  0.53492570  0.83530524  0.72446507  1  0  0.688767  0  3.857532  0  0  0.631281  0  4.136626  0  0  0.662402  0  4.141894  0  0  0.339608  0.610151  0  4.132249  0
N  N40  1  0.99317556  0.20234805  0.75954864  1  0  -0.651626  0  3.118523  0  0  -0.572145  0  3.416747  0  0  -0.603541  0  3.421174  0  0  -0.386416  -0.550504  0  3.413056  0
N  N41  1  0.50682174  0.29765065  0.25954867  1  0  -0.651477  0  3.118433  0  0  -0.572033  0  3.416635  0  0  -0.603427  0  3.421063  0  0  -0.386385  -0.550394  0  3.412946  0
N  N42  1  0.00682499  0.79764475  0.24044905  1  0  -0.651549  0  3.118498  0  0  -0.572071  0  3.416664  0  0  -0.603467  0  3.421091  0  0  -0.386383  -0.550451  0  3.412982  0
N  N43  1  0.49317560  0.70235599  0.74044902  1  0  -0.651566  0  3.118649  0  0  -0.572082  0  3.416831  0  0  -0.603467  0  3.421248  0  0  -0.386374  -0.550458  0  3.413162  0
N  N44  1  0.07147492  0.17731021  0.95880135  1  0  -0.615142  0  2.962398  0  0  -0.559639  0  3.222992  0  0  -0.585779  0  3.228086  0  0  -0.353739  -0.541944  0  3.219206  0
N  N45  1  0.42851682  0.32268983  0.45880356  1  0  -0.61509  0  2.962381  0  0  -0.559676  0  3.222952  0  0  -0.585836  0  3.228066  0  0  -0.353813  -0.541972  0  3.219141  0
N  N46  1  0.92852653  0.82268555  0.04119893  1  0  -0.615078  0  2.962222  0  0  -0.559621  0  3.222828  0  0  -0.585785  0  3.227936  0  0  -0.353757  -0.541932  0  3.219029  0
N  N47  1  0.57147905  0.67732175  0.54120017  1  0  -0.615116  0  2.962644  0  0  -0.559644  0  3.22328  0  0  -0.585794  0  3.228383  0  0  -0.3538  -0.54195  0  3.219488  0
N  N48  1  0.10226429  0.39348976  0.87718170  1  0  -0.648501  0  3.146725  0  0  -0.564581  0  3.442015  0  0  -0.596608  0  3.44793  0  0  -0.387751  -0.542338  0  3.437082  0
N  N49  1  0.39772599  0.10650493  0.37717989  1  0  -0.648712  0  3.146851  0  0  -0.564699  0  3.442063  0  0  -0.596707  0  3.447958  0  0  -0.387803  -0.542441  0  3.437117  0
N  N50  1  0.89773774  0.60650304  0.12281685  1  0  -0.648709  0  3.146691  0  0  -0.564877  0  3.442015  0  0  -0.596909  0  3.447929  0  0  -0.387908  -0.542629  0  3.43706  0
N  N51  1  0.60225512  0.89349182  0.62281780  1  0  -0.648409  0  3.14695  0  0  -0.564551  0  3.442251  0  0  -0.596577  0  3.448167  0  0  -0.387717  -0.542304  0  3.437314  0
N  N52  1  0.00827851  0.99752439  0.83791642  1  0  -0.678563  0  3.102062  0  0  -0.635169  0  3.345667  0  0  -0.657532  0  3.33795  0  0  -0.571035  -0.619671  0  3.351073  0
N  N53  1  0.49171816  0.50247368  0.33791940  1  0  -0.678398  0  3.102525  0  0  -0.635043  0  3.346078  0  0  -0.657401  0  3.338369  0  0  -0.570977  -0.619552  0  3.351489  0
N  N54  1  0.99172056  0.00245852  0.16208127  1  0  -0.678566  0  3.102374  0  0  -0.635189  0  3.345972  0  0  -0.657548  0  3.338261  0  0  -0.571077  -0.619695  0  3.351376  0
N  N55  1  0.50828890  0.49753592  0.66208260  1  0  -0.678589  0  3.102021  0  0  -0.635218  0  3.345629  0  0  -0.657579  0  3.337918  0  0  -0.5711  -0.619723  0  3.351043  0
N  N56  1  0.14289021  0.36309318  0.07277053  1  0  -0.696011  0  3.106071  0  0  -0.65606  0  3.358164  0  0  -0.676376  0  3.348883  0  0  -0.576428  -0.641935  0  3.364241  0
N  N57  1  0.35710154  0.13690467  0.57277007  1  0  -0.695974  0  3.105993  0  0  -0.656104  0  3.358014  0  0  -0.676419  0  3.348732  0  0  -0.576448  -0.641985  0  3.364096  0
N  N58  1  0.85712126  0.63690654  0.92723233  1  0  -0.695918  0  3.10641  0  0  -0.656001  0  3.358561  0  0  -0.676318  0  3.349284  0  0  -0.576353  -0.641885  0  3.36463  0
N  N59  1  0.64288813  0.86310098  0.42722935  1  0  -0.69604  0  3.106124  0  0  -0.656156  0  3.358167  0  0  -0.676468  0  3.348886  0  0  -0.576451  -0.642034  0  3.364244  0
N  N60  1  0.00733000  0.41272084  0.68707638  1  0  -0.682184  0  3.097641  0  0  -0.64245  0  3.336455  0  0  -0.663794  0  3.32854  0  0  -0.572646  -0.627679  0  3.341727  0
N  N61  1  0.49267840  0.08727916  0.18707805  1  0  -0.682226  0  3.097588  0  0  -0.642335  0  3.336454  0  0  -0.66368  0  3.328544  0  0  -0.572657  -0.627564  0  3.341725  0
N  N62  1  0.99267380  0.58727789  0.31291785  1  0  -0.682109  0  3.097965  0  0  -0.64241  0  3.336677  0  0  -0.663754  0  3.328769  0  0  -0.572656  -0.627645  0  3.341943  0
N  N63  1  0.50731745  0.91272253  0.81292395  1  0  -0.682161  0  3.097693  0  0  -0.642387  0  3.336486  0  0  -0.663733  0  3.328577  0  0  -0.572652  -0.62761  0  3.341756  0
N  N64  1  0.93236853  0.23319479  0.39127970  1  0  0.707692  0  4.115896  0  0  0.746476  0  4.394126  0  0  0.775299  0  4.400899  0  0  0.100562  0.727206  0  4.388782  0
N  N65  1  0.56763858  0.26680296  0.89127875  1  0  0.707729  0  4.115999  0  0  0.746434  0  4.394287  0  0  0.775259  0  4.401061  0  0  0.100587  0.727165  0  4.388941  0
N  N66  1  0.06763321  0.76680196  0.60871885  1  0  0.707614  0  4.1159  0  0  0.746456  0  4.394041  0  0  0.775278  0  4.40082  0  0  0.100525  0.727191  0  4.388694  0
N  N67  1  0.43236699  0.73319676  0.10872067  1  0  0.707688  0  4.115825  0  0  0.746323  0  4.394214  0  0  0.775152  0  4.400981  0  0  0.100495  0.727049  0  4.388874  0
O  O68  1  0.00630860  0.30051759  0.30538414  1  0  -0.456581  0  1.79726  0  0  -0.444123  0  2.010667  0  0  -0.459588  0  2.00469  0  0  -0.173423  -0.433576  0  2.014993  0
O  O69  1  0.49369994  0.19947860  0.80538153  1  0  -0.456601  0  1.797024  0  0  -0.444138  0  2.010511  0  0  -0.459608  0  2.004542  0  0  -0.173443  -0.433586  0  2.014834  0
O  O70  1  0.99369815  0.69947619  0.69461441  1  0  -0.456565  0  1.797222  0  0  -0.444119  0  2.010614  0  0  -0.45959  0  2.004646  0  0  -0.173426  -0.433571  0  2.014933  0
O  O71  1  0.50630594  0.80052211  0.19461788  1  0  -0.456588  0  1.796974  0  0  -0.444074  0  2.010429  0  0  -0.459546  0  2.004458  0  0  -0.173405  -0.433527  0  2.014757  0
O  O72  1  0.93192851  0.10986046  0.39566366  1  0  -0.493191  0  1.836423  0  0  -0.474214  0  2.06476  0  0  -0.491393  0  2.05658  0  0  -0.183823  -0.462383  0  2.070543  0
O  O73  1  0.56807475  0.39013430  0.89566293  1  0  -0.49318  0  1.836628  0  0  -0.474165  0  2.064975  0  0  -0.49134  0  2.056788  0  0  -0.183781  -0.462324  0  2.070755  0
O  O74  1  0.06807500  0.89013728  0.60433834  1  0  -0.493133  0  1.836467  0  0  -0.474176  0  2.064764  0  0  -0.491362  0  2.056593  0  0  -0.183767  -0.462332  0  2.07051  0
O  O75  1  0.43193083  0.60986542  0.10433821  1  0  -0.49317  0  1.836497  0  0  -0.474165  0  2.064877  0  0  -0.49135  0  2.056702  0  0  -0.183787  -0.462313  0  2.070642  0
O  O76  1  0.85560864  0.28727620  0.47405692  1  0  -0.469166  0  1.829834  0  0  -0.443602  0  2.045799  0  0  -0.46121  0  2.038299  0  0  -0.185724  -0.431498  0  2.051029  0
O  O77  1  0.64439785  0.21271996  0.97405448  1  0  -0.46922  0  1.829905  0  0  -0.443578  0  2.045862  0  0  -0.461181  0  2.038356  0  0  -0.185765  -0.431479  0  2.051095  0
O  O78  1  0.14438780  0.71272252  0.52593990  1  0  -0.469134  0  1.82978  0  0  -0.443594  0  2.045714  0  0  -0.46118  0  2.03819  0  0  -0.185734  -0.431499  0  2.05095  0
O  O79  1  0.35560919  0.78727975  0.02594407  1  0  -0.469175  0  1.829888  0  0  -0.443514  0  2.045851  0  0  -0.461115  0  2.038342  0  0  -0.185726  -0.431415  0  2.051084  0
