# generated using pymatgen
data_CoH20C24S(N2O)4
_symmetry_space_group_name_H-M   'P 1'
_cell_length_a   10.19560674
_cell_length_b   14.15525378
_cell_length_c   20.54211697
_cell_angle_alpha   89.99887576
_cell_angle_beta   90.00144841
_cell_angle_gamma   98.35041151
_symmetry_Int_Tables_number   1
_chemical_formula_structural   CoH20C24S(N2O)4
_chemical_formula_sum   'Co4 H80 C96 S4 N32 O16'
_cell_volume   2933.23686622
_cell_formula_units_Z   4
loop_
 _symmetry_equiv_pos_site_id
 _symmetry_equiv_pos_as_xyz
  1  'x, y, z'
loop_
 _atom_site_type_symbol
 _atom_site_label
 _atom_site_symmetry_multiplicity
 _atom_site_fract_x
 _atom_site_fract_y
 _atom_site_fract_z
 _atom_site_occupancy
 _atom_site_pbe_bader_charge
 _atom_site_pbe_bader_spin_density
 _atom_site_pbe_cm5_charge
 _atom_site_pbe_ddec_charge
 _atom_site_pbe_ddec_spin_density
 _atom_site_pbe_ddec_sum_bond_order
 _atom_site_pbe_magmom
Co  Co0  1  0.15038444  0.78572682  0.47829879  1  1.234849  2.575887  0.680995  0.741276  2.806259  2.655179  2.554
Co  Co1  1  0.34963405  0.71426388  0.97829961  1  1.234886  2.575949  0.680862  0.741246  2.806275  2.655016  2.554
Co  Co2  1  0.84962445  0.21428136  0.52169446  1  1.235058  2.575844  0.680988  0.741197  2.80623  2.655173  2.554
Co  Co3  1  0.65035188  0.28573701  0.02169461  1  1.234873  2.575906  0.680833  0.741212  2.806231  2.655067  2.554
H  H4  1  0.17670659  0.56489974  0.49538048  1  0.120066  0.000881  0.124341  0.121348  0.000193  0.991976  0.0
H  H5  1  0.32329366  0.93510398  0.99537652  1  0.120502  0.000881  0.12429  0.121305  0.000193  0.991984  0.0
H  H6  1  0.82336408  0.43510314  0.50463516  1  0.12136  0.000882  0.124338  0.121406  0.000193  0.991865  0.0
H  H7  1  0.67665282  0.06490093  0.00462842  1  0.121445  0.000881  0.124353  0.121416  0.000193  0.99187  0.0
H  H8  1  0.05341636  0.45508792  0.59368094  1  0.213494  0.00095  0.122576  0.13314  0.000494  1.084629  0.0
H  H9  1  0.44658507  0.04491642  0.09367831  1  0.213414  0.00095  0.122626  0.133222  0.000494  1.084544  0.0
H  H10  1  0.94664312  0.54492844  0.40633276  1  0.213349  0.00095  0.122619  0.133163  0.000494  1.08471  0.0
H  H11  1  0.55338948  0.95508654  0.90632273  1  0.213578  0.000952  0.122542  0.13315  0.000495  1.084395  0.0
H  H12  1  0.01934652  0.74778995  0.62646650  1  0.140087  0.000334  0.135162  0.09948  -0.000122  1.00465  0.0
H  H13  1  0.48063146  0.75220600  0.12647462  1  0.14063  0.000334  0.135173  0.099414  -0.000122  1.004714  0.0
H  H14  1  0.98059830  0.25221139  0.37351068  1  0.140766  0.000334  0.135172  0.099385  -0.000122  1.00495  0.0
H  H15  1  0.51937886  0.24779934  0.87351911  1  0.140396  0.000334  0.135298  0.099654  -0.000122  1.005013  0.0
H  H16  1  0.96093732  0.41535546  0.67581861  1  0.154611  0.000386  0.112223  0.136801  0.000236  1.028888  0.0
H  H17  1  0.53904163  0.08465071  0.17581523  1  0.154792  0.000386  0.112232  0.136779  0.000236  1.028879  0.0
H  H18  1  0.03904679  0.58464614  0.32418097  1  0.154967  0.000386  0.112246  0.136751  0.000236  1.028885  0.0
H  H19  1  0.46096637  0.91536317  0.82418580  1  0.154674  0.000386  0.112204  0.136705  0.000236  1.028813  0.0
H  H20  1  0.86175950  0.36826596  0.78118428  1  0.055628  -0.000177  0.108955  0.112061  -0.000181  0.997264  0.0
H  H21  1  0.63823035  0.13174348  0.28117809  1  0.055466  -0.000178  0.108968  0.112005  -0.000181  0.9971  0.0
H  H22  1  0.13824915  0.63173580  0.21881774  1  0.055623  -0.000177  0.108935  0.112069  -0.000181  0.997163  0.0
H  H23  1  0.36176980  0.86827035  0.71882490  1  0.055642  -0.000177  0.108951  0.11202  -0.000181  0.997342  0.0
H  H24  1  0.83683323  0.66385500  0.82631865  1  0.147085  6.8e-05  0.11558  0.141362  2.3e-05  1.005902  0.0
H  H25  1  0.66315975  0.83615876  0.32633288  1  0.147874  6.8e-05  0.115596  0.141379  2.3e-05  1.005931  0.0
H  H26  1  0.16317485  0.33614889  0.17368482  1  0.14713  6.8e-05  0.115546  0.141288  2.3e-05  1.006039  0.0
H  H27  1  0.33681859  0.16384351  0.67366962  1  0.147453  6.8e-05  0.115596  0.14129  2.3e-05  1.005828  0.0
H  H28  1  0.93655658  0.71141732  0.72132928  1  0.053434  9e-06  0.105274  0.109599  3e-06  1.021061  0.0
H  H29  1  0.56341980  0.78858885  0.22134973  1  0.053766  9e-06  0.105266  0.109583  3e-06  1.020959  0.0
H  H30  1  0.06344483  0.28857726  0.27867127  1  0.05358  9e-06  0.105287  0.109627  3e-06  1.02095  0.0
H  H31  1  0.43654442  0.21142688  0.77865618  1  0.053773  9e-06  0.105302  0.109557  3e-06  1.021052  0.0
H  H32  1  0.81552480  0.33600094  0.88077521  1  0.127451  0.000241  0.131558  0.092226  -0.000396  1.018605  0.0
H  H33  1  0.68442662  0.16400659  0.38078814  1  0.126746  0.000242  0.131531  0.092226  -0.000395  1.018638  0.0
H  H34  1  0.18443411  0.66399193  0.11921220  1  0.127124  0.000242  0.131547  0.092291  -0.000394  1.018609  0.0
H  H35  1  0.31559548  0.83599882  0.61920705  1  0.126827  0.00024  0.131513  0.092151  -0.000396  1.018555  0.0
H  H36  1  0.62620972  0.50565356  0.00870843  1  0.117708  0.00093  0.124593  0.126221  0.000148  0.995847  0.001
H  H37  1  0.87384130  0.99438454  0.50870331  1  0.117936  0.00093  0.1246  0.126074  0.000148  0.99608  0.001
H  H38  1  0.37380389  0.49434324  0.99129651  1  0.117592  0.000931  0.124632  0.126302  0.000149  0.995842  0.001
H  H39  1  0.12617284  0.00563580  0.49129042  1  0.11763  0.00093  0.124641  0.126195  0.000149  0.995868  0.001
H  H40  1  0.71717665  0.61689648  0.90347093  1  0.206658  0.000783  0.121581  0.135417  0.000405  1.088005  0.0
H  H41  1  0.78286116  0.88313643  0.40347336  1  0.206373  0.000783  0.121532  0.135331  0.000405  1.088116  0.0
H  H42  1  0.28284934  0.38311395  0.09653692  1  0.206701  0.000783  0.121571  0.135411  0.000405  1.088041  0.0
H  H43  1  0.21712799  0.11686591  0.59652914  1  0.206388  0.000782  0.121585  0.135414  0.000405  1.088199  0.0
H  H44  1  0.00582736  0.87699086  0.35344597  1  0.189644  0.000384  0.134623  0.109263  -0.000185  1.035768  0.0
H  H45  1  0.49418944  0.62299353  0.85344448  1  0.189473  0.000383  0.134595  0.109169  -0.000186  1.035877  0.0
H  H46  1  0.99417194  0.12302367  0.64656383  1  0.189637  0.000384  0.134585  0.109225  -0.000185  1.035828  0.0
H  H47  1  0.50581074  0.37695826  0.14658626  1  0.19014  0.000384  0.134501  0.109199  -0.000185  1.035749  0.0
H  H48  1  0.37605619  0.04053426  0.30572615  1  0.127374  0.000818  0.114377  0.114829  0.000321  1.047856  0.0
H  H49  1  0.12395968  0.45943732  0.80574907  1  0.127696  0.000817  0.11435  0.114771  0.000321  1.047799  0.0
H  H50  1  0.62394121  0.95949096  0.69427148  1  0.126917  0.000817  0.114384  0.11486  0.000321  1.048027  0.0
H  H51  1  0.87605403  0.54050813  0.19426267  1  0.127299  0.000817  0.11434  0.114796  0.000321  1.047971  0.0
H  H52  1  0.40436732  0.92856565  0.41529567  1  0.095589  0.000806  0.116997  0.114398  9.5e-05  1.000293  0.0
H  H53  1  0.09564975  0.57142939  0.91530257  1  0.095728  0.000806  0.116874  0.114311  9.5e-05  1.000373  0.0
H  H54  1  0.59564112  0.07144538  0.58469418  1  0.095457  0.000806  0.116979  0.114357  9.5e-05  1.000205  0.0
H  H55  1  0.90431767  0.42855141  0.08468630  1  0.095632  0.000807  0.116961  0.11427  9.5e-05  1.000487  0.0
H  H56  1  0.95507268  0.05615784  0.31819088  1  0.084843  -1.7e-05  0.105901  0.112645  -6.4e-05  1.024883  0.0
H  H57  1  0.54493313  0.44382230  0.81819404  1  0.084622  -1.8e-05  0.105885  0.112525  -6.4e-05  1.024973  0.0
H  H58  1  0.04492851  0.94386668  0.68180529  1  0.085164  -1.7e-05  0.105902  0.112621  -6.4e-05  1.024865  0.0
H  H59  1  0.45507837  0.55611673  0.18182014  1  0.085296  -1.7e-05  0.105929  0.112691  -6.4e-05  1.024933  0.0
H  H60  1  0.86145612  0.13745960  0.22603566  1  0.07899  -0.000175  0.100348  0.097477  -0.000212  1.044739  0.0
H  H61  1  0.63856830  0.36255566  0.72603379  1  0.079115  -0.000175  0.100368  0.097501  -0.000212  1.044848  0.0
H  H62  1  0.13855872  0.86255931  0.77395808  1  0.079081  -0.000175  0.10033  0.097465  -0.000212  1.044504  0.0
H  H63  1  0.36144155  0.63741616  0.27396579  1  0.079165  -0.000175  0.100314  0.097429  -0.000212  1.044632  0.0
H  H64  1  0.17444708  0.06660930  0.10100629  1  0.17887  6.9e-05  0.114115  0.128899  2.7e-05  1.031059  0.0
H  H65  1  0.32554046  0.43340262  0.60100627  1  0.178947  6.9e-05  0.114048  0.128768  2.7e-05  1.031063  0.0
H  H66  1  0.82554631  0.93338951  0.89898939  1  0.178879  6.9e-05  0.114084  0.128822  2.7e-05  1.031061  0.0
H  H67  1  0.67446856  0.56660627  0.39900548  1  0.178586  6.9e-05  0.114012  0.128681  2.7e-05  1.031172  0.0
H  H68  1  0.26516051  0.98523597  0.19311381  1  0.086462  3e-05  0.104408  0.108183  -1e-05  1.029284  0.0
H  H69  1  0.23483383  0.51475065  0.69312370  1  0.086038  3e-05  0.104482  0.108191  -1e-05  1.029551  0.0
H  H70  1  0.73484316  0.01477574  0.80688723  1  0.086351  3e-05  0.10446  0.108157  -1e-05  1.02941  0.0
H  H71  1  0.76515660  0.48521176  0.30690557  1  0.086153  3e-05  0.10442  0.1082  -1e-05  1.029453  0.0
H  H72  1  0.76239214  0.17308480  0.13966834  1  0.128424  0.000392  0.136265  0.107448  -0.000179  1.011918  0.0
H  H73  1  0.73759063  0.32689943  0.63967792  1  0.128311  0.000392  0.136324  0.107546  -0.000179  1.0118  0.0
H  H74  1  0.23759502  0.82690184  0.86031420  1  0.128331  0.000392  0.136307  0.107463  -0.00018  1.011735  0.0
H  H75  1  0.26241423  0.67306664  0.36032312  1  0.127958  0.000392  0.136342  0.107455  -0.000179  1.011974  0.0
H  H76  1  0.95506069  0.26477438  0.96498064  1  0.078496  0.000787  0.116223  0.106556  0.000219  1.00912  0.0
H  H77  1  0.54495369  0.23527364  0.46497481  1  0.079227  0.000788  0.116229  0.106516  0.00022  1.009217  0.0
H  H78  1  0.04494681  0.73523165  0.03500628  1  0.078967  0.000786  0.11622  0.106568  0.000219  1.009125  0.0
H  H79  1  0.45506156  0.76474741  0.53501309  1  0.078959  0.000788  0.116267  0.106565  0.00022  1.009286  0.0
H  H80  1  0.12586391  0.17088777  0.03690818  1  0.252067  0.00071  0.125082  0.144305  0.000297  1.061997  0.001
H  H81  1  0.37414869  0.32916505  0.53689948  1  0.252111  0.00071  0.125083  0.144223  0.000297  1.061925  0.001
H  H82  1  0.87414084  0.82912965  0.96308360  1  0.252003  0.00071  0.125124  0.144404  0.000297  1.061815  0.001
H  H83  1  0.62587794  0.67085394  0.46309620  1  0.251881  0.00071  0.125098  0.144275  0.000297  1.061792  0.001
C  C84  1  0.12854773  0.58729243  0.53847539  1  0.455324  0.001463  0.00835  -0.002019  0.000181  3.971163  0.001
C  C85  1  0.37145003  0.91270218  0.03847219  1  0.4547  0.001462  0.00838  -0.00194  0.00018  3.971219  0.001
C  C86  1  0.87149084  0.41270668  0.46153538  1  0.453632  0.001462  0.008264  -0.001957  0.000179  3.971646  0.001
C  C87  1  0.62851413  0.08730285  0.96153372  1  0.453585  0.001458  0.008297  -0.001948  0.000177  3.971689  0.001
C  C88  1  0.06947840  0.53201347  0.58769331  1  0.21249  0.002952  0.001294  -0.096665  0.001593  3.875642  0.002
C  C89  1  0.43051751  0.96798922  0.08769301  1  0.21242  0.002955  0.001245  -0.096889  0.001595  3.875515  0.002
C  C90  1  0.93055517  0.46799558  0.41231795  1  0.212454  0.002954  0.001191  -0.096996  0.001595  3.875899  0.002
C  C91  1  0.56946273  0.03202305  0.91231339  1  0.21164  0.002958  0.001399  -0.096794  0.001596  3.875627  0.002
C  C92  1  0.04951673  0.68433908  0.60521809  1  0.952604  0.004133  0.140943  0.095001  0.002433  3.902799  0.004
C  C93  1  0.45047312  0.81566315  0.10522206  1  0.952039  0.004142  0.140987  0.095169  0.002438  3.902802  0.004
C  C94  1  0.95046067  0.31565819  0.39477564  1  0.951823  0.004136  0.140876  0.095024  0.002434  3.903004  0.004
C  C95  1  0.54951717  0.18435560  0.89477363  1  0.952578  0.004124  0.140826  0.094639  0.002427  3.903758  0.004
C  C96  1  0.95757620  0.56729022  0.69090461  1  0.370629  -0.001515  0.096399  0.166173  -0.001818  4.019682  -0.001
C  C97  1  0.54241692  0.93270893  0.19091651  1  0.370459  -0.001516  0.096362  0.165987  -0.00182  4.019667  -0.001
C  C98  1  0.04243581  0.43271370  0.30908913  1  0.37076  -0.001512  0.096405  0.166161  -0.001816  4.019538  -0.001
C  C99  1  0.45757680  0.06730199  0.80908745  1  0.371066  -0.001514  0.096331  0.165909  -0.001818  4.019358  -0.001
C  C100  1  0.93513332  0.47060302  0.70856981  1  -0.04664  0.001498  -0.089874  -0.163862  0.000704  3.970661  0.001
C  C101  1  0.56485152  0.02939955  0.20857140  1  -0.047018  0.001498  -0.089878  -0.163777  0.000705  3.970535  0.001
C  C102  1  0.06486757  0.52940439  0.29142442  1  -0.04712  0.001497  -0.08995  -0.163882  0.000704  3.970792  0.001
C  C103  1  0.43514084  0.97060424  0.79142234  1  -0.04652  0.001498  -0.089802  -0.163719  0.000704  3.970347  0.001
C  C104  1  0.87868178  0.44389088  0.76868029  1  -0.068847  -0.00222  -0.094593  -0.170074  -0.002412  4.030596  -0.001
C  C105  1  0.62131368  0.05611533  0.26868027  1  -0.068539  -0.002221  -0.09461  -0.169993  -0.002413  4.030428  -0.001
C  C106  1  0.12133097  0.55610662  0.23131734  1  -0.068634  -0.002217  -0.094608  -0.17011  -0.002409  4.030497  -0.001
C  C107  1  0.37867855  0.94388775  0.73131541  1  -0.068848  -0.002219  -0.094626  -0.169998  -0.002411  4.030827  -0.001
C  C108  1  0.84431265  0.51257711  0.81203687  1  0.304975  0.000892  0.092973  0.158848  0.000246  4.024051  0.001
C  C109  1  0.65568024  0.98743485  0.31204360  1  0.30489  0.000893  0.092764  0.158488  0.000247  4.024169  0.001
C  C110  1  0.15569337  0.48742106  0.18795881  1  0.304629  0.000892  0.092948  0.158757  0.000247  4.024448  0.001
C  C111  1  0.34431463  0.01257181  0.68795988  1  0.304543  0.000891  0.092836  0.158655  0.000246  4.024621  0.001
C  C112  1  0.86515015  0.60907400  0.79401776  1  -0.09532  -0.000628  -0.082512  -0.14035  -0.000748  3.937973  0.0
C  C113  1  0.63484359  0.89093697  0.29402602  1  -0.095067  -0.000629  -0.082435  -0.14021  -0.000749  3.938083  0.0
C  C114  1  0.13486239  0.39093277  0.20598328  1  -0.095399  -0.000628  -0.08249  -0.140251  -0.000747  3.938582  0.0
C  C115  1  0.36513296  0.10906101  0.70596967  1  -0.095577  -0.000629  -0.082367  -0.139857  -0.000748  3.938354  0.0
C  C116  1  0.92117423  0.63587531  0.73384594  1  0.078254  0.000266  -0.087639  -0.151357  -2.2e-05  3.982635  0.0
C  C117  1  0.57880741  0.86412417  0.23385971  1  0.077405  0.000267  -0.087631  -0.151305  -2.1e-05  3.982637  0.0
C  C118  1  0.07883023  0.36412499  0.26615072  1  0.078104  0.000266  -0.087658  -0.151423  -2.1e-05  3.982726  0.0
C  C119  1  0.42116251  0.13588018  0.76613695  1  0.077729  0.000265  -0.087735  -0.151601  -2.2e-05  3.983171  0.0
C  C120  1  0.77632071  0.39630295  0.90168136  1  0.905724  -0.011964  0.12593  0.063969  -0.013454  3.940701  -0.007
C  C121  1  0.72364678  0.10371132  0.40168489  1  0.907795  -0.011959  0.125854  0.06364  -0.013452  3.94141  -0.007
C  C122  1  0.22366709  0.60369225  0.09831579  1  0.906113  -0.011946  0.125963  0.063704  -0.013436  3.941092  -0.007
C  C123  1  0.27635475  0.89630466  0.59830884  1  0.9063  -0.01197  0.125954  0.063918  -0.013463  3.940244  -0.007
C  C124  1  0.68051199  0.48675239  0.96654591  1  0.407488  -0.002302  0.004769  -0.008776  -0.003066  3.963957  -0.002
C  C125  1  0.81951341  0.01327569  0.46654894  1  0.407389  -0.002303  0.004711  -0.008501  -0.003066  3.963804  -0.002
C  C126  1  0.31949667  0.51324936  0.03345805  1  0.408179  -0.0023  0.004696  -0.00908  -0.003062  3.96455  -0.002
C  C127  1  0.18049727  0.98673678  0.53345161  1  0.407432  -0.002303  0.004712  -0.008688  -0.003066  3.963627  -0.002
C  C128  1  0.72614630  0.54297943  0.91479311  1  0.288986  0.004661  -0.001905  -0.10899  0.002531  3.886875  0.003
C  C129  1  0.77387877  0.95704528  0.41479977  1  0.289225  0.004663  -0.0018  -0.108987  0.002532  3.886377  0.003
C  C130  1  0.27386642  0.45702307  0.08521426  1  0.288845  0.00466  -0.001794  -0.108771  0.00253  3.886666  0.003
C  C131  1  0.22612294  0.04296641  0.58520808  1  0.290018  0.004663  -0.001884  -0.109054  0.002532  3.886832  0.003
C  C132  1  0.10984005  0.90722839  0.35701225  1  0.947889  -0.0062  0.143001  0.103066  -0.007317  3.866996  -0.003
C  C133  1  0.39017152  0.59274803  0.85701669  1  0.948177  -0.00621  0.143163  0.103262  -0.007324  3.866554  -0.003
C  C134  1  0.89016166  0.09278330  0.64298830  1  0.948  -0.006197  0.142967  0.103139  -0.007312  3.867061  -0.003
C  C135  1  0.60982501  0.40720516  0.14300771  1  0.94671  -0.006194  0.14305  0.102996  -0.007311  3.866198  -0.003
C  C136  1  0.30565192  0.99038096  0.33233531  1  0.267405  0.002489  -0.011024  -0.117902  0.00123  3.948601  0.001
C  C137  1  0.19436259  0.50959179  0.83234624  1  0.266964  0.002492  -0.010782  -0.117609  0.001231  3.948231  0.001
C  C138  1  0.69433970  0.00962924  0.66766086  1  0.268067  0.002489  -0.011069  -0.11794  0.00123  3.948885  0.001
C  C139  1  0.80564349  0.49036003  0.16766551  1  0.267914  0.002489  -0.011018  -0.11827  0.001231  3.948707  0.001
C  C140  1  0.31738479  0.93479620  0.38612379  1  0.422406  -0.001676  -0.007305  -0.041663  -0.002694  4.03524  -0.001
C  C141  1  0.18263971  0.56518889  0.88613236  1  0.422692  -0.00168  -0.007212  -0.041636  -0.002697  4.03547  -0.001
C  C142  1  0.68262522  0.06521270  0.61387092  1  0.422558  -0.001676  -0.007225  -0.041397  -0.002693  4.035267  -0.001
C  C143  1  0.81734814  0.43478064  0.11387258  1  0.422918  -0.001678  -0.007077  -0.041039  -0.002695  4.035813  -0.001
C  C144  1  0.11583444  0.01598573  0.26111245  1  0.278476  0.000205  0.089537  0.157736  -7.6e-05  4.033842  0.0
C  C145  1  0.38416509  0.48399964  0.76112124  1  0.287451  0.0002  0.089797  0.158133  -7.9e-05  4.03396  0.0
C  C146  1  0.88416544  0.98402667  0.73888420  1  0.278107  0.000202  0.089653  0.158085  -7.9e-05  4.033933  0.0
C  C147  1  0.61584360  0.51596076  0.23889684  1  0.277656  0.000203  0.089554  0.157795  -7.8e-05  4.033844  0.0
C  C148  1  0.00122993  0.05779590  0.27024927  1  -0.006591  0.000302  -0.091929  -0.156245  0.000107  4.00141  0.0
C  C149  1  0.49877601  0.44219500  0.77025567  1  -0.006493  0.000303  -0.091926  -0.156199  0.000108  4.00139  0.0
C  C150  1  0.99876822  0.94222290  0.72974885  1  -0.005826  0.000303  -0.091986  -0.156271  0.000107  4.001465  0.0
C  C151  1  0.50124422  0.55775906  0.22975705  1  -0.005172  0.000303  -0.091982  -0.156382  0.000107  4.00155  0.0
C  C152  1  0.94918681  0.10345209  0.21825827  1  -0.002514  -0.00093  -0.094009  -0.162446  -0.001029  4.012753  -0.001
C  C153  1  0.55082456  0.39655328  0.71826410  1  -0.003082  -0.000932  -0.094036  -0.162407  -0.001031  4.012779  -0.001
C  C154  1  0.05081893  0.89656534  0.78173206  1  -0.003882  -0.000932  -0.093868  -0.162328  -0.001031  4.01243  -0.001
C  C155  1  0.44918516  0.60341782  0.28174181  1  -0.003538  -0.000931  -0.093989  -0.162491  -0.001031  4.012084  -0.001
C  C156  1  0.01074253  0.10700050  0.15714673  1  0.283761  0.000596  0.101889  0.175368  0.00026  3.985713  0.001
C  C157  1  0.48926334  0.39301021  0.65714784  1  0.284023  0.000597  0.10188  0.175158  0.000261  3.985778  0.001
C  C158  1  0.98925430  0.89300618  0.84284409  1  0.283815  0.000597  0.101686  0.175018  0.000261  3.985828  0.001
C  C159  1  0.51075454  0.60697806  0.34285612  1  0.283922  0.000597  0.101734  0.175297  0.00026  3.985301  0.001
C  C160  1  0.12438256  0.06374706  0.14799434  1  0.064985  0.000123  -0.077316  -0.127258  -9e-06  3.938238  0.0
C  C161  1  0.37560311  0.43626302  0.64800075  1  0.065404  0.000122  -0.077496  -0.127426  -1e-05  3.938039  0.0
C  C162  1  0.87560798  0.93625743  0.85200135  1  0.065233  0.000121  -0.077364  -0.127231  -1.1e-05  3.938309  0.0
C  C163  1  0.62441348  0.56372881  0.35201100  1  0.065392  0.000122  -0.077166  -0.127041  -1e-05  3.937909  0.0
C  C164  1  0.17647123  0.01868198  0.20005241  1  -0.077951  3.9e-05  -0.085529  -0.139328  -0.000105  3.969489  0.0
C  C165  1  0.32351863  0.48131547  0.70006388  1  -0.086878  4e-05  -0.085584  -0.139299  -0.000104  3.969953  0.0
C  C166  1  0.82352882  0.98132614  0.79994328  1  -0.078107  3.9e-05  -0.08559  -0.139377  -0.000104  3.969819  0.0
C  C167  1  0.67648503  0.51865987  0.29995322  1  -0.078096  3.9e-05  -0.085417  -0.139261  -0.000105  3.96959  0.0
C  C168  1  0.83791423  0.18648579  0.10246028  1  0.970511  -0.007002  0.141704  0.09493  -0.008411  3.882446  -0.004
C  C169  1  0.66208321  0.31351868  0.60246960  1  0.970474  -0.007008  0.141552  0.094688  -0.008419  3.882473  -0.004
C  C170  1  0.16208455  0.81350521  0.89752275  1  0.970242  -0.00702  0.141731  0.094896  -0.008433  3.882226  -0.004
C  C171  1  0.33791851  0.68647233  0.39753096  1  0.971016  -0.007006  0.141518  0.094769  -0.008418  3.88274  -0.004
C  C172  1  0.93988885  0.23134019  0.01236133  1  0.377935  0.00083  -0.005252  -0.043791  -8.1e-05  4.017977  0.001
C  C173  1  0.56012296  0.26869718  0.51235879  1  0.377104  0.000827  -0.005214  -0.043665  -8.3e-05  4.01822  0.001
C  C174  1  0.06010927  0.76866292  0.98762657  1  0.377884  0.00083  -0.005271  -0.043751  -8e-05  4.017839  0.001
C  C175  1  0.43988897  0.73131673  0.48763398  1  0.377856  0.000825  -0.005253  -0.043761  -8.3e-05  4.018322  0.001
C  C176  1  0.02519048  0.18421184  0.04708461  1  0.253968  0.003799  0.005454  -0.08635  0.001914  3.858116  0.002
C  C177  1  0.47482074  0.31582576  0.54707442  1  0.254377  0.0038  0.005541  -0.086143  0.001915  3.857581  0.002
C  C178  1  0.97480679  0.81579198  0.95290864  1  0.253695  0.003801  0.005398  -0.086562  0.001915  3.857753  0.002
C  C179  1  0.52519722  0.68418890  0.45292029  1  0.253791  0.003801  0.005376  -0.086279  0.001915  3.857572  0.002
S  S180  1  0.89980684  0.72299463  0.43252378  1  3.754731  0.002328  0.52628  1.363267  0.001889  6.392962  0.0
S  S181  1  0.60020106  0.77699675  0.93251968  1  3.755415  0.002327  0.526045  1.36315  0.001889  6.39351  0.0
S  S182  1  0.10020191  0.27701284  0.56747774  1  3.75564  0.002326  0.526231  1.363213  0.00189  6.393741  0.0
S  S183  1  0.39978037  0.22300626  0.06747503  1  3.754534  0.002326  0.526009  1.363044  0.001888  6.393701  0.0
N  N184  1  0.11546400  0.68180270  0.54968530  1  -1.200362  0.057949  -0.352185  -0.295994  0.032  3.630716  0.044
N  N185  1  0.38453451  0.81819805  0.04968354  1  -1.200209  0.057925  -0.352137  -0.295991  0.031988  3.630826  0.044
N  N186  1  0.88453930  0.31820187  0.45031428  1  -1.200343  0.057962  -0.352152  -0.295931  0.032007  3.631228  0.044
N  N187  1  0.61543571  0.18180274  0.95031020  1  -1.200027  0.057962  -0.352186  -0.296026  0.032008  3.63138  0.044
N  N188  1  0.01951992  0.59418306  0.63059078  1  -1.266439  0.004979  -0.224218  0.00753  0.00231  3.781951  0.004
N  N189  1  0.48046343  0.90581425  0.13059730  1  -1.266087  0.004979  -0.224192  0.007654  0.002309  3.781958  0.004
N  N190  1  0.98047516  0.40581433  0.36940636  1  -1.265754  0.00498  -0.224004  0.007866  0.00231  3.781522  0.004
N  N191  1  0.51952584  0.09420949  0.86940617  1  -1.266048  0.004976  -0.22414  0.008022  0.002308  3.781496  0.004
N  N192  1  0.78727108  0.48503743  0.87333905  1  -1.258912  -0.000116  -0.229663  0.003149  -0.001074  3.807322  0.0
N  N193  1  0.71272065  0.01499336  0.37334706  1  -1.260253  -0.00012  -0.229451  0.003634  -0.001076  3.807034  0.0
N  N194  1  0.21273266  0.51496430  0.12666150  1  -1.259158  -0.000113  -0.229655  0.003395  -0.001072  3.807448  0.0
N  N195  1  0.28727435  0.98503469  0.62665933  1  -1.259462  -0.000118  -0.229579  0.003379  -0.001076  3.807103  0.0
N  N196  1  0.71230874  0.39570735  0.95806902  1  -1.202285  0.05689  -0.351368  -0.288148  0.030098  3.639679  0.05
N  N197  1  0.78767821  0.10430642  0.45806896  1  -1.202819  0.056917  -0.351357  -0.288124  0.03011  3.639495  0.05
N  N198  1  0.28768279  0.60427647  0.04193105  1  -1.202684  0.056901  -0.351393  -0.28804  0.030106  3.640202  0.05
N  N199  1  0.21232649  0.89570030  0.54191845  1  -1.202457  0.056905  -0.351472  -0.288286  0.030104  3.639465  0.05
N  N200  1  0.19518677  0.88342750  0.40074116  1  -1.205881  0.057587  -0.346872  -0.285241  0.030812  3.615637  0.05
N  N201  1  0.30483001  0.61655433  0.90074762  1  -1.206775  0.05758  -0.346975  -0.285448  0.030807  3.615802  0.05
N  N202  1  0.80481989  0.11657923  0.59925842  1  -1.206214  0.057571  -0.346782  -0.285235  0.030805  3.615715  0.05
N  N203  1  0.69515248  0.38341801  0.09926802  1  -1.206433  0.057576  -0.347018  -0.285617  0.030809  3.615766  0.05
N  N204  1  0.17327443  0.97261506  0.31432965  1  -1.265733  0.001186  -0.230479  0.005621  0.000167  3.807811  0.001
N  N205  1  0.32672624  0.52735161  0.81433565  1  -1.265263  0.001186  -0.230726  0.005482  0.000165  3.808002  0.001
N  N206  1  0.82672125  0.02739588  0.68567236  1  -1.26569  0.001188  -0.230484  0.005258  0.000168  3.807903  0.001
N  N207  1  0.67328147  0.47258811  0.18568973  1  -1.26549  0.001189  -0.230457  0.006109  0.000168  3.80718  0.001
N  N208  1  0.95948619  0.15597637  0.10476578  1  -1.249311  0.001431  -0.220781  0.012887  0.000343  3.77364  0.001
N  N209  1  0.54053005  0.34404385  0.60477122  1  -1.24914  0.001429  -0.220767  0.012905  0.000342  3.773788  0.001
N  N210  1  0.04051546  0.84402462  0.89521725  1  -1.248932  0.001427  -0.220746  0.013158  0.00034  3.773163  0.001
N  N211  1  0.45948732  0.65595725  0.39522641  1  -1.249416  0.00143  -0.220654  0.012896  0.000342  3.773614  0.001
N  N212  1  0.82395361  0.23237195  0.04724892  1  -1.203832  0.061889  -0.348246  -0.284604  0.034007  3.634544  0.049
N  N213  1  0.67603628  0.26764376  0.54725417  1  -1.203935  0.061901  -0.34832  -0.284592  0.03401  3.634394  0.049
N  N214  1  0.17604696  0.76762333  0.95273313  1  -1.203567  0.061901  -0.348321  -0.284607  0.034014  3.634389  0.049
N  N215  1  0.32396804  0.73235583  0.45274152  1  -1.203594  0.061886  -0.348295  -0.28454  0.03401  3.634685  0.049
O  O216  1  0.95421944  0.80888573  0.47471247  1  -1.283416  0.100228  -0.37489  -0.647585  0.051255  2.190619  0.083
O  O217  1  0.54582457  0.69109846  0.97470399  1  -1.283507  0.100133  -0.374728  -0.647575  0.051208  2.190841  0.083
O  O218  1  0.04577929  0.19113094  0.52528175  1  -1.283571  0.100261  -0.374901  -0.647591  0.051272  2.190867  0.083
O  O219  1  0.45419035  0.30891047  0.02529754  1  -1.283655  0.100237  -0.374694  -0.647543  0.05126  2.190782  0.083
O  O220  1  0.02357288  0.68595127  0.40836820  1  -1.32792  0.055417  -0.371909  -0.678963  0.028076  2.204617  0.047
O  O221  1  0.47641011  0.81403658  0.90837996  1  -1.327619  0.055457  -0.371842  -0.67888  0.028101  2.204718  0.047
O  O222  1  0.97644633  0.31406482  0.59163235  1  -1.328329  0.055398  -0.371899  -0.678991  0.028065  2.204876  0.047
O  O223  1  0.52354200  0.18594627  0.09161962  1  -1.327558  0.055402  -0.371807  -0.678882  0.028068  2.2049  0.047
O  O224  1  0.82572665  0.75575534  0.37693633  1  -1.355733  0.018132  -0.379117  -0.66341  0.009044  2.14518  0.016
O  O225  1  0.67426513  0.74426435  0.87691655  1  -1.355912  0.018128  -0.379142  -0.663457  0.009042  2.145011  0.016
O  O226  1  0.17426668  0.24423277  0.62306179  1  -1.355771  0.018129  -0.379088  -0.663372  0.009043  2.145405  0.016
O  O227  1  0.32571090  0.25574647  0.12307134  1  -1.355553  0.018126  -0.379103  -0.663367  0.009041  2.145201  0.016
O  O228  1  0.81723899  0.64998045  0.47166871  1  -1.352812  0.008196  -0.370982  -0.639429  0.003761  2.118444  0.007
O  O229  1  0.68277069  0.85001500  0.97166367  1  -1.353283  0.008187  -0.370963  -0.63941  0.003757  2.118471  0.007
O  O230  1  0.18277538  0.35002563  0.52833428  1  -1.353082  0.008201  -0.370973  -0.639378  0.003764  2.118585  0.007
O  O231  1  0.31720144  0.15001148  0.02831790  1  -1.352712  0.008197  -0.370958  -0.639346  0.003762  2.118639  0.007
