# generated using pymatgen
data_CdPH8C6NO5
_symmetry_space_group_name_H-M   'P 1'
_cell_length_a   5.26494551
_cell_length_b   11.93267111
_cell_length_c   14.59886517
_cell_angle_alpha   74.65744724
_cell_angle_beta   79.60587186
_cell_angle_gamma   77.23823843
_symmetry_Int_Tables_number   1
_chemical_formula_structural   CdPH8C6NO5
_chemical_formula_sum   'Cd4 P4 H32 C24 N4 O20'
_cell_volume   855.35091843
_cell_formula_units_Z   4
loop_
 _symmetry_equiv_pos_site_id
 _symmetry_equiv_pos_as_xyz
  1  'x, y, z'
loop_
 _atom_site_type_symbol
 _atom_site_label
 _atom_site_symmetry_multiplicity
 _atom_site_fract_x
 _atom_site_fract_y
 _atom_site_fract_z
 _atom_site_occupancy
 _atom_site_hle17_bader_spin_density
 _atom_site_hle17_ddec_charge
 _atom_site_hle17_ddec_spin_density
 _atom_site_hle17_ddec_sum_bond_order
 _atom_site_hle17_magmom
 _atom_site_hse06_10hf_bader_spin_density
 _atom_site_hse06_10hf_ddec_charge
 _atom_site_hse06_10hf_ddec_spin_density
 _atom_site_hse06_10hf_ddec_sum_bond_order
 _atom_site_hse06_10hf_magmom
 _atom_site_hse06_bader_spin_density
 _atom_site_hse06_ddec_charge
 _atom_site_hse06_ddec_spin_density
 _atom_site_hse06_ddec_sum_bond_order
 _atom_site_hse06_magmom
 _atom_site_pbe_bader_spin_density
 _atom_site_pbe_cm5_charge
 _atom_site_pbe_ddec_charge
 _atom_site_pbe_ddec_spin_density
 _atom_site_pbe_ddec_sum_bond_order
 _atom_site_pbe_magmom
Cd  Cd0  1  0.43634016  0.85432790  0.98185076  1  0  1.271928  0  1.629278  0  0  1.093424  0  2.075337  0  0  1.144893  0  2.01968  0  0  0.811777  1.056522  0  2.113807  0
Cd  Cd1  1  0.27287973  0.64578264  0.51807262  1  0  1.271513  0  1.630721  0  0  1.092568  0  2.077366  0  0  1.144176  0  2.021522  0  0  0.810842  1.055594  0  2.115958  0
Cd  Cd2  1  0.56366758  0.14566851  0.01815068  1  0  1.271963  0  1.62923  0  0  1.093459  0  2.075287  0  0  1.144934  0  2.019626  0  0  0.811774  1.056551  0  2.113757  0
Cd  Cd3  1  0.72712149  0.35421644  0.48192797  1  0  1.271516  0  1.630728  0  0  1.092553  0  2.077368  0  0  1.144159  0  2.021522  0  0  0.810858  1.055578  0  2.115952  0
P  P4  1  0.94025302  0.03635841  0.86291340  1  0  1.413847  0  4.925421  0  0  1.247535  0  5.425984  0  0  1.297504  0  5.390214  0  0  0.315151  1.212675  0  5.449879  0
P  P5  1  0.83992308  0.46360896  0.63701833  1  0  1.415727  0  4.922403  0  0  1.249288  0  5.422876  0  0  1.299302  0  5.387191  0  0  0.3165  1.214416  0  5.446684  0
P  P6  1  0.05975603  0.96363980  0.13708567  1  0  1.413952  0  4.925309  0  0  1.247646  0  5.425861  0  0  1.297614  0  5.390086  0  0  0.315227  1.212781  0  5.449755  0
P  P7  1  0.16007959  0.53639099  0.36298223  1  0  1.415654  0  4.922416  0  0  1.249266  0  5.422886  0  0  1.299277  0  5.387201  0  0  0.316512  1.214396  0  5.446692  0
H  H8  1  0.68049447  0.69995728  0.14590407  1  0  0.419379  0  0.889672  0  0  0.386409  0  0.956703  0  0  0.397472  0  0.940704  0  0  0.286924  0.378595  0  0.967973  0
H  H9  1  0.52669997  0.80006139  0.35406945  1  0  0.419404  0  0.889828  0  0  0.386842  0  0.956167  0  0  0.397919  0  0.940144  0  0  0.287393  0.379022  0  0.967446  0
H  H10  1  0.31950380  0.30004612  0.85410079  1  0  0.419276  0  0.889839  0  0  0.386339  0  0.956799  0  0  0.397403  0  0.940798  0  0  0.286852  0.378525  0  0.968069  0
H  H11  1  0.47330315  0.19993854  0.64593261  1  0  0.419346  0  0.889908  0  0  0.386786  0  0.956246  0  0  0.397866  0  0.94022  0  0  0.287365  0.378966  0  0.967527  0
H  H12  1  0.87457384  0.78657520  0.08545345  1  0  0.435304  0  0.867884  0  0  0.402117  0  0.93481  0  0  0.413233  0  0.918787  0  0  0.284347  0.39427  0  0.946094  0
H  H13  1  0.74687593  0.71351083  0.41459669  1  0  0.437544  0  0.865091  0  0  0.40442  0  0.931979  0  0  0.415536  0  0.915939  0  0  0.285163  0.396568  0  0.94328  0
H  H14  1  0.12542687  0.21342558  0.91455051  1  0  0.435361  0  0.867785  0  0  0.402103  0  0.934819  0  0  0.413222  0  0.918795  0  0  0.284303  0.394258  0  0.946101  0
H  H15  1  0.25312538  0.28648910  0.58540524  1  0  0.437535  0  0.865104  0  0  0.404412  0  0.932002  0  0  0.415528  0  0.91596  0  0  0.285139  0.396558  0  0.943304  0
H  H16  1  0.41634079  0.88036194  0.52816420  1  0  0.081235  0  0.965188  0  0  0.090601  0  1.028154  0  0  0.093048  0  1.025969  0  0  0.112857  0.08877  0  1.029746  0
H  H17  1  0.82495151  0.62004094  0.97159855  1  0  0.081306  0  0.966143  0  0  0.090241  0  1.029393  0  0  0.092671  0  1.027233  0  0  0.11312  0.08842  0  1.030981  0
H  H18  1  0.58367575  0.11963001  0.47184072  1  0  0.081172  0  0.965312  0  0  0.090522  0  1.028285  0  0  0.092966  0  1.026103  0  0  0.112834  0.0887  0  1.029883  0
H  H19  1  0.17504556  0.37995731  0.02839894  1  0  0.081357  0  0.966042  0  0  0.09029  0  1.029291  0  0  0.092712  0  1.02715  0  0  0.113141  0.088463  0  1.03089  0
H  H20  1  0.27468363  0.04609123  0.61357032  1  0  0.114868  0  0.959859  0  0  0.122766  0  1.025144  0  0  0.126606  0  1.023267  0  0  0.107914  0.119922  0  1.026754  0
H  H21  1  0.93500992  0.45426111  0.88623521  1  0  0.114873  0  0.960679  0  0  0.122755  0  1.025979  0  0  0.1266  0  1.024112  0  0  0.107408  0.119892  0  1.027599  0
H  H22  1  0.72531864  0.95390697  0.38642974  1  0  0.11491  0  0.959957  0  0  0.122888  0  1.025138  0  0  0.126727  0  1.023259  0  0  0.107978  0.120045  0  1.026751  0
H  H23  1  0.06498014  0.54573708  0.11376547  1  0  0.114975  0  0.960542  0  0  0.122795  0  1.025912  0  0  0.126641  0  1.024047  0  0  0.107421  0.119933  0  1.027531  0
H  H24  1  0.58863706  0.89283537  0.74654434  1  0  0.116537  0  0.976482  0  0  0.122077  0  1.044991  0  0  0.125416  0  1.044202  0  0  0.107109  0.119679  0  1.045685  0
H  H25  1  0.22820907  0.60713020  0.75342795  1  0  0.116532  0  0.976813  0  0  0.122128  0  1.045419  0  0  0.125579  0  1.044545  0  0  0.106678  0.119615  0  1.04626  0
H  H26  1  0.41135292  0.10717090  0.25344779  1  0  0.116497  0  0.976438  0  0  0.122016  0  1.044971  0  0  0.125346  0  1.044212  0  0  0.107067  0.119619  0  1.045658  0
H  H27  1  0.77178948  0.39287157  0.24656985  1  0  0.116538  0  0.976849  0  0  0.122117  0  1.045463  0  0  0.125566  0  1.044594  0  0  0.106675  0.119603  0  1.046305  0
H  H28  1  0.76456539  0.73213597  0.65893131  1  0  0.07985  0  0.94959  0  0  0.086534  0  1.017281  0  0  0.08877  0  1.015813  0  0  0.11418  0.084856  0  1.018407  0
H  H29  1  0.15562230  0.76804249  0.84079769  1  0  0.080265  0  0.949684  0  0  0.086879  0  1.017626  0  0  0.089071  0  1.016283  0  0  0.113723  0.085218  0  1.018701  0
H  H30  1  0.23542914  0.26786846  0.34106508  1  0  0.079877  0  0.949567  0  0  0.08657  0  1.017251  0  0  0.088806  0  1.015784  0  0  0.114201  0.084888  0  1.018378  0
H  H31  1  0.84438023  0.23195838  0.15920053  1  0  0.080269  0  0.94965  0  0  0.086844  0  1.017627  0  0  0.089036  0  1.016283  0  0  0.113723  0.085184  0  1.018698  0
H  H32  1  0.92294754  0.15553178  0.70190722  1  0  0.108787  0  0.927308  0  0  0.117027  0  0.9835  0  0  0.119252  0  0.98251  0  0  0.121226  0.115383  0  0.984374  0
H  H33  1  0.78103791  0.34460140  0.79806737  1  0  0.110593  0  0.927365  0  0  0.118996  0  0.983134  0  0  0.121219  0  0.982172  0  0  0.121601  0.117369  0  0.983985  0
H  H34  1  0.07706051  0.84446553  0.29809337  1  0  0.108794  0  0.927238  0  0  0.117008  0  0.983477  0  0  0.119232  0  0.982486  0  0  0.121218  0.115364  0  0.984349  0
H  H35  1  0.21896219  0.65539769  0.20193241  1  0  0.110561  0  0.927369  0  0  0.118995  0  0.983124  0  0  0.121216  0  0.982166  0  0  0.1216  0.11737  0  0.983973  0
H  H36  1  0.45236635  0.06065027  0.79324088  1  0  0.37919  0  0.911749  0  0  0.351134  0  0.987597  0  0  0.361413  0  0.97628  0  0  0.293893  0.343905  0  0.995514  0
H  H37  1  0.30684469  0.43940619  0.70670190  1  0  0.382202  0  0.909644  0  0  0.353955  0  0.985587  0  0  0.364264  0  0.974208  0  0  0.294981  0.346718  0  0.993539  0
H  H38  1  0.54764038  0.93934965  0.20676143  1  0  0.37918  0  0.911797  0  0  0.351114  0  0.987644  0  0  0.361392  0  0.976329  0  0  0.293869  0.343888  0  0.995554  0
H  H39  1  0.69315016  0.56059462  0.29330019  1  0  0.382203  0  0.909608  0  0  0.353956  0  0.985548  0  0  0.364264  0  0.97417  0  0  0.294981  0.346719  0  0.9935  0
C  C40  1  0.23649560  0.88686894  0.57840594  1  0  0.123115  0  3.731802  0  0  0.092761  0  3.982225  0  0  0.099862  0  4.002135  0  0  0.038485  0.088228  0  3.968523  0
C  C41  1  0.70194356  0.61347149  0.92135732  1  0  0.125599  0  3.732989  0  0  0.095797  0  3.983426  0  0  0.102926  0  4.003263  0  0  0.039328  0.091246  0  3.969781  0
C  C42  1  0.76350381  0.11313013  0.42159452  1  0  0.12326  0  3.731732  0  0  0.092925  0  3.982176  0  0  0.100028  0  4.002083  0  0  0.03857  0.088373  0  3.968493  0
C  C43  1  0.29804980  0.38652580  0.07864446  1  0  0.125566  0  3.732666  0  0  0.095788  0  3.983091  0  0  0.102914  0  4.002927  0  0  0.03932  0.091234  0  3.969452  0
C  C44  1  0.15648630  0.97772932  0.62595086  1  0  -0.161007  0  3.695357  0  0  -0.179316  0  3.948444  0  0  -0.187565  0  3.969384  0  0  -0.085913  -0.174031  0  3.934543  0
C  C45  1  0.76065789  0.52254002  0.87388168  1  0  -0.162563  0  3.69558  0  0  -0.180853  0  3.948429  0  0  -0.189131  0  3.969386  0  0  -0.085166  -0.175528  0  3.9345  0
C  C46  1  0.84352080  0.02226530  0.37405227  1  0  -0.161105  0  3.695522  0  0  -0.179519  0  3.948616  0  0  -0.187767  0  3.969551  0  0  -0.086034  -0.174236  0  3.934727  0
C  C47  1  0.23933768  0.47745902  0.12612072  1  0  -0.162727  0  3.695501  0  0  -0.180975  0  3.948329  0  0  -0.189256  0  3.969289  0  0  -0.085193  -0.175651  0  3.934402  0
C  C48  1  0.92161739  0.98177823  0.68876691  1  0  0.132819  0  3.730092  0  0  0.138825  0  3.968163  0  0  0.144865  0  3.988925  0  0  0.012488  0.134836  0  3.954221  0
C  C49  1  0.59261334  0.51839915  0.81110628  1  0  0.135034  0  3.731559  0  0  0.141391  0  3.96948  0  0  0.147457  0  3.990322  0  0  0.013436  0.137402  0  3.955473  0
C  C50  1  0.07837570  0.01822532  0.31122951  1  0  0.132694  0  3.730224  0  0  0.138773  0  3.968201  0  0  0.144812  0  3.988962  0  0  0.012495  0.134782  0  3.954259  0
C  C51  1  0.40738254  0.48160078  0.18889527  1  0  0.134993  0  3.731671  0  0  0.141399  0  3.969543  0  0  0.147465  0  3.990385  0  0  0.013401  0.137411  0  3.955534  0
C  C52  1  0.77557541  0.89278660  0.70009983  1  0  -0.17125  0  3.689665  0  0  -0.188144  0  3.940023  0  0  -0.196317  0  3.961002  0  0  -0.087917  -0.182948  0  3.926137  0
C  C53  1  0.36870330  0.60731605  0.79978880  1  0  -0.172103  0  3.693462  0  0  -0.189413  0  3.94381  0  0  -0.19771  0  3.964775  0  0  -0.088729  -0.184123  0  3.929915  0
C  C54  1  0.22441402  0.10721874  0.29989534  1  0  -0.171115  0  3.689633  0  0  -0.187983  0  3.939943  0  0  -0.196157  0  3.960913  0  0  -0.087835  -0.182787  0  3.926052  0
C  C55  1  0.63129322  0.39268568  0.20021107  1  0  -0.172125  0  3.693534  0  0  -0.189422  0  3.943856  0  0  -0.197717  0  3.964819  0  0  -0.088739  -0.18413  0  3.929957  0
C  C56  1  0.87022141  0.80393993  0.65071518  1  0  0.129443  0  3.723913  0  0  0.101046  0  3.975114  0  0  0.108555  0  3.993678  0  0  0.041301  0.096194  0  3.96242  0
C  C57  1  0.32498839  0.69624185  0.84907972  1  0  0.129585  0  3.724704  0  0  0.101482  0  3.975969  0  0  0.108978  0  3.994558  0  0  0.042661  0.096635  0  3.963262  0
C  C58  1  0.12976915  0.19606097  0.34928147  1  0  0.129333  0  3.724034  0  0  0.100909  0  3.975236  0  0  0.108417  0  3.993802  0  0  0.041208  0.096061  0  3.962535  0
C  C59  1  0.67500918  0.30375901  0.15091961  1  0  0.129652  0  3.724671  0  0  0.101582  0  3.975942  0  0  0.109081  0  3.994526  0  0  0.042693  0.096734  0  3.963235  0
C  C60  1  0.83312014  0.07862091  0.74177225  1  0  -0.088967  0  3.665598  0  0  -0.09237  0  3.908262  0  0  -0.094588  0  3.914895  0  0  -0.007177  -0.090856  0  3.903744  0
C  C61  1  0.65405200  0.42147617  0.75821458  1  0  -0.091564  0  3.667729  0  0  -0.095243  0  3.910609  0  0  -0.097566  0  3.917401  0  0  -0.006916  -0.093715  0  3.906081  0
C  C62  1  0.16688394  0.92137729  0.25822794  1  0  -0.08878  0  3.665394  0  0  -0.09222  0  3.908083  0  0  -0.09444  0  3.914718  0  0  -0.007145  -0.090702  0  3.903563  0
C  C63  1  0.34594773  0.57852380  0.24178504  1  0  -0.091424  0  3.667678  0  0  -0.095207  0  3.910681  0  0  -0.09753  0  3.917476  0  0  -0.006903  -0.093678  0  3.906148  0
N  N64  1  0.09733410  0.80050945  0.59081188  1  0  -0.366129  0  3.277556  0  0  -0.287794  0  3.547605  0  0  -0.308316  0  3.565372  0  0  -0.337226  -0.27377  0  3.53519  0
N  N65  1  0.48873351  0.69979723  0.90892074  1  0  -0.368387  0  3.278744  0  0  -0.290655  0  3.54951  0  0  -0.311143  0  3.567205  0  0  -0.339163  -0.276665  0  3.537162  0
N  N66  1  0.90266567  0.19948874  0.40918874  1  0  -0.366143  0  3.277555  0  0  -0.287789  0  3.547576  0  0  -0.308311  0  3.565344  0  0  -0.337241  -0.273765  0  3.535166  0
N  N67  1  0.51126943  0.30020098  0.09107863  1  0  -0.368437  0  3.27869  0  0  -0.290725  0  3.549465  0  0  -0.311209  0  3.567154  0  0  -0.339177  -0.276737  0  3.537123  0
O  O68  1  0.23337051  0.97866847  0.85246639  1  0  -0.870927  0  2.029681  0  0  -0.777055  0  2.30165  0  0  -0.805813  0  2.281065  0  0  -0.377946  -0.756503  0  2.315133  0
O  O69  1  0.06512437  0.52119226  0.64732287  1  0  -0.871914  0  2.029467  0  0  -0.777735  0  2.301578  0  0  -0.806674  0  2.281033  0  0  -0.37767  -0.757195  0  2.315242  0
O  O70  1  0.76663324  0.02132884  0.14753464  1  0  -0.871031  0  2.029744  0  0  -0.777145  0  2.301723  0  0  -0.805897  0  2.281106  0  0  -0.377987  -0.756592  0  2.315205  0
O  O71  1  0.93487549  0.47880679  0.35267910  1  0  -0.871891  0  2.029492  0  0  -0.777713  0  2.30159  0  0  -0.806641  0  2.281038  0  0  -0.377654  -0.757175  0  2.315249  0
O  O72  1  0.74949492  0.73768672  0.07886691  1  0  -0.861572  0  1.854201  0  0  -0.79494  0  2.057767  0  0  -0.818635  0  2.023468  0  0  -0.594191  -0.777913  0  2.081379  0
O  O73  1  0.56620153  0.76238096  0.42114237  1  0  -0.863517  0  1.852417  0  0  -0.797556  0  2.056127  0  0  -0.821329  0  2.021858  0  0  -0.595297  -0.780509  0  2.079788  0
O  O74  1  0.25050475  0.26231492  0.92113758  1  0  -0.861518  0  1.854284  0  0  -0.794852  0  2.057935  0  0  -0.818547  0  2.023627  0  0  -0.594077  -0.777809  0  2.081507  0
O  O75  1  0.43380082  0.23761810  0.57885904  1  0  -0.863441  0  1.852453  0  0  -0.79748  0  2.056105  0  0  -0.821254  0  2.021834  0  0  -0.595244  -0.780437  0  2.079773  0
O  O76  1  0.89025060  0.15382180  0.89556576  1  0  -0.862445  0  2.011672  0  0  -0.761901  0  2.2737  0  0  -0.792015  0  2.252875  0  0  -0.379008  -0.740594  0  2.287414  0
O  O77  1  0.93949535  0.34601750  0.60448741  1  0  -0.862661  0  2.012075  0  0  -0.761677  0  2.273801  0  0  -0.791731  0  2.252936  0  0  -0.379123  -0.740384  0  2.28762  0
O  O78  1  0.10975447  0.84617731  0.10443290  1  0  -0.862432  0  2.011705  0  0  -0.761907  0  2.27371  0  0  -0.791999  0  2.252867  0  0  -0.379016  -0.740607  0  2.287461  0
O  O79  1  0.06050334  0.65398335  0.39551274  1  0  -0.86265  0  2.012064  0  0  -0.761704  0  2.273809  0  0  -0.79176  0  2.252947  0  0  -0.379144  -0.740416  0  2.28763  0
O  O80  1  0.76544388  0.95315317  0.92786699  1  0  -0.900428  0  2.053218  0  0  -0.803315  0  2.346718  0  0  -0.833498  0  2.32349  0  0  -0.398511  -0.781675  0  2.361934  0
O  O81  1  0.64684900  0.54691725  0.57208255  1  0  -0.901045  0  2.051692  0  0  -0.803764  0  2.345406  0  0  -0.833999  0  2.322162  0  0  -0.398994  -0.782044  0  2.360587  0
O  O82  1  0.23455843  0.04684766  0.07213341  1  0  -0.900447  0  2.053145  0  0  -0.803335  0  2.34665  0  0  -0.833519  0  2.323418  0  0  -0.398517  -0.781699  0  2.361868  0
O  O83  1  0.35315795  0.45308713  0.42791691  1  0  -0.901048  0  2.051757  0  0  -0.803773  0  2.345459  0  0  -0.834007  0  2.322215  0  0  -0.399023  -0.782043  0  2.360614  0
O  O84  1  0.55670195  0.12042988  0.75055795  1  0  -0.523488  0  2.164723  0  0  -0.467194  0  2.377201  0  0  -0.483858  0  2.36735  0  0  -0.379808  -0.455312  0  2.383857  0
O  O85  1  0.42814078  0.37970995  0.74950279  1  0  -0.526525  0  2.163139  0  0  -0.470077  0  2.376102  0  0  -0.486712  0  2.366209  0  0  -0.381721  -0.458178  0  2.382776  0
O  O86  1  0.44330112  0.87957183  0.24944311  1  0  -0.523536  0  2.164773  0  0  -0.467221  0  2.377279  0  0  -0.483883  0  2.367428  0  0  -0.379782  -0.455345  0  2.383937  0
O  O87  1  0.57185366  0.62028910  0.25049880  1  0  -0.52657  0  2.163142  0  0  -0.470084  0  2.376167  0  0  -0.486719  0  2.366273  0  0  -0.381725  -0.458184  0  2.382838  0
