# generated using pymatgen
data_ZnH16C11(N2Cl)2
_symmetry_space_group_name_H-M   'P 1'
_cell_length_a   8.72375387
_cell_length_b   9.23164935
_cell_length_c   17.65060773
_cell_angle_alpha   99.18557394
_cell_angle_beta   89.99999463
_cell_angle_gamma   90.00006281
_symmetry_Int_Tables_number   1
_chemical_formula_structural   ZnH16C11(N2Cl)2
_chemical_formula_sum   'Zn4 H64 C44 N16 Cl8'
_cell_volume   1403.25685012
_cell_formula_units_Z   4
loop_
 _symmetry_equiv_pos_site_id
 _symmetry_equiv_pos_as_xyz
  1  'x, y, z'
loop_
 _atom_site_type_symbol
 _atom_site_label
 _atom_site_symmetry_multiplicity
 _atom_site_fract_x
 _atom_site_fract_y
 _atom_site_fract_z
 _atom_site_occupancy
 _atom_site_hle17_bader_spin_density
 _atom_site_hle17_ddec_charge
 _atom_site_hle17_ddec_spin_density
 _atom_site_hle17_ddec_sum_bond_order
 _atom_site_hle17_magmom
 _atom_site_hse06_10hf_bader_spin_density
 _atom_site_hse06_10hf_ddec_charge
 _atom_site_hse06_10hf_ddec_spin_density
 _atom_site_hse06_10hf_ddec_sum_bond_order
 _atom_site_hse06_10hf_magmom
 _atom_site_hse06_bader_spin_density
 _atom_site_hse06_ddec_charge
 _atom_site_hse06_ddec_spin_density
 _atom_site_hse06_ddec_sum_bond_order
 _atom_site_hse06_magmom
 _atom_site_pbe_bader_spin_density
 _atom_site_pbe_cm5_charge
 _atom_site_pbe_ddec_charge
 _atom_site_pbe_ddec_spin_density
 _atom_site_pbe_ddec_sum_bond_order
 _atom_site_pbe_magmom
Zn  Zn0  1  0.67969250  0.14706632  0.85651543  1  0  0.830421  0  2.184864  0  0  0.651527  0  2.696444  0  0  0.689571  0  2.649553  0  0  0.571664  0.625492  0  2.728666  0
Zn  Zn1  1  0.17969228  0.35293351  0.64348456  1  0  0.830412  0  2.184901  0  0  0.651505  0  2.696495  0  0  0.689548  0  2.649604  0  0  0.57165  0.625464  0  2.728715  0
Zn  Zn2  1  0.32030869  0.85293301  0.14348428  1  0  0.830422  0  2.184896  0  0  0.651518  0  2.6965  0  0  0.68956  0  2.649606  0  0  0.571665  0.625482  0  2.728719  0
Zn  Zn3  1  0.82030776  0.64706582  0.35651571  1  0  0.83044  0  2.184879  0  0  0.65153  0  2.696471  0  0  0.689575  0  2.649578  0  0  0.571679  0.625498  0  2.728694  0
H  H4  1  0.00204882  0.67923392  0.02220880  1  0  0.125471  0  0.942553  0  0  0.144352  0  1.004727  0  0  0.146009  0  1.004651  0  0  0.095429  0.143233  0  1.004837  0
H  H5  1  0.50204807  0.82076457  0.47779118  1  0  0.125446  0  0.942556  0  0  0.144327  0  1.004733  0  0  0.145985  0  1.004656  0  0  0.095427  0.143209  0  1.004841  0
H  H6  1  0.99795237  0.32076540  0.97779148  1  0  0.125477  0  0.942534  0  0  0.144355  0  1.004713  0  0  0.146012  0  1.004636  0  0  0.095437  0.143237  0  1.004822  0
H  H7  1  0.49795198  0.17923366  0.52220843  1  0  0.125459  0  0.94255  0  0  0.144349  0  1.004722  0  0  0.146006  0  1.004644  0  0  0.095438  0.14323  0  1.004831  0
H  H8  1  0.23490039  0.78792190  0.95799879  1  0  0.082071  0  0.937857  0  0  0.094647  0  1.009155  0  0  0.095387  0  1.008861  0  0  0.095103  0.093849  0  1.009819  0
H  H9  1  0.73489959  0.71207956  0.54200099  1  0  0.082061  0  0.937862  0  0  0.094647  0  1.009164  0  0  0.095388  0  1.00887  0  0  0.0951  0.093846  0  1.009828  0
H  H10  1  0.76510080  0.21207853  0.04200158  1  0  0.082081  0  0.937862  0  0  0.094667  0  1.009165  0  0  0.095408  0  1.008871  0  0  0.095112  0.093869  0  1.009828  0
H  H11  1  0.26510045  0.28792086  0.45799824  1  0  0.082056  0  0.937858  0  0  0.094639  0  1.009175  0  0  0.095378  0  1.00888  0  0  0.095096  0.09384  0  1.009838  0
H  H12  1  0.26927327  0.87852217  0.88010194  1  0  0.082661  0  0.951856  0  0  0.098951  0  1.015102  0  0  0.099207  0  1.015491  0  0  0.092147  0.0983  0  1.015469  0
H  H13  1  0.76927464  0.62147713  0.61989766  1  0  0.082675  0  0.951827  0  0  0.098967  0  1.015097  0  0  0.099225  0  1.015483  0  0  0.092137  0.098314  0  1.015463  0
H  H14  1  0.73072563  0.12147715  0.11989777  1  0  0.082641  0  0.951874  0  0  0.098949  0  1.015115  0  0  0.099207  0  1.015502  0  0  0.092142  0.098298  0  1.015482  0
H  H15  1  0.23072540  0.37852220  0.38010205  1  0  0.082676  0  0.951843  0  0  0.098977  0  1.015092  0  0  0.099235  0  1.015478  0  0  0.09214  0.098326  0  1.015458  0
H  H16  1  0.87662288  0.59097069  0.94982118  1  0  0.129239  0  0.959186  0  0  0.144943  0  1.026021  0  0  0.14702  0  1.025414  0  0  0.088037  0.143473  0  1.026298  0
H  H17  1  0.37662389  0.90903092  0.55017804  1  0  0.129282  0  0.959131  0  0  0.144993  0  1.025958  0  0  0.147071  0  1.025351  0  0  0.088063  0.143521  0  1.026235  0
H  H18  1  0.12337717  0.40902864  0.05017910  1  0  0.129251  0  0.959187  0  0  0.144962  0  1.02601  0  0  0.147039  0  1.025404  0  0  0.088052  0.143492  0  1.026287  0
H  H19  1  0.62337729  0.09097170  0.44982081  1  0  0.129251  0  0.959178  0  0  0.144963  0  1.026005  0  0  0.14704  0  1.025399  0  0  0.088052  0.143492  0  1.026281  0
H  H20  1  0.80032904  0.70754697  0.03106374  1  0  0.121837  0  0.967612  0  0  0.141735  0  1.027906  0  0  0.143092  0  1.028452  0  0  0.089602  0.140632  0  1.027712  0
H  H21  1  0.30032984  0.79245293  0.46893634  1  0  0.121806  0  0.967615  0  0  0.141712  0  1.027901  0  0  0.143069  0  1.028446  0  0  0.089604  0.140609  0  1.027707  0
H  H22  1  0.19967100  0.29245236  0.96893654  1  0  0.121815  0  0.967624  0  0  0.141729  0  1.027907  0  0  0.143079  0  1.028461  0  0  0.089597  0.140625  0  1.027716  0
H  H23  1  0.69967020  0.20754749  0.53106346  1  0  0.121808  0  0.967649  0  0  0.141722  0  1.027935  0  0  0.143074  0  1.028485  0  0  0.089595  0.140617  0  1.027742  0
H  H24  1  0.06984602  0.03120199  0.77103266  1  0  0.116677  0  0.962231  0  0  0.131943  0  1.031061  0  0  0.134035  0  1.030422  0  0  0.084433  0.130275  0  1.031775  0
H  H25  1  0.56984663  0.46879662  0.72896724  1  0  0.116658  0  0.96221  0  0  0.131919  0  1.031041  0  0  0.134012  0  1.030401  0  0  0.084431  0.130251  0  1.031757  0
H  H26  1  0.93015402  0.96879624  0.22896752  1  0  0.116676  0  0.962214  0  0  0.131937  0  1.031044  0  0  0.13403  0  1.030401  0  0  0.084435  0.130269  0  1.031758  0
H  H27  1  0.43015341  0.53120490  0.27103322  1  0  0.116627  0  0.96231  0  0  0.13191  0  1.031104  0  0  0.134002  0  1.030464  0  0  0.084406  0.130241  0  1.03182  0
H  H28  1  0.01451443  0.19186419  0.83409985  1  0  0.116367  0  0.979824  0  0  0.130631  0  1.051552  0  0  0.132929  0  1.050462  0  0  0.082806  0.129051  0  1.052139  0
H  H29  1  0.51451486  0.30813547  0.66589901  1  0  0.116344  0  0.97985  0  0  0.130608  0  1.051577  0  0  0.132905  0  1.05049  0  0  0.082808  0.129028  0  1.052165  0
H  H30  1  0.98548447  0.80813514  0.16590043  1  0  0.116371  0  0.979805  0  0  0.130636  0  1.051534  0  0  0.132932  0  1.050445  0  0  0.08281  0.129056  0  1.052122  0
H  H31  1  0.48548404  0.69186605  0.33410032  1  0  0.116373  0  0.979784  0  0  0.130627  0  1.051526  0  0  0.132924  0  1.050439  0  0  0.082813  0.129047  0  1.052114  0
H  H32  1  0.68822596  0.91841226  0.96796263  1  0  0.291182  0  0.903871  0  0  0.271598  0  0.972166  0  0  0.278104  0  0.967509  0  0  0.310724  0.266896  0  0.975841  0
H  H33  1  0.18822660  0.58158806  0.53203705  1  0  0.291157  0  0.903881  0  0  0.271554  0  0.972196  0  0  0.27806  0  0.96754  0  0  0.310698  0.266851  0  0.975871  0
H  H34  1  0.31177179  0.08158707  0.03203707  1  0  0.291144  0  0.903895  0  0  0.271551  0  0.972206  0  0  0.278059  0  0.967548  0  0  0.310707  0.26685  0  0.97588  0
H  H35  1  0.81177230  0.41841347  0.46796284  1  0  0.291137  0  0.9039  0  0  0.271546  0  0.972218  0  0  0.278054  0  0.967559  0  0  0.310698  0.266844  0  0.975892  0
H  H36  1  0.18715908  0.09759567  0.85028842  1  0  0.116445  0  0.975193  0  0  0.131861  0  1.045193  0  0  0.133819  0  1.044478  0  0  0.082816  0.130539  0  1.045299  0
H  H37  1  0.68715849  0.40240417  0.64971157  1  0  0.11642  0  0.975185  0  0  0.131834  0  1.045196  0  0  0.133793  0  1.044478  0  0  0.082805  0.130511  0  1.045302  0
H  H38  1  0.81284096  0.90240366  0.14971185  1  0  0.116458  0  0.975168  0  0  0.131869  0  1.045169  0  0  0.133827  0  1.044453  0  0  0.082818  0.130547  0  1.045275  0
H  H39  1  0.31284041  0.59759626  0.35028879  1  0  0.116458  0  0.975156  0  0  0.131865  0  1.045166  0  0  0.133823  0  1.04445  0  0  0.082811  0.130543  0  1.045272  0
H  H40  1  0.33373844  0.56112540  0.98547749  1  0  0.118834  0  0.955964  0  0  0.136071  0  1.023189  0  0  0.137573  0  1.023178  0  0  0.092672  0.135036  0  1.023233  0
H  H41  1  0.83374020  0.93887397  0.51452211  1  0  0.118839  0  0.955962  0  0  0.136079  0  1.023175  0  0  0.137582  0  1.023164  0  0  0.092671  0.135044  0  1.023217  0
H  H42  1  0.66626160  0.43887393  0.01452278  1  0  0.118843  0  0.955972  0  0  0.136081  0  1.023197  0  0  0.137584  0  1.023186  0  0  0.092675  0.135045  0  1.023242  0
H  H43  1  0.16626098  0.06112536  0.48547703  1  0  0.118844  0  0.955952  0  0  0.136087  0  1.023172  0  0  0.13759  0  1.023161  0  0  0.092683  0.135051  0  1.023216  0
H  H44  1  0.43220285  0.41213320  0.92916625  1  0  0.113641  0  0.99976  0  0  0.128747  0  1.070676  0  0  0.130252  0  1.070935  0  0  0.082096  0.127516  0  1.070693  0
H  H45  1  0.93220534  0.08786689  0.57083432  1  0  0.113691  0  0.999694  0  0  0.128755  0  1.070645  0  0  0.130255  0  1.07091  0  0  0.082113  0.127523  0  1.070663  0
H  H46  1  0.56779719  0.58786722  0.07083469  1  0  0.113648  0  0.999754  0  0  0.128752  0  1.07068  0  0  0.130256  0  1.070941  0  0  0.082114  0.127521  0  1.070697  0
H  H47  1  0.06779699  0.91213244  0.42916539  1  0  0.113634  0  0.999737  0  0  0.128738  0  1.070669  0  0  0.130242  0  1.07093  0  0  0.082113  0.127507  0  1.070685  0
H  H48  1  0.31122164  0.32343966  0.79625174  1  0  0.29523  0  0.869449  0  0  0.279063  0  0.929478  0  0  0.285227  0  0.925401  0  0  0.334849  0.274956  0  0.931976  0
H  H49  1  0.81122191  0.17656030  0.70374826  1  0  0.295198  0  0.869487  0  0  0.279036  0  0.929509  0  0  0.285196  0  0.925432  0  0  0.334841  0.274928  0  0.932008  0
H  H50  1  0.68877840  0.67656076  0.20374863  1  0  0.295212  0  0.86947  0  0  0.279049  0  0.929479  0  0  0.285212  0  0.925404  0  0  0.334848  0.274941  0  0.931977  0
H  H51  1  0.18877813  0.82343903  0.29625145  1  0  0.295173  0  0.869503  0  0  0.279023  0  0.929504  0  0  0.285182  0  0.92543  0  0  0.33484  0.274916  0  0.932001  0
H  H52  1  0.49224707  0.59545424  0.92844179  1  0  0.126378  0  0.930275  0  0  0.14614  0  0.988711  0  0  0.14809  0  0.988228  0  0  0.094548  0.144752  0  0.989387  0
H  H53  1  0.99224763  0.90454639  0.57155848  1  0  0.126399  0  0.930276  0  0  0.146171  0  0.988692  0  0  0.148125  0  0.988205  0  0  0.094558  0.14478  0  0.989369  0
H  H54  1  0.50775298  0.40454728  0.07155867  1  0  0.126392  0  0.930309  0  0  0.146168  0  0.988726  0  0  0.148121  0  0.98824  0  0  0.094562  0.144777  0  0.989404  0
H  H55  1  0.00775241  0.09545294  0.42844067  1  0  0.126403  0  0.93037  0  0  0.146179  0  0.988788  0  0  0.148134  0  0.9883  0  0  0.094574  0.144789  0  0.989465  0
H  H56  1  0.99721436  0.62184218  0.67780888  1  0  0.112549  0  0.981449  0  0  0.128914  0  1.051002  0  0  0.13107  0  1.049705  0  0  0.085005  0.127065  0  1.052502  0
H  H57  1  0.49721414  0.87815736  0.82219073  1  0  0.112574  0  0.981447  0  0  0.128937  0  1.050995  0  0  0.131095  0  1.049699  0  0  0.085021  0.12709  0  1.052495  0
H  H58  1  0.00278569  0.37815715  0.32219140  1  0  0.112562  0  0.981433  0  0  0.128925  0  1.050987  0  0  0.131082  0  1.04969  0  0  0.085013  0.127077  0  1.052486  0
H  H59  1  0.50278590  0.12184197  0.17780898  1  0  0.112565  0  0.981429  0  0  0.128928  0  1.050981  0  0  0.131086  0  1.049684  0  0  0.085008  0.127081  0  1.05248  0
H  H60  1  0.91463298  0.71544148  0.76407362  1  0  0.125603  0  0.934887  0  0  0.145586  0  0.993498  0  0  0.147138  0  0.994056  0  0  0.096747  0.144515  0  0.99304  0
H  H61  1  0.41463496  0.78455906  0.73592608  1  0  0.125607  0  0.934887  0  0  0.14559  0  0.993495  0  0  0.147143  0  0.994054  0  0  0.096758  0.144519  0  0.993036  0
H  H62  1  0.08536592  0.28455784  0.23592609  1  0  0.125611  0  0.934864  0  0  0.145585  0  0.993488  0  0  0.147138  0  0.994046  0  0  0.096751  0.144515  0  0.99303  0
H  H63  1  0.58536508  0.21544136  0.26407372  1  0  0.125611  0  0.934877  0  0  0.145596  0  0.993483  0  0  0.147148  0  0.994043  0  0  0.096756  0.144525  0  0.993025  0
H  H64  1  0.07573040  0.79142672  0.72385601  1  0  0.120173  0  0.937744  0  0  0.143348  0  0.993061  0  0  0.145211  0  0.992409  0  0  0.095644  0.141886  0  0.993786  0
H  H65  1  0.57573185  0.70857347  0.77614367  1  0  0.120175  0  0.937744  0  0  0.143342  0  0.993067  0  0  0.14521  0  0.992409  0  0  0.095641  0.141881  0  0.99379  0
H  H66  1  0.92426849  0.20857371  0.27614379  1  0  0.120169  0  0.937745  0  0  0.143344  0  0.993062  0  0  0.145208  0  0.992408  0  0  0.09564  0.141883  0  0.993785  0
H  H67  1  0.42426819  0.29142695  0.22385613  1  0  0.120177  0  0.937739  0  0  0.143336  0  0.993072  0  0  0.14521  0  0.992409  0  0  0.095635  0.141876  0  0.993796  0
C  C68  1  0.19043445  0.80051170  0.90100884  1  0  -0.10747  0  3.762344  0  0  -0.151599  0  4.001523  0  0  -0.149611  0  4.016199  0  0  -0.149508  -0.152673  0  3.991773  0
C  C69  1  0.69043478  0.69948861  0.59899085  1  0  -0.107503  0  3.762322  0  0  -0.151665  0  4.001585  0  0  -0.149684  0  4.016268  0  0  -0.149512  -0.152735  0  3.991833  0
C  C70  1  0.80956559  0.19948763  0.09899144  1  0  -0.107485  0  3.762303  0  0  -0.151667  0  4.001551  0  0  -0.149681  0  4.016228  0  0  -0.14953  -0.152739  0  3.991803  0
C  C71  1  0.30956527  0.30051181  0.40100838  1  0  -0.107473  0  3.762217  0  0  -0.151658  0  4.001487  0  0  -0.149666  0  4.016151  0  0  -0.149494  -0.152732  0  3.991737  0
C  C72  1  0.98252248  0.99243820  0.88012574  1  0  0.230342  0  3.739219  0  0  0.220405  0  4.007253  0  0  0.231125  0  4.025974  0  0  0.098717  0.213604  0  3.993476  0
C  C73  1  0.48252417  0.50756132  0.61987386  1  0  0.230332  0  3.739312  0  0  0.22043  0  4.007305  0  0  0.23115  0  4.026025  0  0  0.098718  0.213627  0  3.993527  0
C  C74  1  0.01747641  0.00756113  0.11987453  1  0  0.230305  0  3.739366  0  0  0.220369  0  4.007395  0  0  0.231089  0  4.026111  0  0  0.09868  0.213567  0  3.993618  0
C  C75  1  0.51747473  0.49244020  0.38012603  1  0  0.230307  0  3.739336  0  0  0.22036  0  4.007354  0  0  0.231081  0  4.026074  0  0  0.09866  0.213559  0  3.993577  0
C  C76  1  0.03417493  0.86771429  0.90941961  1  0  -0.135789  0  3.725747  0  0  -0.122926  0  3.981392  0  0  -0.132971  0  4.00569  0  0  -0.0342  -0.116676  0  3.964839  0
C  C77  1  0.53417517  0.63228586  0.59058064  1  0  -0.135737  0  3.725671  0  0  -0.12292  0  3.981375  0  0  -0.132964  0  4.005676  0  0  -0.034203  -0.116669  0  3.964819  0
C  C78  1  0.96582397  0.13228503  0.09058067  1  0  -0.135753  0  3.725734  0  0  -0.122925  0  3.981437  0  0  -0.132968  0  4.005735  0  0  -0.034212  -0.116671  0  3.964879  0
C  C79  1  0.46582373  0.36771567  0.40941925  1  0  -0.135792  0  3.725751  0  0  -0.122912  0  3.981401  0  0  -0.132961  0  4.005702  0  0  -0.0342  -0.11666  0  3.964838  0
C  C80  1  0.90979795  0.82002459  0.94888481  1  0  0.243243  0  3.702034  0  0  0.224893  0  3.97515  0  0  0.23638  0  3.992043  0  0  0.108584  0.21767  0  3.963064  0
C  C81  1  0.40979985  0.67997706  0.55111441  1  0  0.243171  0  3.702042  0  0  0.224821  0  3.975164  0  0  0.236306  0  3.992058  0  0  0.108548  0.217596  0  3.963075  0
C  C82  1  0.09019866  0.17997584  0.05111499  1  0  0.243185  0  3.702046  0  0  0.224859  0  3.97515  0  0  0.236346  0  3.992041  0  0  0.108559  0.217635  0  3.963065  0
C  C83  1  0.59019905  0.32002447  0.44888548  1  0  0.24318  0  3.702061  0  0  0.224836  0  3.975191  0  0  0.236323  0  3.992084  0  0  0.108549  0.217613  0  3.963103  0
C  C84  1  0.19853524  0.65387670  0.85024049  1  0  -0.13459  0  3.715046  0  0  -0.120957  0  3.964424  0  0  -0.131348  0  3.989675  0  0  -0.031701  -0.114079  0  3.94692  0
C  C85  1  0.69853687  0.84612252  0.64975910  1  0  -0.134581  0  3.715043  0  0  -0.120942  0  3.964451  0  0  -0.131336  0  3.989698  0  0  -0.031679  -0.114071  0  3.946951  0
C  C86  1  0.80146480  0.34612372  0.14975987  1  0  -0.134668  0  3.714977  0  0  -0.120997  0  3.964329  0  0  -0.131389  0  3.989578  0  0  -0.031714  -0.114125  0  3.946831  0
C  C87  1  0.30146432  0.15387571  0.35023995  1  0  -0.134579  0  3.714986  0  0  -0.120926  0  3.964388  0  0  -0.13132  0  3.989637  0  0  -0.031685  -0.11405  0  3.946883  0
C  C88  1  0.89613632  0.69288073  0.99041460  1  0  -0.357752  0  3.696314  0  0  -0.428147  0  3.926451  0  0  -0.432079  0  3.933657  0  0  -0.236941  -0.425472  0  3.921374  0
C  C89  1  0.39613723  0.80711980  0.50958566  1  0  -0.357717  0  3.696248  0  0  -0.428121  0  3.926397  0  0  -0.432055  0  3.933603  0  0  -0.236964  -0.425446  0  3.92132  0
C  C90  1  0.10386372  0.30711860  0.00958624  1  0  -0.35772  0  3.696343  0  0  -0.428137  0  3.926467  0  0  -0.432065  0  3.933681  0  0  -0.236941  -0.425461  0  3.921392  0
C  C91  1  0.60386396  0.19288172  0.49041366  1  0  -0.357701  0  3.696368  0  0  -0.42813  0  3.926518  0  0  -0.432059  0  3.933728  0  0  -0.236941  -0.425455  0  3.921441  0
C  C92  1  0.06728981  0.08328411  0.83157624  1  0  -0.373168  0  3.733975  0  0  -0.448797  0  3.977488  0  0  -0.452924  0  3.984333  0  0  -0.25057  -0.445387  0  3.971589  0
C  C93  1  0.56729152  0.41671560  0.66842317  1  0  -0.373087  0  3.733935  0  0  -0.448719  0  3.977439  0  0  -0.452851  0  3.984294  0  0  -0.250554  -0.445308  0  3.971541  0
C  C94  1  0.93270909  0.91671412  0.16842394  1  0  -0.373157  0  3.733952  0  0  -0.44877  0  3.97745  0  0  -0.452907  0  3.98432  0  0  -0.250555  -0.445359  0  3.971552  0
C  C95  1  0.43270967  0.58328592  0.33157672  1  0  -0.373131  0  3.733977  0  0  -0.448761  0  3.977483  0  0  -0.452895  0  3.984344  0  0  -0.250536  -0.44535  0  3.971584  0
C  C96  1  0.28715643  0.53573950  0.86531735  1  0  0.236844  0  3.721122  0  0  0.222263  0  3.98717  0  0  0.232839  0  4.00542  0  0  0.106352  0.215647  0  3.974451  0
C  C97  1  0.78715820  0.96426091  0.63468291  1  0  0.236903  0  3.721145  0  0  0.222328  0  3.987179  0  0  0.232907  0  4.005418  0  0  0.106372  0.215715  0  3.974457  0
C  C98  1  0.71284361  0.46426092  0.13468358  1  0  0.236883  0  3.721107  0  0  0.222301  0  3.987137  0  0  0.232891  0  4.005371  0  0  0.106343  0.215687  0  3.974418  0
C  C99  1  0.21284299  0.03573951  0.36531632  1  0  0.236855  0  3.7211  0  0  0.222276  0  3.987176  0  0  0.232859  0  4.005408  0  0  0.106335  0.215663  0  3.974453  0
C  C100  1  0.12715082  0.60617678  0.77878970  1  0  0.233076  0  3.730188  0  0  0.223498  0  3.999636  0  0  0.234702  0  4.017314  0  0  0.100671  0.215936  0  3.986975  0
C  C101  1  0.62715249  0.89382457  0.72121064  1  0  0.232958  0  3.730246  0  0  0.22336  0  3.999724  0  0  0.234571  0  4.017395  0  0  0.100591  0.215799  0  3.987065  0
C  C102  1  0.87284923  0.39382365  0.22121066  1  0  0.233055  0  3.730148  0  0  0.223486  0  3.999577  0  0  0.234684  0  4.017263  0  0  0.100665  0.215926  0  3.986918  0
C  C103  1  0.37284870  0.10617476  0.27878907  1  0  0.233047  0  3.730201  0  0  0.223463  0  3.999664  0  0  0.234659  0  4.017358  0  0  0.100652  0.215902  0  3.987005  0
C  C104  1  0.39143492  0.52471870  0.93037690  1  0  -0.36776  0  3.746759  0  0  -0.442606  0  3.984523  0  0  -0.44643  0  3.992627  0  0  -0.241012  -0.439557  0  3.978684  0
C  C105  1  0.89143671  0.97528182  0.56962279  1  0  -0.367828  0  3.746732  0  0  -0.442653  0  3.984527  0  0  -0.446482  0  3.992631  0  0  -0.241035  -0.439604  0  3.978686  0
C  C106  1  0.60856398  0.47527953  0.06962328  1  0  -0.367789  0  3.746719  0  0  -0.442643  0  3.984451  0  0  -0.446479  0  3.992556  0  0  -0.241042  -0.439594  0  3.978611  0
C  C107  1  0.10856333  0.02472080  0.43037662  1  0  -0.367791  0  3.746718  0  0  -0.442652  0  3.984493  0  0  -0.446487  0  3.992597  0  0  -0.241063  -0.439603  0  3.97865  0
C  C108  1  0.02320364  0.68773755  0.73363291  1  0  -0.350812  0  3.714539  0  0  -0.429003  0  3.954886  0  0  -0.432618  0  3.961817  0  0  -0.238283  -0.426073  0  3.950008  0
C  C109  1  0.52320406  0.81226259  0.76636677  1  0  -0.350821  0  3.714545  0  0  -0.428991  0  3.954888  0  0  -0.432612  0  3.961807  0  0  -0.238292  -0.426062  0  3.950009  0
C  C110  1  0.97679640  0.31226177  0.26636680  1  0  -0.350822  0  3.714527  0  0  -0.42901  0  3.954877  0  0  -0.432624  0  3.961806  0  0  -0.238287  -0.426081  0  3.949999  0
C  C111  1  0.47679712  0.18773784  0.23363303  1  0  -0.350821  0  3.714526  0  0  -0.428998  0  3.95488  0  0  -0.432616  0  3.961799  0  0  -0.238267  -0.426068  0  3.950004  0
N  N112  1  0.83517136  0.02026115  0.90104111  1  0  -0.306966  0  3.217584  0  0  -0.250234  0  3.518057  0  0  -0.266669  0  3.533354  0  0  -0.270358  -0.239158  0  3.507199  0
N  N113  1  0.33517245  0.47973885  0.59895888  1  0  -0.306962  0  3.217625  0  0  -0.250237  0  3.51805  0  0  -0.266671  0  3.533347  0  0  -0.27033  -0.23916  0  3.507189  0
N  N114  1  0.16482754  0.97973709  0.09895850  1  0  -0.307005  0  3.217632  0  0  -0.25025  0  3.518071  0  0  -0.266684  0  3.533364  0  0  -0.270331  -0.239173  0  3.507211  0
N  N115  1  0.66482760  0.52026268  0.40104157  1  0  -0.306947  0  3.217687  0  0  -0.25017  0  3.518111  0  0  -0.266604  0  3.533407  0  0  -0.270288  -0.239095  0  3.507251  0
N  N116  1  0.79299049  0.91360148  0.94169594  1  0  -0.207163  0  3.466583  0  0  -0.156526  0  3.706095  0  0  -0.169047  0  3.724811  0  0  -0.287705  -0.148833  0  3.693826  0
N  N117  1  0.29299113  0.58639894  0.55830432  1  0  -0.207128  0  3.466563  0  0  -0.156434  0  3.706006  0  0  -0.168956  0  3.724725  0  0  -0.287669  -0.148742  0  3.693735  0
N  N118  1  0.20700955  0.08639784  0.05830434  1  0  -0.207066  0  3.466474  0  0  -0.156423  0  3.705954  0  0  -0.168944  0  3.724666  0  0  -0.28768  -0.148731  0  3.693684  0
N  N119  1  0.70700891  0.41360259  0.44169557  1  0  -0.207073  0  3.466577  0  0  -0.15645  0  3.706076  0  0  -0.168972  0  3.724792  0  0  -0.287681  -0.148757  0  3.693804  0
N  N120  1  0.16883577  0.46637200  0.75232027  1  0  -0.300529  0  3.20451  0  0  -0.247949  0  3.505396  0  0  -0.263615  0  3.519396  0  0  -0.268999  -0.237151  0  3.495895  0
N  N121  1  0.66883702  0.03362781  0.74767972  1  0  -0.300457  0  3.204456  0  0  -0.247871  0  3.505343  0  0  -0.263541  0  3.519336  0  0  -0.268963  -0.237078  0  3.495847  0
N  N122  1  0.83116427  0.53362842  0.24768066  1  0  -0.300484  0  3.20445  0  0  -0.247934  0  3.505349  0  0  -0.263595  0  3.51935  0  0  -0.26901  -0.237139  0  3.49585  0
N  N123  1  0.33116302  0.96637152  0.25231886  1  0  -0.300514  0  3.204479  0  0  -0.247943  0  3.505385  0  0  -0.263609  0  3.519381  0  0  -0.268995  -0.237149  0  3.495886  0
N  N124  1  0.26556589  0.42620510  0.80547634  1  0  -0.199485  0  3.471582  0  0  -0.149908  0  3.711637  0  0  -0.162084  0  3.730072  0  0  -0.285205  -0.142118  0  3.698767  0
N  N125  1  0.76556834  0.07379592  0.69452375  1  0  -0.199484  0  3.471554  0  0  -0.14991  0  3.711606  0  0  -0.162078  0  3.730033  0  0  -0.285208  -0.142118  0  3.698735  0
N  N126  1  0.73443415  0.57379533  0.19452402  1  0  -0.199454  0  3.471657  0  0  -0.149866  0  3.711711  0  0  -0.162048  0  3.730144  0  0  -0.28517  -0.142075  0  3.698842  0
N  N127  1  0.23443170  0.92620451  0.30547549  1  0  -0.199447  0  3.471601  0  0  -0.149881  0  3.711674  0  0  -0.162047  0  3.730095  0  0  -0.285211  -0.14209  0  3.698805  0
Cl  Cl128  1  0.46473685  0.13017957  0.92554319  1  0  -0.565396  0  0.993039  0  0  -0.502836  0  1.278515  0  0  -0.515284  0  1.253566  0  0  -0.284424  -0.493402  0  1.296512  0
Cl  Cl129  1  0.96473623  0.36981946  0.57445672  1  0  -0.565399  0  0.993046  0  0  -0.502821  0  1.278507  0  0  -0.515267  0  1.253554  0  0  -0.284426  -0.493383  0  1.296493  0
Cl  Cl130  1  0.53526434  0.86981976  0.07445822  1  0  -0.565401  0  0.993073  0  0  -0.50282  0  1.278524  0  0  -0.515269  0  1.253576  0  0  -0.284416  -0.49339  0  1.296527  0
Cl  Cl131  1  0.03526496  0.63018096  0.42554194  1  0  -0.565397  0  0.993058  0  0  -0.502816  0  1.278505  0  0  -0.515266  0  1.253557  0  0  -0.28442  -0.493387  0  1.296506  0
Cl  Cl132  1  0.76708161  0.36955581  0.84364470  1  0  -0.561408  0  0.905443  0  0  -0.489633  0  1.16003  0  0  -0.504107  0  1.137953  0  0  -0.309731  -0.479743  0  1.175312  0
Cl  Cl133  1  0.26708114  0.13044520  0.65635482  1  0  -0.561395  0  0.905453  0  0  -0.489625  0  1.16005  0  0  -0.504094  0  1.137965  0  0  -0.309729  -0.479733  0  1.175332  0
Cl  Cl134  1  0.23291843  0.63044571  0.15635632  1  0  -0.561404  0  0.905426  0  0  -0.489646  0  1.160033  0  0  -0.504112  0  1.137943  0  0  -0.309741  -0.479754  0  1.175315  0
Cl  Cl135  1  0.73291776  0.86955413  0.34364375  1  0  -0.561419  0  0.905429  0  0  -0.489653  0  1.160021  0  0  -0.504122  0  1.137934  0  0  -0.309747  -0.479765  0  1.175304  0
