# generated using pymatgen
data_CuH14C18S4(N3O2)2
_symmetry_space_group_name_H-M   'P 1'
_cell_length_a   9.49960012
_cell_length_b   10.42582637
_cell_length_c   12.05196054
_cell_angle_alpha   86.04478680
_cell_angle_beta   78.06785694
_cell_angle_gamma   67.97397123
_symmetry_Int_Tables_number   1
_chemical_formula_structural   CuH14C18S4(N3O2)2
_chemical_formula_sum   'Cu2 H28 C36 S8 N12 O8'
_cell_volume   1082.56420589
_cell_formula_units_Z   2
loop_
 _symmetry_equiv_pos_site_id
 _symmetry_equiv_pos_as_xyz
  1  'x, y, z'
loop_
 _atom_site_type_symbol
 _atom_site_label
 _atom_site_symmetry_multiplicity
 _atom_site_fract_x
 _atom_site_fract_y
 _atom_site_fract_z
 _atom_site_occupancy
 _atom_site_hle17_ddec_charge
 _atom_site_hle17_ddec_spin_density
 _atom_site_hle17_ddec_sum_bond_order
 _atom_site_hle17_magmom
 _atom_site_hse06_10hf_ddec_charge
 _atom_site_hse06_10hf_ddec_spin_density
 _atom_site_hse06_10hf_ddec_sum_bond_order
 _atom_site_hse06_10hf_magmom
 _atom_site_hse06_ddec_charge
 _atom_site_hse06_ddec_spin_density
 _atom_site_hse06_ddec_sum_bond_order
 _atom_site_hse06_magmom
 _atom_site_pbe_cm5_charge
 _atom_site_pbe_ddec_charge
 _atom_site_pbe_ddec_spin_density
 _atom_site_pbe_ddec_sum_bond_order
 _atom_site_pbe_magmom
Cu  Cu0  1  0.56409240  0.09933675  0.13319355  1  0.856875  0.705535  1.819008  0.491  0.843282  0.79473  2.217935  0.607  0.935176  0.871333  2.145015  0.694  0.751101  0.789184  0.743071  2.268375  0.556
Cu  Cu1  1  0.43590852  0.90066309  0.86680723  1  0.85687  -0.705535  1.818969  -0.491  0.843219  -0.794728  2.217856  -0.607  0.935175  -0.871338  2.144959  -0.694  0.75108  0.789119  -0.743069  2.268374  -0.556
H  H2  1  0.29167571  0.02305041  0.27575176  1  0.122891  0.000218  0.893649  0.001  0.13638  0.000178  0.946302  0.0  0.139556  0.00016  0.941799  0.0  0.153546  0.134069  0.000183  0.94939  0.0
H  H3  1  0.70833459  0.97694211  0.72424781  1  0.122867  -0.000225  0.893682  -0.001  0.136419  -0.000179  0.94625  0.0  0.139597  -0.00016  0.941746  0.0  0.15357  0.134108  -0.000183  0.949335  0.0
H  H4  1  0.64813505  0.26147975  0.32407843  1  0.110786  9.5e-05  0.970141  0.0  0.117358  5.7e-05  1.035552  0.0  0.119565  1.1e-05  1.035487  0.0  0.103623  0.115999  8.9e-05  1.035354  0.0
H  H5  1  0.35185828  0.73853363  0.67591962  1  0.110772  -9.2e-05  0.970069  0.0  0.117347  -5.6e-05  1.035476  0.0  0.119554  -1.2e-05  1.035407  0.0  0.103615  0.11599  -8.9e-05  1.035279  0.0
H  H6  1  0.63855510  0.33993389  0.51751721  1  0.08256  -1e-06  0.971464  0.0  0.092771  -1e-06  1.033871  0.0  0.094862  -4e-06  1.034185  0.0  0.090289  0.090445  -1e-06  1.035783  0.0
H  H7  1  0.36144072  0.66007327  0.48248157  1  0.082507  7e-06  0.971531  0.0  0.092799  1e-06  1.033851  0.0  0.09489  3e-06  1.034165  0.0  0.090287  0.090469  1e-06  1.035764  0.0
H  H8  1  0.46676229  0.29308924  0.68507739  1  0.081871  -2.8e-05  1.008167  0.0  0.089826  -2.6e-05  1.076908  0.0  0.092182  -8e-06  1.077241  0.0  0.091391  0.088567  -6.8e-05  1.075889  0.0
H  H9  1  0.53324339  0.70690950  0.31492347  1  0.081962  2.4e-05  1.008152  0.0  0.089875  2.6e-05  1.076911  0.0  0.092231  9e-06  1.077243  0.0  0.091425  0.088614  6.8e-05  1.075888  0.0
H  H10  1  0.29186737  0.17285749  0.66806807  1  0.113186  0.000374  0.954157  0.0  0.121751  0.00031  1.020077  0.0  0.125342  0.000235  1.017693  0.0  0.102206  0.119134  0.000366  1.022128  0.0
H  H11  1  0.70813912  0.82713919  0.33193193  1  0.113142  -0.000373  0.954146  0.0  0.121758  -0.000309  1.02  0.0  0.125344  -0.000235  1.017627  0.0  0.102228  0.119137  -0.000366  1.022055  0.0
H  H12  1  0.20104657  0.98855479  0.58499291  1  0.110682  9.8e-05  0.921692  0.0  0.1261  0.00011  0.978712  0.0  0.126904  7.2e-05  0.978419  0.0  0.121087  0.125337  0.000115  0.979613  0.0
H  H13  1  0.79895992  0.01145006  0.41501082  1  0.110707  -9.8e-05  0.921747  0.0  0.12614  -0.00011  0.978722  0.0  0.126944  -7.1e-05  0.978432  0.0  0.121101  0.125377  -0.000115  0.979624  0.0
H  H14  1  0.13530933  0.98400526  0.45771765  1  0.090414  -7e-06  0.977837  0.0  0.094758  1.7e-05  1.058176  0.0  0.096444  1.1e-05  1.057294  0.0  0.110617  0.09382  1.4e-05  1.058575  0.0
H  H15  1  0.86469577  0.01599237  0.54228835  1  0.090471  4e-06  0.977747  0.0  0.094776  -1.7e-05  1.058108  0.0  0.096467  -1e-05  1.057222  0.0  0.110626  0.093839  -1.4e-05  1.058507  0.0
H  H16  1  0.80623697  0.56520908  0.00483090  1  0.120105  3.9e-05  0.925435  0.0  0.131701  5.9e-05  0.988899  0.0  0.133444  2.8e-05  0.987857  0.0  0.1226  0.130312  4.1e-05  0.98969  0.0
H  H17  1  0.19376013  0.43479492  0.99517030  1  0.120106  -3.4e-05  0.925474  0.0  0.131693  -5.9e-05  0.988931  0.0  0.133435  -2.7e-05  0.987893  0.0  0.122591  0.130305  -4.1e-05  0.989724  0.0
H  H18  1  0.93710037  0.39448405  0.03428259  1  0.133017  3e-06  0.965376  0.0  0.140629  -1e-05  1.032574  0.0  0.14299  -2e-06  1.031518  0.0  0.123952  0.138671  2.2e-05  1.033451  0.0
H  H19  1  0.06289688  0.60551688  0.96571792  1  0.133019  2e-06  0.965461  0.0  0.140638  1e-05  1.032633  0.0  0.143  2e-06  1.031576  0.0  0.123946  0.138678  -2.2e-05  1.033509  0.0
H  H20  1  0.51682403  0.72510986  0.12164765  1  0.126671  0.000497  0.965392  0.001  0.13529  0.000443  1.029296  0.0  0.139533  0.000266  1.026577  0.0  0.105965  0.132768  0.000829  1.030653  0.0
H  H21  1  0.48317016  0.27488799  0.87835519  1  0.126668  -0.000498  0.96535  -0.001  0.135276  -0.000443  1.029292  0.0  0.13952  -0.000266  1.026574  0.0  0.105943  0.132754  -0.000829  1.03065  0.0
H  H22  1  0.23294388  0.79812682  0.18626230  1  0.09683  -0.000132  0.943504  0.0  0.110933  -0.000145  0.997555  0.0  0.114059  -8.8e-05  0.996167  0.0  0.098992  0.108392  -0.000199  0.999242  0.0
H  H23  1  0.76704842  0.20187310  0.81374159  1  0.096852  0.000136  0.943502  0.0  0.11094  0.000145  0.997575  0.0  0.114069  8.8e-05  0.99618  0.0  0.098975  0.108395  0.000199  0.999265  0.0
H  H24  1  0.10624135  0.62661162  0.22684821  1  0.067747  1.4e-05  1.010404  0.0  0.071683  1.8e-05  1.087683  0.0  0.074014  7e-06  1.087525  0.0  0.080132  0.069626  1e-06  1.0884  0.0
H  H25  1  0.89375371  0.37338119  0.77314811  1  0.067774  -2.2e-05  1.010483  0.0  0.071714  -1.8e-05  1.08775  0.0  0.074046  -7e-06  1.087592  0.0  0.08016  0.06966  -1e-06  1.088461  0.0
H  H26  1  0.26094283  0.37284960  0.20028261  1  0.120867  0.000196  0.953834  0.0  0.129476  0.000129  1.015836  0.0  0.132234  7.3e-05  1.014958  0.0  0.102839  0.127415  0.000158  1.016468  0.0
H  H27  1  0.73905875  0.62714310  0.79971427  1  0.120757  -0.00019  0.953768  0.0  0.129388  -0.00013  1.015765  0.0  0.132148  -7.3e-05  1.014874  0.0  0.102769  0.127323  -0.000158  1.016398  0.0
H  H28  1  0.83724733  0.21316666  0.06382092  1  0.127512  8.1e-05  0.902408  0.0  0.137632  7.4e-05  0.960156  0.0  0.141108  6.3e-05  0.955163  0.0  0.152401  0.134661  6.3e-05  0.96413  0.0
H  H29  1  0.16275643  0.78683416  0.93618016  1  0.127475  -8.7e-05  0.902516  0.0  0.137634  -7.4e-05  0.960207  0.0  0.141106  -6.3e-05  0.955225  0.0  0.15243  0.134666  -6.2e-05  0.964176  0.0
C  C30  1  0.33799539  0.07063594  0.32911208  1  0.238968  -0.005872  3.58561  -0.006  0.178256  -0.001297  3.857272  -0.001  0.199647  -0.002002  3.864854  -0.002  0.175009  0.16507  -0.000835  3.851398  -0.001
C  C31  1  0.66200552  0.92936391  0.67088787  1  0.238989  0.005929  3.585758  0.006  0.178239  0.001296  3.857411  0.001  0.199635  0.002007  3.864993  0.002  0.174976  0.165057  0.000836  3.851525  0.001
C  C32  1  0.46991700  0.17652442  0.38677417  1  0.144308  0.000588  3.802631  0.0  0.143379  0.000972  4.053923  0.001  0.147537  0.000391  4.077455  0.0  0.08456  0.14075  0.001419  4.038146  0.001
C  C33  1  0.53007565  0.82348795  0.61322322  1  0.144369  -0.000581  3.80256  0.0  0.143392  -0.000974  4.053928  -0.001  0.147576  -0.000393  4.077432  0.0  0.084533  0.140748  -0.001419  4.03819  -0.001
C  C34  1  0.56918775  0.24394579  0.39736348  1  -0.1407  0.000878  3.731632  0.001  -0.158846  0.000441  3.981127  0.001  -0.161418  0.000463  4.001661  0.001  -0.09595  -0.157013  0.000446  3.967177  0.001
C  C35  1  0.43080663  0.75606760  0.60263272  1  -0.140827  -0.00085  3.731758  -0.001  -0.158955  -0.000449  3.981266  -0.001  -0.161535  -0.000458  4.001793  -0.001  -0.095973  -0.157113  -0.000446  3.967325  -0.001
C  C36  1  0.56383067  0.28625302  0.50595252  1  -0.075658  -0.000778  3.775842  -0.001  -0.09001  -0.000287  4.026652  0.0  -0.092491  -0.000334  4.049209  0.0  -0.103617  -0.088471  -0.000238  4.013109  0.0
C  C37  1  0.43616252  0.71375525  0.49404332  1  -0.075627  0.000722  3.775786  0.001  -0.090041  0.000295  4.026567  0.0  -0.092524  0.000332  4.049127  0.0  -0.10364  -0.0885  0.000238  4.013024  0.0
C  C38  1  0.46529857  0.26058426  0.60164645  1  -0.075122  0.000842  3.79479  0.001  -0.090636  0.000262  4.048087  0.0  -0.092391  0.00036  4.070293  0.0  -0.101891  -0.088763  0.000171  4.032037  0.0
C  C39  1  0.53470236  0.73942081  0.39834907  1  -0.075131  -0.000829  3.794486  -0.001  -0.090624  -0.000263  4.047867  0.0  -0.092378  -0.000366  4.070071  0.0  -0.101866  -0.088748  -0.000171  4.031813  0.0
C  C40  1  0.36567725  0.19359977  0.59267654  1  -0.153232  -0.000224  3.777757  0.0  -0.178396  0.000158  4.042394  0.0  -0.181852  2.3e-05  4.062717  0.0  -0.102908  -0.175831  0.000267  4.028632  0.0
C  C41  1  0.63432522  0.80640421  0.40732127  1  -0.153263  0.000242  3.777538  0.0  -0.17844  -0.000161  4.042179  0.0  -0.181895  -2e-05  4.062502  0.0  -0.102961  -0.175871  -0.000267  4.028417  0.0
C  C42  1  0.36944442  0.15351557  0.48381093  1  0.091885  0.003328  3.786226  0.004  0.082612  0.002175  4.029639  0.002  0.086198  0.001806  4.052657  0.002  0.085443  0.07947  0.00242  4.014144  0.003
C  C43  1  0.63055165  0.84649364  0.51618769  1  0.092088  -0.003344  3.785987  -0.004  0.082784  -0.002174  4.029484  -0.002  0.086359  -0.001801  4.052504  -0.002  0.085515  0.079645  -0.00242  4.013998  -0.003
C  C44  1  0.16558692  0.04777585  0.51007543  1  -0.03186  0.00066  3.618286  0.001  -0.091308  0.000524  3.880184  0.001  -0.084882  0.000409  3.888638  0.001  -0.033641  -0.096072  0.000561  3.874961  0.001
C  C45  1  0.83441646  0.95222598  0.48992731  1  -0.032083  -0.000648  3.618328  -0.001  -0.091456  -0.000522  3.880143  -0.001  -0.085034  -0.000414  3.888604  -0.001  -0.033689  -0.096224  -0.000561  3.874921  -0.001
C  C46  1  0.95164463  0.27562072  0.43902548  1  0.061882  0.000541  3.807481  0.001  0.056284  0.000279  4.123867  0.0  0.065382  0.000197  4.138126  0.0  0.105016  0.0502  0.000162  4.115084  0.0
C  C47  1  0.04836709  0.72437082  0.56096975  1  0.061787  -0.000545  3.807601  -0.001  0.056264  -0.000282  4.123888  0.0  0.065362  -0.000192  4.138146  0.0  0.10501  0.050182  -0.000162  4.115102  0.0
C  C48  1  0.89435898  0.42296576  0.28022321  1  0.072779  -0.000322  3.775351  0.0  0.069485  1.1e-05  4.085536  0.0  0.080316  -4.2e-05  4.099942  0.0  0.115474  0.062422  -3.9e-05  4.075221  0.0
C  C49  1  0.10564445  0.57702491  0.71977014  1  0.072813  0.000281  3.775362  0.0  0.069516  -9e-06  4.085537  0.0  0.080346  3.8e-05  4.099943  0.0  0.115484  0.062456  3.9e-05  4.075223  0.0
C  C50  1  0.82938465  0.48108364  0.06676005  1  -0.05468  0.00041  3.574054  0.001  -0.10825  0.000406  3.826784  0.001  -0.103063  0.000352  3.835284  0.0  -0.032101  -0.111547  0.000594  3.821334  0.001
C  C51  1  0.17061288  0.51891932  0.93324197  1  -0.054716  -0.000444  3.574197  -0.001  -0.108278  -0.000404  3.826857  -0.001  -0.103095  -0.000355  3.835364  0.0  -0.032101  -0.111572  -0.000594  3.821405  -0.001
C  C52  1  0.54759915  0.50626868  0.12890324  1  0.095265  0.003718  3.76392  0.004  0.085609  0.002276  4.005116  0.003  0.089023  0.001811  4.027635  0.002  0.090098  0.082726  0.002475  3.989745  0.003
C  C53  1  0.45239791  0.49373012  0.87110156  1  0.095111  -0.003762  3.76431  -0.004  0.085536  -0.002278  4.005307  -0.003  0.08895  -0.00181  4.027826  -0.002  0.090037  0.082649  -0.002475  3.989937  -0.003
C  C54  1  0.46325208  0.64819056  0.14162105  1  -0.13393  0.000696  3.724883  0.001  -0.150702  0.000831  3.975093  0.001  -0.153209  0.000428  3.993389  0.001  -0.094448  -0.149475  0.000701  3.962838  0.001
C  C55  1  0.53673899  0.35181246  0.85838372  1  -0.133945  -0.000636  3.724924  -0.001  -0.150789  -0.000833  3.975152  -0.001  -0.153298  -0.000428  3.993452  -0.001  -0.094488  -0.149556  -0.000701  3.962891  -0.001
C  C56  1  0.30362732  0.68802050  0.17869974  1  -0.066064  0.000923  3.761152  0.001  -0.080671  0.000335  4.009619  0.0  -0.082807  0.000412  4.031445  0.0  -0.09794  -0.079572  0.000149  3.995751  0.0
C  C57  1  0.69637044  0.31197111  0.82130365  1  -0.065944  -0.001005  3.760845  -0.001  -0.080525  -0.00033  4.009303  0.0  -0.082662  -0.000415  4.031133  0.0  -0.097856  -0.079428  -0.000149  3.995435  0.0
C  C58  1  0.23179022  0.59026008  0.20142650  1  -0.096102  -0.00073  3.822902  -0.001  -0.112875  -0.000298  4.084352  0.0  -0.115763  -0.000347  4.108325  0.0  -0.111746  -0.110756  -0.000241  4.068044  0.0
C  C59  1  0.76821251  0.40973253  0.79857434  1  -0.096305  0.000832  3.822845  0.001  -0.113089  0.000294  4.084324  0.0  -0.115979  0.000351  4.108295  0.0  -0.111817  -0.11097  0.00024  4.06802  0.0
C  C60  1  0.31619335  0.44868131  0.18708917  1  -0.139389  0.001084  3.731622  0.001  -0.16167  0.000629  3.987242  0.001  -0.1647  0.000608  4.008321  0.001  -0.098775  -0.159598  0.000614  3.972497  0.001
C  C61  1  0.68380747  0.55131338  0.81291188  1  -0.13909  -0.001191  3.731419  -0.001  -0.161424  -0.000626  3.987008  -0.001  -0.164447  -0.000613  4.008079  -0.001  -0.09866  -0.159345  -0.000614  3.97226  -0.001
C  C62  1  0.47636368  0.40736991  0.14978582  1  0.148497  0.000157  3.807807  0.0  0.148118  0.00063  4.05874  0.0  0.152192  -1e-05  4.083349  -0.001  0.083933  0.145746  0.001051  4.042124  0.001
C  C63  1  0.52363681  0.59262574  0.85022022  1  0.148484  -9.1e-05  3.808053  0.0  0.148164  -0.00063  4.058823  0.0  0.152239  1.5e-05  4.083436  0.001  0.083973  0.145793  -0.001051  4.042204  -0.001
C  C64  1  0.72441886  0.29399317  0.09044531  1  0.224877  -0.005019  3.61088  -0.005  0.16144  -0.000721  3.893281  -0.001  0.182973  -0.001446  3.900059  -0.001  0.175018  0.148007  -0.000244  3.888374  0.0
C  C65  1  0.27558019  0.70600871  0.90955817  1  0.224971  0.005085  3.610823  0.005  0.161467  0.000721  3.893225  0.001  0.183002  0.001447  3.900001  0.002  0.174998  0.148035  0.000244  3.888322  0.0
S  S66  1  0.72927729  0.87468798  0.01339689  1  1.490756  -0.010449  5.839362  -0.01  1.40175  -0.001086  6.376135  -0.003  1.465569  -0.00112  6.344531  -0.002  0.525643  1.358327  -0.000695  6.39604  -0.004
S  S67  1  0.27071543  0.12531089  0.98660781  1  1.490939  0.010425  5.839374  0.01  1.401877  0.001103  6.376166  0.003  1.465705  0.001095  6.344566  0.002  0.525653  1.358447  0.000696  6.396069  0.004
S  S68  1  0.99370953  0.19820384  0.56730422  1  0.027831  -0.000194  2.353412  0.0  0.027371  -6e-05  2.688812  0.0  0.024261  -8e-05  2.686978  0.0  0.049151  0.029914  0.000127  2.691765  0.0
S  S69  1  0.00629756  0.80179391  0.43269230  1  0.027982  0.000193  2.353248  0.0  0.027463  6e-05  2.688619  0.0  0.024356  8.3e-05  2.686784  0.0  0.049209  0.030005  -0.000127  2.691564  0.0
S  S70  1  0.89418902  0.45392672  0.42097404  1  0.080088  0.000414  2.496514  0.0  0.080262  0.000358  2.817979  0.0  0.081108  0.000205  2.819326  0.0  0.100522  0.078506  0.000173  2.818813  0.0
S  S71  1  0.10582094  0.54606382  0.57902070  1  0.080081  -0.000405  2.496696  0.0  0.080225  -0.000362  2.818157  0.0  0.08107  -0.000202  2.819504  0.0  0.100478  0.078466  -0.000173  2.818989  0.0
S  S72  1  0.85190092  0.56158919  0.18872757  1  0.090131  0.001488  2.433728  0.001  0.086684  0.000666  2.783489  0.0  0.082953  0.000301  2.781874  0.0  0.076455  0.088644  0.000847  2.784304  0.001
S  S73  1  0.14809583  0.43840762  0.81127407  1  0.090138  -0.001479  2.433545  -0.001  0.086654  -0.000668  2.78333  0.0  0.082923  -0.000297  2.781717  0.0  0.076441  0.088611  -0.000848  2.784147  -0.001
N  N74  1  0.44742901  0.12173018  0.29225599  1  -0.397677  0.057583  3.270012  0.07  -0.36043  0.045441  3.58905  0.058  -0.390402  0.039728  3.601147  0.054  -0.36885  -0.342109  0.04817  3.581915  0.06
N  N75  1  0.55256939  0.87827590  0.70774240  1  -0.397666  -0.057612  3.270013  -0.07  -0.360402  -0.045438  3.589057  -0.058  -0.390401  -0.039729  3.601179  -0.054  -0.368814  -0.342084  -0.048168  3.58195  -0.06
N  N76  1  0.28794161  0.08582250  0.44395479  1  -0.12111  0.000762  3.565702  0.001  -0.030561  0.000965  3.781832  0.001  -0.048494  0.000658  3.807405  0.001  -0.24307  -0.017651  0.001205  3.763695  0.001
N  N77  1  0.71206089  0.91418145  0.55604468  1  -0.121171  -0.000778  3.565884  -0.001  -0.030645  -0.000961  3.782034  -0.001  -0.048576  -0.000659  3.807608  -0.001  -0.243097  -0.017729  -0.001205  3.763881  -0.001
N  N78  1  0.96434916  0.20738909  0.34724318  1  -0.20777  -0.000286  3.030988  0.0  -0.187553  -0.000135  3.320953  0.0  -0.194953  -0.000138  3.335168  0.0  -0.214661  -0.183124  1.8e-05  3.312409  0.0
N  N79  1  0.03565759  0.79260147  0.65275377  1  -0.207821  0.000289  3.031107  0.0  -0.187643  0.000137  3.321052  0.0  -0.195043  0.000133  3.335263  0.0  -0.214727  -0.183218  -1.8e-05  3.312509  0.0
N  N80  1  0.93308718  0.29092824  0.25630534  1  -0.188488  0.000467  3.007208  0.001  -0.168286  0.000188  3.294358  0.0  -0.177558  0.000137  3.308441  0.0  -0.208315  -0.161584  0.000307  3.284439  0.0
N  N81  1  0.06691627  0.70906241  0.74368884  1  -0.188397  -0.000437  3.007208  0.0  -0.168183  -0.000185  3.294352  0.0  -0.177456  -0.00014  3.30844  0.0  -0.208218  -0.161481  -0.000307  3.284433  0.0
N  N82  1  0.70488309  0.43024526  0.09209193  1  -0.108028  0.00116  3.554434  0.002  -0.0198  0.00119  3.772961  0.002  -0.03678  0.00084  3.798089  0.001  -0.239479  -0.008238  0.001431  3.755154  0.002
N  N83  1  0.29511393  0.56975359  0.90791039  1  -0.108012  -0.001152  3.554468  -0.001  -0.01976  -0.001192  3.772904  -0.002  -0.036739  -0.00084  3.79803  -0.001  -0.239448  -0.008198  -0.001431  3.755097  -0.002
N  N84  1  0.59068671  0.27654583  0.12369308  1  -0.412098  0.061658  3.319028  0.075  -0.376491  0.046765  3.647723  0.06  -0.408216  0.040856  3.660743  0.055  -0.381726  -0.358058  0.0492  3.640658  0.061
N  N85  1  0.40931769  0.72345081  0.87631142  1  -0.412128  -0.061705  3.319074  -0.075  -0.376528  -0.046761  3.647741  -0.06  -0.408265  -0.040855  3.660777  -0.055  -0.381739  -0.358105  -0.049194  3.640714  -0.061
O  O86  1  0.67695651  0.82033848  0.92646386  1  -0.705433  0.014821  1.984501  0.017  -0.676849  0.009837  2.263098  0.013  -0.706031  0.006467  2.243638  0.009  -0.357692  -0.656187  0.013135  2.275809  0.017
O  O87  1  0.32304327  0.17966143  0.07353378  1  -0.705492  -0.014823  1.984618  -0.017  -0.676898  -0.009841  2.263232  -0.013  -0.706052  -0.006442  2.243709  -0.009  -0.35768  -0.656233  -0.013135  2.275933  -0.017
O  O88  1  0.88482030  0.78492287  0.02830860  1  -0.68079  0.01682  1.941134  0.021  -0.642954  0.010568  2.182579  0.015  -0.668065  0.006518  2.166254  0.01  -0.35371  -0.624445  0.014694  2.192544  0.02
O  O89  1  0.11517438  0.21507388  0.97169837  1  -0.680847  -0.016757  1.941175  -0.021  -0.64294  -0.010569  2.182587  -0.015  -0.668062  -0.006501  2.166261  -0.01  -0.353706  -0.624434  -0.014692  2.192556  -0.02
O  O90  1  0.71825271  0.02323411  0.98782922  1  -0.657325  0.120187  1.879203  0.152  -0.643886  0.075239  2.155186  0.104  -0.687559  0.055748  2.142794  0.082  -0.3648  -0.616015  0.086783  2.164227  0.115
O  O91  1  0.28174799  0.97676363  0.01217419  1  -0.657343  -0.120191  1.879187  -0.152  -0.643891  -0.075237  2.155183  -0.104  -0.68758  -0.05575  2.142799  -0.082  -0.364798  -0.616019  -0.08678  2.164235  -0.115
O  O92  1  0.61356823  0.89468470  0.12659590  1  -0.683814  0.111695  1.927778  0.143  -0.67064  0.068304  2.222035  0.096  -0.713941  0.050369  2.209855  0.075  -0.37175  -0.64366  0.078257  2.230731  0.105
O  O93  1  0.38642575  0.10531628  0.87340433  1  -0.68391  -0.111737  1.92768  -0.143  -0.670699  -0.06832  2.221918  -0.096  -0.714024  -0.050383  2.209761  -0.075  -0.371769  -0.643718  -0.078272  2.230623  -0.105
