# generated using pymatgen
data_AgH8C6N3O2
_symmetry_space_group_name_H-M   'P 1'
_cell_length_a   5.73981364
_cell_length_b   7.60938676
_cell_length_c   9.07779972
_cell_angle_alpha   89.99408203
_cell_angle_beta   102.96794629
_cell_angle_gamma   89.98562666
_symmetry_Int_Tables_number   1
_chemical_formula_structural   AgH8C6N3O2
_chemical_formula_sum   'Ag2 H16 C12 N6 O4'
_cell_volume   386.37407761
_cell_formula_units_Z   2
loop_
 _symmetry_equiv_pos_site_id
 _symmetry_equiv_pos_as_xyz
  1  'x, y, z'
loop_
 _atom_site_type_symbol
 _atom_site_label
 _atom_site_symmetry_multiplicity
 _atom_site_fract_x
 _atom_site_fract_y
 _atom_site_fract_z
 _atom_site_occupancy
 _atom_site_hle17_bader_spin_density
 _atom_site_hle17_ddec_charge
 _atom_site_hle17_ddec_spin_density
 _atom_site_hle17_ddec_sum_bond_order
 _atom_site_hle17_magmom
 _atom_site_hse06_10hf_bader_spin_density
 _atom_site_hse06_10hf_ddec_charge
 _atom_site_hse06_10hf_ddec_spin_density
 _atom_site_hse06_10hf_ddec_sum_bond_order
 _atom_site_hse06_10hf_magmom
 _atom_site_hse06_bader_spin_density
 _atom_site_hse06_ddec_charge
 _atom_site_hse06_ddec_spin_density
 _atom_site_hse06_ddec_sum_bond_order
 _atom_site_hse06_magmom
 _atom_site_pbe_bader_spin_density
 _atom_site_pbe_cm5_charge
 _atom_site_pbe_ddec_charge
 _atom_site_pbe_ddec_spin_density
 _atom_site_pbe_ddec_sum_bond_order
 _atom_site_pbe_magmom
Ag  Ag0  1  0.52499637  0.71466199  0.23764085  1  0  0.505303  0  1.412828  0  0  0.360099  0  1.83402  0  0  0.388389  0  1.796228  0  0  0.46875  0.34013  0  1.860305  0
Ag  Ag1  1  0.47507915  0.21469459  0.76236234  1  0  0.505305  0  1.412635  0  0  0.360069  0  1.833787  0  0  0.388364  0  1.796009  0  0  0.46879  0.340099  0  1.860075  0
H  H2  1  0.52164558  0.74100729  0.86322114  1  0  0.106045  0  0.970402  0  0  0.113909  0  1.035249  0  0  0.117558  0  1.030451  0  0  0.130952  0.111333  0  1.038343  0
H  H3  1  0.47844291  0.24091987  0.13678930  1  0  0.105999  0  0.970142  0  0  0.113715  0  1.03513  0  0  0.117354  0  1.030345  0  0  0.130857  0.111137  0  1.03823  0
H  H4  1  0.22456808  0.93901059  0.99712967  1  0  0.104555  0  0.986246  0  0  0.110759  0  1.058289  0  0  0.113617  0  1.056171  0  0  0.113171  0.109088  0  1.058981  0
H  H5  1  0.77537285  0.43896296  0.00286771  1  0  0.104727  0  0.985946  0  0  0.110986  0  1.057877  0  0  0.113867  0  1.055734  0  0  0.113193  0.109315  0  1.058569  0
H  H6  1  0.91829933  0.98695849  0.33443547  1  0  0.096669  0  0.945032  0  0  0.110294  0  1.011503  0  0  0.111745  0  1.010525  0  0  0.098857  0.109372  0  1.012204  0
H  H7  1  0.08161848  0.48692819  0.66557281  1  0  0.096628  0  0.944994  0  0  0.110282  0  1.011387  0  0  0.111745  0  1.010397  0  0  0.098835  0.109358  0  1.012085  0
H  H8  1  0.21713142  0.98799917  0.31425721  1  0  0.097787  0  0.928149  0  0  0.115545  0  0.987428  0  0  0.117158  0  0.986302  0  0  0.097932  0.114012  0  0.988705  0
H  H9  1  0.78278237  0.48801515  0.68570865  1  0  0.097937  0  0.927817  0  0  0.115569  0  0.987285  0  0  0.117179  0  0.986162  0  0  0.097939  0.114039  0  0.988561  0
H  H10  1  0.96696030  0.64730231  0.36697196  1  0  0.054715  0  0.958589  0  0  0.066038  0  1.029954  0  0  0.068442  0  1.026939  0  0  0.10177  0.063933  0  1.032823  0
H  H11  1  0.03310047  0.14729177  0.63300858  1  0  0.054539  0  0.958617  0  0  0.065943  0  1.029943  0  0  0.068308  0  1.026966  0  0  0.101815  0.063831  0  1.032819  0
H  H12  1  0.89226730  0.83735073  0.77316225  1  0  0.304978  0  0.936865  0  0  0.283304  0  0.998422  0  0  0.292796  0  0.991662  0  0  0.301549  0.275546  0  1.004346  0
H  H13  1  0.10770190  0.33729369  0.22684977  1  0  0.305036  0  0.936844  0  0  0.283604  0  0.99808  0  0  0.293099  0  0.991313  0  0  0.301635  0.275848  0  1.004001  0
H  H14  1  0.32037293  0.53095409  0.42288311  1  0  0.301731  0  0.929089  0  0  0.290247  0  0.986311  0  0  0.296769  0  0.982175  0  0  0.287339  0.285494  0  0.989311  0
H  H15  1  0.67973865  0.03101151  0.57708808  1  0  0.30188  0  0.928852  0  0  0.290357  0  0.986153  0  0  0.296888  0  0.981996  0  0  0.287397  0.285605  0  0.989156  0
H  H16  1  0.45354783  0.70862281  0.50942408  1  0  0.294537  0  0.908109  0  0  0.282899  0  0.967565  0  0  0.290065  0  0.962027  0  0  0.285303  0.277663  0  0.971742  0
H  H17  1  0.54644493  0.20873806  0.49057233  1  0  0.294301  0  0.908228  0  0  0.282647  0  0.967731  0  0  0.289811  0  0.9622  0  0  0.285139  0.277415  0  0.971901  0
C  C18  1  0.68842679  0.78180777  0.93762760  1  0  0.189155  0  3.702143  0  0  0.131136  0  3.968495  0  0  0.145379  0  3.980475  0  0  0.131421  0.121568  0  3.95992  0
C  C19  1  0.31161522  0.28173176  0.06239286  1  0  0.188851  0  3.702147  0  0  0.130972  0  3.968564  0  0  0.145217  0  3.980541  0  0  0.131418  0.121412  0  3.959982  0
C  C20  1  0.96221998  0.86227318  0.13667126  1  0  0.150018  0  3.784378  0  0  0.154315  0  4.03062  0  0  0.156535  0  4.057578  0  0  0.062996  0.152315  0  4.013364  0
C  C21  1  0.03774343  0.36220443  0.86333065  1  0  0.150193  0  3.784286  0  0  0.154579  0  4.030421  0  0  0.156798  0  4.057387  0  0  0.063224  0.152577  0  4.013164  0
C  C22  1  0.05525999  0.88649299  0.01049525  1  0  -0.076924  0  3.693461  0  0  -0.117922  0  3.954272  0  0  -0.117477  0  3.973827  0  0  -0.008134  -0.118445  0  3.94115  0
C  C23  1  0.94471532  0.38644188  0.98950809  1  0  -0.077286  0  3.693007  0  0  -0.118297  0  3.953815  0  0  -0.117877  0  3.973349  0  0  -0.008063  -0.118817  0  3.940696  0
C  C24  1  0.05559555  0.90643816  0.29930795  1  0  -0.211166  0  3.722308  0  0  -0.256529  0  3.96507  0  0  -0.257892  0  3.977838  0  0  -0.16343  -0.256051  0  3.956977  0
C  C25  1  0.94434461  0.40641189  0.70068583  1  0  -0.211305  0  3.722274  0  0  -0.256707  0  3.965254  0  0  -0.258067  0  3.977995  0  0  -0.163533  -0.256234  0  3.95717  0
C  C26  1  0.10624514  0.74662569  0.40645348  1  0  0.058631  0  3.6  0  0  0.04036  0  3.834405  0  0  0.039809  0  3.848562  0  0  -0.011318  0.041072  0  3.824384  0
C  C27  1  0.89377257  0.24664800  0.59353748  1  0  0.058969  0  3.599661  0  0  0.040735  0  3.833958  0  0  0.040204  0  3.848131  0  0  -0.011288  0.041474  0  3.823883  0
C  C28  1  0.08747921  0.80318953  0.56660795  1  0  0.623833  0  3.898474  0  0  0.578733  0  4.202933  0  0  0.609487  0  4.198608  0  0  0.19687  0.558392  0  4.203559  0
C  C29  1  0.91249883  0.30331800  0.43339416  1  0  0.623126  0  3.898208  0  0  0.578068  0  4.202784  0  0  0.608819  0  4.198467  0  0  0.196648  0.557714  0  4.203408  0
N  N30  1  0.73242480  0.79506200  0.08837679  1  0  -0.424245  0  3.380276  0  0  -0.33448  0  3.673683  0  0  -0.357161  0  3.690672  0  0  -0.394451  -0.318663  0  3.661946  0
N  N31  1  0.26758722  0.29497770  0.91163665  1  0  -0.424017  0  3.380224  0  0  -0.334232  0  3.673496  0  0  -0.356915  0  3.690489  0  0  -0.394435  -0.318415  0  3.661749  0
N  N32  1  0.88051989  0.83612330  0.88760677  1  0  -0.263798  0  3.466863  0  0  -0.194565  0  3.701642  0  0  -0.211185  0  3.718188  0  0  -0.375663  -0.182982  0  3.691076  0
N  N33  1  0.11949447  0.33607019  0.11240782  1  0  -0.263702  0  3.466523  0  0  -0.194658  0  3.701207  0  0  -0.211271  0  3.717744  0  0  -0.375833  -0.183085  0  3.690642  0
N  N34  1  0.34151776  0.66436917  0.41109420  1  0  -0.613791  0  3.194434  0  0  -0.544894  0  3.449322  0  0  -0.566467  0  3.448568  0  0  -0.651532  -0.529919  0  3.449307  0
N  N35  1  0.65852431  0.16442608  0.58888796  1  0  -0.613635  0  3.194199  0  0  -0.544708  0  3.449142  0  0  -0.566278  0  3.448376  0  0  -0.65137  -0.529738  0  3.449123  0
O  O36  1  0.87558849  0.82630906  0.58647201  1  0  -0.65913  0  1.996545  0  0  -0.602454  0  2.226697  0  0  -0.627805  0  2.219034  0  0  -0.334668  -0.584254  0  2.231929  0
O  O37  1  0.12438563  0.32626394  0.41348378  1  0  -0.659069  0  1.996856  0  0  -0.602551  0  2.227  0  0  -0.627902  0  2.219337  0  0  -0.334643  -0.584342  0  2.232238  0
O  O38  1  0.27891999  0.82388946  0.66482152  1  0  -0.638978  0  1.918194  0  0  -0.586914  0  2.146806  0  0  -0.609892  0  2.136762  0  0  -0.337864  -0.569716  0  2.152123  0
O  O39  1  0.72103954  0.32431523  0.33524642  1  0  -0.638401  0  1.917862  0  0  -0.586251  0  2.146432  0  0  -0.609212  0  2.136359  0  0  -0.337577  -0.56908  0  2.151822  0
