# generated using pymatgen
data_CoH12C16(N4O)2
_symmetry_space_group_name_H-M   'P 1'
_cell_length_a   7.05874883
_cell_length_b   10.14139699
_cell_length_c   12.14534803
_cell_angle_alpha   89.99993054
_cell_angle_beta   90.00002574
_cell_angle_gamma   104.53169449
_symmetry_Int_Tables_number   1
_chemical_formula_structural   CoH12C16(N4O)2
_chemical_formula_sum   'Co2 H24 C32 N16 O4'
_cell_volume   841.61771281
_cell_formula_units_Z   2
loop_
 _symmetry_equiv_pos_site_id
 _symmetry_equiv_pos_as_xyz
  1  'x, y, z'
loop_
 _atom_site_type_symbol
 _atom_site_label
 _atom_site_symmetry_multiplicity
 _atom_site_fract_x
 _atom_site_fract_y
 _atom_site_fract_z
 _atom_site_occupancy
 _atom_site_hle17_ddec_charge
 _atom_site_hle17_ddec_spin_density
 _atom_site_hle17_ddec_sum_bond_order
 _atom_site_hle17_magmom
 _atom_site_hse06_10hf_ddec_charge
 _atom_site_hse06_10hf_ddec_spin_density
 _atom_site_hse06_10hf_ddec_sum_bond_order
 _atom_site_hse06_10hf_magmom
 _atom_site_hse06_ddec_charge
 _atom_site_hse06_ddec_spin_density
 _atom_site_hse06_ddec_sum_bond_order
 _atom_site_hse06_magmom
 _atom_site_pbe_cm5_charge
 _atom_site_pbe_ddec_charge
 _atom_site_pbe_ddec_spin_density
 _atom_site_pbe_ddec_sum_bond_order
 _atom_site_pbe_magmom
Co  Co0  1  0.00000267  0.00000234  0.99999934  1  1.080448  2.897335  2.184092  2.581  1.071995  2.852929  2.597483  2.633  1.140877  2.898512  2.518288  2.716  0.713009  1.012592  2.802671  2.660923  2.541
Co  Co1  1  0.49999943  0.50000125  0.50000031  1  1.080451  2.897257  2.18415  2.581  1.072093  2.852911  2.597493  2.633  1.14099  2.898505  2.518293  2.716  0.713064  1.012713  2.802563  2.660976  2.541
H  H2  1  0.97648426  0.21539525  0.19990783  1  0.108299  -0.000946  0.948494  -0.001  0.118039  -0.000279  1.009201  0.0  0.120157  -0.000294  1.007807  0.0  0.130892  0.116536  -0.000238  1.010252  0.0
H  H3  1  0.47648296  0.71539902  0.30009320  1  0.108231  -0.000947  0.948547  -0.001  0.118001  -0.000279  1.009235  0.0  0.12012  -0.000293  1.007838  0.0  0.130893  0.116508  -0.000239  1.010282  0.0
H  H4  1  0.02351519  0.78460112  0.80009443  1  0.108255  -0.000946  0.948538  -0.001  0.117998  -0.000279  1.00926  0.0  0.120114  -0.000293  1.007869  0.0  0.130893  0.116493  -0.000238  1.010309  0.0
H  H5  1  0.52351562  0.28460653  0.69990329  1  0.10829  -0.000944  0.948547  -0.001  0.117988  -0.000279  1.009279  0.0  0.120106  -0.000295  1.007887  0.0  0.130891  0.116494  -0.000239  1.010322  0.0
H  H6  1  0.85768925  0.20821198  0.39678979  1  0.125456  0.000121  0.926893  0.0  0.136672  -2.1e-05  0.981406  0.0  0.139975  -3.5e-05  0.980637  0.0  0.116412  0.134314  -7e-06  0.982121  0.0
H  H7  1  0.35769064  0.70821194  0.10321287  1  0.12543  0.000122  0.926946  0.0  0.136649  -2.2e-05  0.981456  0.0  0.13995  -3.5e-05  0.980689  0.0  0.11641  0.134294  -6e-06  0.98216  0.0
H  H8  1  0.14231095  0.79178643  0.60321165  1  0.125385  0.000121  0.926976  0.0  0.136612  -2.2e-05  0.98148  0.0  0.139913  -3.5e-05  0.980715  0.0  0.116402  0.134251  -7e-06  0.982195  0.0
H  H9  1  0.64230569  0.29178750  0.89678527  1  0.125389  0.000122  0.92698  0.0  0.136621  -2.2e-05  0.981481  0.0  0.139921  -3.5e-05  0.980717  0.0  0.116404  0.134261  -7e-06  0.982181  0.0
H  H10  1  0.57001369  0.15556030  0.51998921  1  0.094421  2.7e-05  0.950293  0.0  0.105083  6e-06  1.01892  0.0  0.107577  -3.7e-05  1.018168  0.0  0.094674  0.103414  9.7e-05  1.019201  0.0
H  H11  1  0.07001226  0.65555565  0.98001112  1  0.094396  2.7e-05  0.950386  0.0  0.10506  6e-06  1.019017  0.0  0.107555  -3.9e-05  1.018263  0.0  0.094672  0.103388  9.8e-05  1.01929  0.0
H  H12  1  0.42998339  0.84444118  0.48001223  1  0.094405  2.7e-05  0.950331  0.0  0.105068  6e-06  1.018958  0.0  0.107563  -3.8e-05  1.018203  0.0  0.094671  0.103396  9.7e-05  1.019241  0.0
H  H13  1  0.92998606  0.34443766  0.01998702  1  0.094402  2.8e-05  0.950301  0.0  0.105052  6e-06  1.018932  0.0  0.107546  -3.9e-05  1.018177  0.0  0.094658  0.10338  9.8e-05  1.019206  0.0
H  H14  1  0.33668537  0.06897670  0.46939784  1  0.091362  0.000121  0.920171  0.0  0.107609  0.000115  0.978013  0.0  0.108892  7.8e-05  0.977822  0.0  0.097099  0.106792  0.000154  0.978078  0.0
H  H15  1  0.83668488  0.56897148  0.03060331  1  0.091392  0.000121  0.920169  0.0  0.107645  0.000115  0.978005  0.0  0.108927  7.8e-05  0.977814  0.0  0.097109  0.106825  0.000153  0.978069  0.0
H  H16  1  0.66331275  0.93102375  0.53060442  1  0.091395  0.00012  0.920166  0.0  0.10764  0.000115  0.978005  0.0  0.108922  7.8e-05  0.977814  0.0  0.097118  0.106823  0.000154  0.978068  0.0
H  H17  1  0.16331486  0.43102183  0.96939566  1  0.091355  0.000121  0.92018  0.0  0.107584  0.000115  0.978034  0.0  0.108864  7.8e-05  0.977845  0.0  0.097104  0.106765  0.000153  0.978091  0.0
H  H18  1  0.31079874  0.94917282  0.28422362  1  0.114096  -3.2e-05  0.97667  0.0  0.122385  -0.000111  1.039556  0.0  0.124774  -0.000122  1.04013  0.0  0.109762  0.120659  -9.7e-05  1.039438  0.0
H  H19  1  0.81080288  0.44916902  0.21577715  1  0.114104  -3.3e-05  0.976712  0.0  0.122404  -0.000111  1.039584  0.0  0.124792  -0.000122  1.040158  0.0  0.109766  0.120683  -9.8e-05  1.039464  0.0
H  H20  1  0.68919767  0.05083070  0.71577700  1  0.11411  -3.2e-05  0.976714  0.0  0.122412  -0.000111  1.039581  0.0  0.124801  -0.000122  1.040155  0.0  0.109765  0.120683  -9.7e-05  1.039463  0.0
H  H21  1  0.18919931  0.55082326  0.78422429  1  0.114106  -3.3e-05  0.976726  0.0  0.122401  -0.000111  1.039599  0.0  0.124789  -0.000122  1.040174  0.0  0.109754  0.120679  -9.8e-05  1.03948  0.0
H  H22  1  0.44814157  0.96923489  0.09263587  1  0.122637  -0.000748  0.952304  -0.001  0.126205  -0.000169  1.022367  0.0  0.131048  -0.000249  1.01786  0.0  0.129991  0.122615  -3.7e-05  1.025548  0.0
H  H23  1  0.94814406  0.46923389  0.40736574  1  0.12262  -0.000748  0.952222  -0.001  0.126172  -0.000169  1.022311  0.0  0.131015  -0.00025  1.017805  0.0  0.130008  0.122591  -3.8e-05  1.025501  0.0
H  H24  1  0.55185409  0.03076659  0.90736475  1  0.122575  -0.000748  0.952307  -0.001  0.126189  -0.000169  1.022345  0.0  0.131032  -0.00025  1.017839  0.0  0.129992  0.122597  -3.7e-05  1.025523  0.0
H  H25  1  0.05185905  0.53076859  0.59263488  1  0.122615  -0.000748  0.95224  -0.001  0.126172  -0.000169  1.022336  0.0  0.131015  -0.00025  1.01783  0.0  0.130001  0.122589  -3.8e-05  1.025525  0.0
C  C26  1  0.83128072  0.15952038  0.22559587  1  0.016134  0.010476  3.625078  0.014  -0.028607  0.00676  3.891628  0.009  -0.022067  0.005387  3.906187  0.008  0.041035  -0.032799  0.008723  3.882192  0.011
C  C27  1  0.33128790  0.65952415  0.27440848  1  0.016213  0.010482  3.624596  0.014  -0.028578  0.006762  3.891177  0.009  -0.022036  0.005389  3.905733  0.008  0.041002  -0.032767  0.008724  3.881737  0.011
C  C28  1  0.16871627  0.84047702  0.77440722  1  0.016207  0.010475  3.624926  0.014  -0.028554  0.006761  3.891494  0.009  -0.022014  0.005387  3.906056  0.008  0.041034  -0.032745  0.008724  3.882053  0.011
C  C29  1  0.66871097  0.34047835  0.72558884  1  0.016114  0.010471  3.624707  0.014  -0.028579  0.006761  3.891259  0.009  -0.022036  0.005391  3.905812  0.008  0.041047  -0.032771  0.008723  3.881814  0.011
C  C30  1  0.76243888  0.15261138  0.33254957  1  -0.138359  -0.014136  3.701497  -0.01  -0.157442  -0.005741  3.956117  -0.004  -0.164069  -0.006328  3.975649  -0.004  -0.07439  -0.153142  -0.005423  3.943058  -0.004
C  C31  1  0.26243887  0.65261125  0.16744901  1  -0.138321  -0.01414  3.701314  -0.01  -0.157399  -0.005741  3.955944  -0.004  -0.164025  -0.006327  3.975475  -0.004  -0.074345  -0.153091  -0.005424  3.942862  -0.004
C  C32  1  0.23756132  0.84738703  0.66745105  1  -0.138279  -0.014131  3.701496  -0.01  -0.157377  -0.00574  3.956123  -0.004  -0.164004  -0.006331  3.975657  -0.004  -0.074369  -0.15308  -0.005423  3.943062  -0.004
C  C33  1  0.73756028  0.34738818  0.83254914  1  -0.138234  -0.014137  3.701334  -0.01  -0.157341  -0.00574  3.955941  -0.004  -0.163967  -0.006325  3.975473  -0.004  -0.07436  -0.153028  -0.005424  3.942849  -0.004
C  C34  1  0.57208447  0.07739120  0.35734756  1  0.155284  0.011619  3.709751  0.015  0.163932  0.007715  3.956204  0.01  0.16964  0.006081  3.977884  0.008  0.012468  0.160493  0.009869  3.940893  0.012
C  C35  1  0.07208832  0.57739007  0.14265352  1  0.155313  0.01161  3.70983  0.015  0.163978  0.007714  3.956263  0.01  0.169684  0.006084  3.977945  0.008  0.012461  0.160547  0.009867  3.940939  0.012
C  C36  1  0.42791186  0.92260824  0.64265388  1  0.155246  0.011612  3.709869  0.015  0.16391  0.007714  3.956299  0.01  0.169617  0.006083  3.97798  0.008  0.012448  0.160472  0.009868  3.940982  0.012
C  C37  1  0.92791113  0.42260630  0.85734545  1  0.15517  0.011612  3.70997  0.015  0.163836  0.007714  3.956402  0.01  0.16954  0.006083  3.978087  0.008  0.012456  0.160401  0.009866  3.941075  0.012
C  C38  1  0.49160350  0.06675959  0.47198815  1  -0.154792  3.4e-05  3.670143  0.0  -0.196456  0.000503  3.92408  0.0  -0.198695  0.000244  3.93471  0.0  -0.156477  -0.194629  0.000841  3.916141  0.001
C  C39  1  0.99160339  0.56675538  0.02801139  1  -0.154861  3.4e-05  3.670254  0.0  -0.196549  0.000503  3.924206  0.0  -0.198788  0.000237  3.934839  0.0  -0.15652  -0.194721  0.000841  3.91626  0.001
C  C40  1  0.50839462  0.93324087  0.52801329  1  -0.154823  3.6e-05  3.670174  0.0  -0.196479  0.000503  3.924081  0.0  -0.198715  0.000244  3.93471  0.0  -0.1565  -0.194648  0.000841  3.916141  0.001
C  C41  1  0.00839531  0.43323895  0.97198758  1  -0.154696  3.1e-05  3.670146  0.0  -0.196328  0.000503  3.924066  0.0  -0.198561  0.000237  3.934692  0.0  -0.15646  -0.194501  0.000841  3.916118  0.001
C  C42  1  0.45956501  0.00908747  0.26999726  1  -0.157145  -0.014053  3.725241  -0.01  -0.174222  -0.005469  3.975542  -0.004  -0.182466  -0.006204  3.998093  -0.004  -0.081381  -0.168945  -0.004909  3.960455  -0.004
C  C43  1  0.95956675  0.50908399  0.23000398  1  -0.157311  -0.014042  3.725154  -0.01  -0.174403  -0.00547  3.97546  -0.004  -0.182647  -0.006205  3.998011  -0.004  -0.081417  -0.169118  -0.004913  3.960368  -0.004
C  C44  1  0.54043348  0.99091400  0.73000336  1  -0.157221  -0.014046  3.725267  -0.01  -0.174302  -0.005469  3.975588  -0.004  -0.182544  -0.006206  3.998138  -0.004  -0.081383  -0.169021  -0.004909  3.960491  -0.004
C  C45  1  0.04043516  0.49091135  0.76999581  1  -0.157162  -0.014043  3.725166  -0.01  -0.174248  -0.00547  3.975489  -0.004  -0.182489  -0.006206  3.998036  -0.004  -0.08136  -0.168969  -0.004912  3.960408  -0.004
C  C46  1  0.53200783  0.01717414  0.16379117  1  0.027578  0.011153  3.591455  0.015  -0.015345  0.007195  3.853603  0.009  -0.009055  0.005822  3.867011  0.008  0.044342  -0.019109  0.008924  3.844889  0.011
C  C47  1  0.03201673  0.51717475  0.33621325  1  0.027721  0.011149  3.591336  0.015  -0.015198  0.007194  3.853504  0.009  -0.008907  0.005824  3.866912  0.008  0.044384  -0.018961  0.00892  3.844806  0.011
C  C48  1  0.46798746  0.98282633  0.83621110  1  0.027716  0.01115  3.591376  0.015  -0.015304  0.007194  3.853604  0.009  -0.009011  0.00582  3.867004  0.008  0.044319  -0.01907  0.008923  3.844882  0.011
C  C49  1  0.96798526  0.48282467  0.66378654  1  0.027618  0.011146  3.591301  0.015  -0.015331  0.007193  3.853505  0.009  -0.009038  0.005824  3.866908  0.008  0.044339  -0.019096  0.008919  3.844804  0.011
C  C50  1  0.67157700  0.75256861  0.89537216  1  0.48791  -0.018489  3.996251  -0.01  0.464999  -0.00171  4.28042  0.004  0.491682  -0.001807  4.290054  0.003  0.30197  0.444768  -0.00304  4.274552  0.003
C  C51  1  0.17158221  0.25256822  0.60462810  1  0.488118  -0.018492  3.996167  -0.01  0.465211  -0.001709  4.280306  0.004  0.491896  -0.001809  4.289932  0.003  0.302063  0.444988  -0.003045  4.274457  0.003
C  C52  1  0.32842820  0.24743181  0.10462763  1  0.487916  -0.018495  3.99627  -0.01  0.465012  -0.001711  4.280439  0.004  0.491695  -0.001806  4.290067  0.003  0.301941  0.444779  -0.00304  4.274569  0.003
C  C53  1  0.82841695  0.74743121  0.39536922  1  0.488001  -0.018496  3.996166  -0.01  0.465097  -0.001708  4.280332  0.004  0.49178  -0.001813  4.289962  0.003  0.302009  0.444873  -0.003046  4.274484  0.003
C  C54  1  0.53788412  0.62508021  0.74500846  1  0.473559  -0.034471  3.996141  -0.021  0.451608  -0.008235  4.278062  -0.002  0.478612  -0.006399  4.288015  -0.001  0.293008  0.431048  -0.011724  4.272165  -0.004
C  C55  1  0.03789125  0.12508469  0.75499189  1  0.473617  -0.034477  3.996443  -0.021  0.451657  -0.008232  4.278348  -0.002  0.478662  -0.006396  4.288291  -0.001  0.29304  0.431081  -0.011716  4.272434  -0.004
C  C56  1  0.46211154  0.37492128  0.25499215  1  0.473638  -0.034482  3.996048  -0.021  0.451695  -0.008235  4.277981  -0.002  0.478701  -0.006401  4.287925  -0.001  0.292958  0.431132  -0.011725  4.272093  -0.004
C  C57  1  0.96211111  0.87491574  0.24500543  1  0.473516  -0.034477  3.996231  -0.021  0.451569  -0.008232  4.278149  -0.002  0.478572  -0.006402  4.288098  -0.001  0.292985  0.430994  -0.011717  4.272246  -0.004
N  N58  1  0.71584713  0.09329239  0.14263326  1  0.254614  -0.015765  3.707943  -0.015  0.31008  -0.007208  3.97635  -0.007  0.310027  -0.008255  4.000281  -0.007  -0.11832  0.308525  -0.005458  3.959276  -0.006
N  N59  1  0.21584680  0.59329097  0.35736784  1  0.254614  -0.01576  3.707975  -0.015  0.310082  -0.007207  3.976401  -0.007  0.310029  -0.008271  4.000333  -0.007  -0.118337  0.30853  -0.00546  3.95934  -0.006
N  N60  1  0.28415382  0.90670805  0.85736736  1  0.254661  -0.015763  3.70795  -0.015  0.310143  -0.007207  3.976377  -0.007  0.310091  -0.008256  4.000308  -0.007  -0.118283  0.308591  -0.005457  3.959297  -0.006
N  N61  1  0.78415490  0.40671151  0.64263196  1  0.25475  -0.015754  3.707938  -0.015  0.310207  -0.007206  3.976341  -0.007  0.310153  -0.00827  4.000273  -0.007  -0.118316  0.308656  -0.00546  3.959279  -0.006
N  N62  1  0.78229410  0.83748486  0.94581531  1  -0.589884  0.034716  2.941216  0.054  -0.57591  0.025579  3.234476  0.035  -0.599913  0.02109  3.235058  0.029  -0.378429  -0.5573  0.030979  3.235209  0.042
N  N63  1  0.28229780  0.33748047  0.55417748  1  -0.589994  0.034721  2.94111  0.054  -0.576045  0.025581  3.23438  0.035  -0.600059  0.021092  3.234976  0.029  -0.378453  -0.55744  0.030976  3.235142  0.042
N  N64  1  0.21771326  0.16251760  0.05418283  1  -0.589846  0.03472  2.941313  0.054  -0.575874  0.025578  3.234567  0.035  -0.599885  0.021089  3.235163  0.029  -0.378415  -0.55726  0.030978  3.235294  0.042
N  N65  1  0.71770211  0.66252100  0.44582149  1  -0.589921  0.034724  2.94118  0.054  -0.575975  0.025582  3.234452  0.035  -0.599985  0.021091  3.235045  0.029  -0.378418  -0.557366  0.030975  3.235212  0.042
N  N66  1  0.54128978  0.65562616  0.84903593  1  -0.466265  0.002716  3.269965  0.01  -0.422128  0.000777  3.528478  0.005  -0.445622  -0.000155  3.531028  0.003  -0.31834  -0.404438  0.003243  3.527156  0.009
N  N67  1  0.04129613  0.15562876  0.65097016  1  -0.466329  0.002713  3.27033  0.01  -0.422184  0.000779  3.528829  0.005  -0.445677  -0.000149  3.531369  0.003  -0.318376  -0.404497  0.003254  3.527518  0.009
N  N68  1  0.45871400  0.34437427  0.15096715  1  -0.466284  0.002712  3.269924  0.01  -0.422166  0.000777  3.528463  0.005  -0.445659  -0.000158  3.531007  0.003  -0.318222  -0.404476  0.003243  3.527144  0.009
N  N69  1  0.95870615  0.84436760  0.34902634  1  -0.466242  0.002713  3.270137  0.01  -0.422124  0.000777  3.528665  0.005  -0.445612  -0.000146  3.531204  0.003  -0.318342  -0.404436  0.003253  3.527358  0.009
N  N70  1  0.51467692  0.58593022  0.65348619  1  -0.576459  0.036603  2.956725  0.066  -0.558817  0.02444  3.242637  0.039  -0.58198  0.021233  3.240282  0.033  -0.376103  -0.541545  0.028172  3.246127  0.045
N  N71  1  0.01468087  0.08593357  0.84651337  1  -0.576533  0.036615  2.956796  0.066  -0.558871  0.024444  3.242706  0.039  -0.582038  0.021231  3.240344  0.033  -0.37614  -0.541589  0.02819  3.246164  0.045
N  N72  1  0.48531808  0.41407331  0.34651525  1  -0.576527  0.036614  2.956649  0.066  -0.558884  0.024442  3.242571  0.039  -0.58205  0.021237  3.240213  0.033  -0.376127  -0.54161  0.028174  3.246064  0.045
N  N73  1  0.98532478  0.91407196  0.15348477  1  -0.576464  0.036615  2.956707  0.066  -0.558798  0.024445  3.242612  0.039  -0.581965  0.021235  3.240256  0.033  -0.376103  -0.541506  0.028189  3.246058  0.045
O  O74  1  0.78343745  0.10297258  0.03987787  1  -0.528663  0.042398  1.849177  0.076  -0.513721  0.029382  2.115723  0.051  -0.54899  0.020699  2.115578  0.036  -0.224776  -0.483619  0.038614  2.113425  0.065
O  O75  1  0.28345475  0.60298421  0.46012241  1  -0.528707  0.042403  1.849224  0.076  -0.51372  0.029388  2.115677  0.051  -0.548995  0.020707  2.115537  0.036  -0.224725  -0.483614  0.038615  2.113399  0.065
O  O76  1  0.21656104  0.89702889  0.96012439  1  -0.528746  0.042405  1.849229  0.076  -0.513743  0.029386  2.115719  0.051  -0.549014  0.020704  2.115574  0.036  -0.224779  -0.483645  0.038621  2.113422  0.065
O  O77  1  0.71654628  0.39702031  0.53987574  1  -0.528783  0.042409  1.849158  0.076  -0.513767  0.02939  2.115591  0.051  -0.549042  0.020706  2.115448  0.036  -0.224755  -0.483665  0.038619  2.113316  0.065
