# generated using pymatgen
data_CdH5C5I2NO
_symmetry_space_group_name_H-M   'P 1'
_cell_length_a   6.91316072
_cell_length_b   10.98834807
_cell_length_c   13.40166147
_cell_angle_alpha   107.47405515
_cell_angle_beta   89.98631712
_cell_angle_gamma   90.01118317
_symmetry_Int_Tables_number   1
_chemical_formula_structural   CdH5C5I2NO
_chemical_formula_sum   'Cd4 H20 C20 I8 N4 O4'
_cell_volume   971.06689279
_cell_formula_units_Z   4
loop_
 _symmetry_equiv_pos_site_id
 _symmetry_equiv_pos_as_xyz
  1  'x, y, z'
loop_
 _atom_site_type_symbol
 _atom_site_label
 _atom_site_symmetry_multiplicity
 _atom_site_fract_x
 _atom_site_fract_y
 _atom_site_fract_z
 _atom_site_occupancy
 _atom_site_hle17_bader_spin_density
 _atom_site_hle17_ddec_charge
 _atom_site_hle17_ddec_spin_density
 _atom_site_hle17_ddec_sum_bond_order
 _atom_site_hle17_magmom
 _atom_site_hse06_10hf_bader_spin_density
 _atom_site_hse06_10hf_ddec_charge
 _atom_site_hse06_10hf_ddec_spin_density
 _atom_site_hse06_10hf_ddec_sum_bond_order
 _atom_site_hse06_10hf_magmom
 _atom_site_hse06_bader_spin_density
 _atom_site_hse06_ddec_charge
 _atom_site_hse06_ddec_spin_density
 _atom_site_hse06_ddec_sum_bond_order
 _atom_site_hse06_magmom
 _atom_site_pbe_bader_spin_density
 _atom_site_pbe_cm5_charge
 _atom_site_pbe_ddec_charge
 _atom_site_pbe_ddec_spin_density
 _atom_site_pbe_ddec_sum_bond_order
 _atom_site_pbe_magmom
Cd  Cd0  1  0.24504747  0.07788008  0.05342199  1  0  0.810753  0  2.066784  0  0  0.662629  0  2.536833  0  0  0.713663  0  2.494098  0  0  0.457958  0.627817  0  2.565481  0
Cd  Cd1  1  0.74505147  0.92218421  0.44659734  1  0  0.810667  0  2.066294  0  0  0.662543  0  2.536371  0  0  0.713565  0  2.493644  0  0  0.458032  0.627715  0  2.565045  0
Cd  Cd2  1  0.75497932  0.92210828  0.94655874  1  0  0.810607  0  2.06708  0  0  0.662477  0  2.537158  0  0  0.713509  0  2.494432  0  0  0.457898  0.627663  0  2.565794  0
Cd  Cd3  1  0.25497821  0.07781656  0.55338427  1  0  0.810649  0  2.066367  0  0  0.662532  0  2.536421  0  0  0.713551  0  2.493699  0  0  0.458057  0.627762  0  2.564973  0
H  H4  1  0.49790940  0.19583806  0.83049472  1  0  0.110209  0  0.967163  0  0  0.113597  0  1.039841  0  0  0.117743  0  1.035227  0  0  0.107673  0.110629  0  1.042899  0
H  H5  1  0.99784476  0.80420026  0.66949948  1  0  0.110165  0  0.967195  0  0  0.113508  0  1.03996  0  0  0.11765  0  1.035355  0  0  0.107709  0.110554  0  1.043001  0
H  H6  1  0.50204940  0.80414065  0.16949553  1  0  0.110423  0  0.967156  0  0  0.11386  0  1.039726  0  0  0.118  0  1.035118  0  0  0.107857  0.110881  0  1.042792  0
H  H7  1  0.00215454  0.19581371  0.33050485  1  0  0.110134  0  0.967203  0  0  0.113515  0  1.039885  0  0  0.117666  0  1.035266  0  0  0.10763  0.110509  0  1.042972  0
H  H8  1  0.61099026  0.41454318  0.83009533  1  0  0.108257  0  0.96623  0  0  0.114027  0  1.031235  0  0  0.117551  0  1.03013  0  0  0.094848  0.111407  0  1.032118  0
H  H9  1  0.11101938  0.58547247  0.66984760  1  0  0.108068  0  0.967144  0  0  0.114022  0  1.031901  0  0  0.117631  0  1.030675  0  0  0.094888  0.111396  0  1.032807  0
H  H10  1  0.38900615  0.58545826  0.16992152  1  0  0.1083  0  0.966322  0  0  0.114017  0  1.031358  0  0  0.117541  0  1.030255  0  0  0.09484  0.111441  0  1.032196  0
H  H11  1  0.88897124  0.41454623  0.33016240  1  0  0.10802  0  0.967102  0  0  0.113983  0  1.031846  0  0  0.11759  0  1.03062  0  0  0.094902  0.111353  0  1.032767  0
H  H12  1  0.80533163  0.54630715  0.98195005  1  0  0.098267  0  0.953959  0  0  0.105359  0  1.020498  0  0  0.108579  0  1.018113  0  0  0.098609  0.102652  0  1.022943  0
H  H13  1  0.30540036  0.45355157  0.51809352  1  0  0.099031  0  0.953436  0  0  0.105911  0  1.020071  0  0  0.109156  0  1.017623  0  0  0.098966  0.103198  0  1.022513  0
H  H14  1  0.19468069  0.45370477  0.01807092  1  0  0.098236  0  0.953533  0  0  0.105205  0  1.02029  0  0  0.108418  0  1.017903  0  0  0.098527  0.102503  0  1.022736  0
H  H15  1  0.69458882  0.54645843  0.48192846  1  0  0.099049  0  0.953283  0  0  0.105926  0  1.019932  0  0  0.109182  0  1.017476  0  0  0.098964  0.103212  0  1.022372  0
H  H16  1  0.88427658  0.45345439  0.12829367  1  0  0.110093  0  0.968807  0  0  0.117438  0  1.031873  0  0  0.121246  0  1.029914  0  0  0.094694  0.115093  0  1.032667  0
H  H17  1  0.38421745  0.54648230  0.37181328  1  0  0.110031  0  0.969282  0  0  0.117386  0  1.032328  0  0  0.121251  0  1.030273  0  0  0.094771  0.114998  0  1.033176  0
H  H18  1  0.11575599  0.54654894  0.87172589  1  0  0.110144  0  0.96875  0  0  0.11749  0  1.031828  0  0  0.121297  0  1.029866  0  0  0.094751  0.115133  0  1.032634  0
H  H19  1  0.61579487  0.45349535  0.62819013  1  0  0.109992  0  0.969275  0  0  0.117381  0  1.032292  0  0  0.121182  0  1.030308  0  0  0.094721  0.115  0  1.033131  0
H  H20  1  0.75724508  0.23379497  0.11667656  1  0  0.109917  0  0.939174  0  0  0.11634  0  1.005526  0  0  0.119655  0  1.002161  0  0  0.119947  0.113717  0  1.008323  0
H  H21  1  0.25724502  0.76614020  0.38333246  1  0  0.109829  0  0.93987  0  0  0.116141  0  1.006186  0  0  0.119452  0  1.002831  0  0  0.119856  0.113567  0  1.008936  0
H  H22  1  0.24276146  0.76618667  0.88330621  1  0  0.109849  0  0.939338  0  0  0.11618  0  1.005734  0  0  0.119495  0  1.002367  0  0  0.11986  0.1136  0  1.008489  0
H  H23  1  0.74276152  0.23383672  0.61664316  1  0  0.109794  0  0.939898  0  0  0.116103  0  1.006246  0  0  0.119417  0  1.002885  0  0  0.119825  0.113525  0  1.009003  0
C  C24  1  0.58350309  0.25871094  0.89306382  1  0  0.028415  0  3.588444  0  0  -0.012541  0  3.846501  0  0  -0.004828  0  3.858114  0  0  0.039449  -0.016334  0  3.837753  0
C  C25  1  0.08349698  0.74131741  0.60693961  1  0  0.028591  0  3.587918  0  0  -0.012279  0  3.84588  0  0  -0.004602  0  3.857574  0  0  0.039565  -0.016081  0  3.837141  0
C  C26  1  0.41647886  0.74126866  0.10693486  1  0  0.027885  0  3.588899  0  0  -0.013132  0  3.847041  0  0  -0.005416  0  3.858647  0  0  0.039057  -0.01691  0  3.838315  0
C  C27  1  0.91649364  0.25871195  0.39305366  1  0  0.028318  0  3.587742  0  0  -0.012556  0  3.845632  0  0  -0.00487  0  3.857283  0  0  0.039445  -0.016301  0  3.836907  0
C  C28  1  0.64879664  0.37833640  0.89481819  1  0  -0.091506  0  3.749137  0  0  -0.1005  0  3.997145  0  0  -0.107189  0  4.017531  0  0  -0.080128  -0.095955  0  3.982545  0
C  C29  1  0.14876166  0.62167584  0.60516458  1  0  -0.091469  0  3.749931  0  0  -0.100633  0  3.99782  0  0  -0.107379  0  4.018166  0  0  -0.080411  -0.096103  0  3.983255  0
C  C30  1  0.35119978  0.62166783  0.10520757  1  0  -0.091319  0  3.749493  0  0  -0.100268  0  3.997435  0  0  -0.106949  0  4.0178  0  0  -0.079996  -0.09578  0  3.982868  0
C  C31  1  0.85121739  0.37834668  0.39484637  1  0  -0.091221  0  3.750262  0  0  -0.100389  0  3.998091  0  0  -0.107124  0  4.018442  0  0  -0.080387  -0.095851  0  3.983489  0
C  C32  1  0.75682821  0.45116919  0.97965953  1  0  -0.0094  0  3.699013  0  0  -0.030937  0  3.946667  0  0  -0.026497  0  3.964114  0  0  -0.07073  -0.034072  0  3.935117  0
C  C33  1  0.25681650  0.54872263  0.52037990  1  0  -0.009984  0  3.698224  0  0  -0.031335  0  3.945908  0  0  -0.026888  0  3.963391  0  0  -0.07079  -0.034458  0  3.934333  0
C  C34  1  0.24319424  0.54885237  0.02035192  1  0  -0.009339  0  3.698983  0  0  -0.030775  0  3.946688  0  0  -0.026321  0  3.964125  0  0  -0.070574  -0.033924  0  3.935153  0
C  C35  1  0.74319872  0.45128075  0.47963371  1  0  -0.010184  0  3.699189  0  0  -0.031584  0  3.946917  0  0  -0.027153  0  3.9644  0  0  -0.070913  -0.034701  0  3.935345  0
C  C36  1  0.79950306  0.40046827  0.06076474  1  0  -0.094835  0  3.754369  0  0  -0.104344  0  4.003347  0  0  -0.111163  0  4.023699  0  0  -0.082084  -0.100072  0  3.990053  0
C  C37  1  0.29944478  0.59951567  0.43929679  1  0  -0.094849  0  3.754923  0  0  -0.104427  0  4.003955  0  0  -0.111279  0  4.024248  0  0  -0.082172  -0.100123  0  3.990686  0
C  C38  1  0.20055699  0.59952754  0.93923950  1  0  -0.094911  0  3.755094  0  0  -0.104537  0  4.004157  0  0  -0.111357  0  4.024502  0  0  -0.082158  -0.100247  0  3.990878  0
C  C39  1  0.70056609  0.40048409  0.56069128  1  0  -0.094821  0  3.755423  0  0  -0.104388  0  4.004367  0  0  -0.111183  0  4.024702  0  0  -0.082118  -0.100092  0  3.9911  0
C  C40  1  0.73175325  0.28049917  0.05693652  1  0  0.01149  0  3.63863  0  0  -0.029591  0  3.900751  0  0  -0.021999  0  3.913315  0  0  0.034625  -0.03523  0  3.893272  0
C  C41  1  0.23182959  0.71948943  0.44309866  1  0  0.011509  0  3.638918  0  0  -0.029364  0  3.901137  0  0  -0.021818  0  3.913785  0  0  0.034673  -0.035038  0  3.893645  0
C  C42  1  0.26819398  0.71950254  0.94304608  1  0  0.011461  0  3.638935  0  0  -0.029409  0  3.90093  0  0  -0.021804  0  3.913479  0  0  0.034555  -0.035089  0  3.893434  0
C  C43  1  0.76817839  0.28050932  0.55689587  1  0  0.011408  0  3.638888  0  0  -0.02949  0  3.901092  0  0  -0.021941  0  3.913714  0  0  0.034557  -0.03517  0  3.893616  0
I  I44  1  0.94156201  0.95261458  0.14241993  1  0  -0.42359  0  1.246089  0  0  -0.365064  0  1.601228  0  0  -0.389681  0  1.578225  0  0  -0.187422  -0.34726  0  1.616619  0
I  I45  1  0.44148889  0.04739735  0.35757725  1  0  -0.423397  0  1.246283  0  0  -0.36495  0  1.6015  0  0  -0.389571  0  1.578515  0  0  -0.18729  -0.347143  0  1.616883  0
I  I46  1  0.05848069  0.04736127  0.85757033  1  0  -0.423605  0  1.246324  0  0  -0.365081  0  1.601481  0  0  -0.389698  0  1.57848  0  0  -0.187411  -0.347289  0  1.616891  0
I  I47  1  0.55851041  0.95260622  0.64241252  1  0  -0.423416  0  1.246182  0  0  -0.364998  0  1.601437  0  0  -0.389616  0  1.57845  0  0  -0.187344  -0.347191  0  1.616838  0
I  I48  1  0.27674838  0.31723288  0.19498502  1  0  -0.480807  0  1.0598  0  0  -0.419593  0  1.375988  0  0  -0.442683  0  1.356523  0  0  -0.228595  -0.404158  0  1.389263  0
I  I49  1  0.77675426  0.68273403  0.30499917  1  0  -0.480982  0  1.058857  0  0  -0.419808  0  1.374951  0  0  -0.44291  0  1.355511  0  0  -0.228704  -0.404343  0  1.388211  0
I  I50  1  0.72322778  0.68277708  0.80504143  1  0  -0.480718  0  1.060193  0  0  -0.419494  0  1.37643  0  0  -0.442581  0  1.356958  0  0  -0.228571  -0.404044  0  1.389692  0
I  I51  1  0.22323492  0.31725896  0.69499765  1  0  -0.480981  0  1.058799  0  0  -0.419819  0  1.374915  0  0  -0.442916  0  1.355463  0  0  -0.228742  -0.404378  0  1.388155  0
N  N52  1  0.62514892  0.21265327  0.97382464  1  0  0.25097  0  3.701255  0  0  0.302184  0  3.954227  0  0  0.300176  0  3.97634  0  0  -0.130656  0.302763  0  3.939333  0
N  N53  1  0.12516760  0.78736867  0.52618624  1  0  0.250955  0  3.700863  0  0  0.302172  0  3.953797  0  0  0.300152  0  3.975904  0  0  -0.130495  0.302725  0  3.938906  0
N  N54  1  0.37482579  0.78731968  0.02616864  1  0  0.25132  0  3.70032  0  0  0.302474  0  3.95324  0  0  0.30046  0  3.97535  0  0  -0.130324  0.303056  0  3.938346  0
N  N55  1  0.87484617  0.21263004  0.47381350  1  0  0.25115  0  3.701832  0  0  0.302357  0  3.954722  0  0  0.300346  0  3.976838  0  0  -0.130437  0.302919  0  3.939825  0
O  O56  1  0.55637366  0.09799800  0.97112619  1  0  -0.538149  0  1.974878  0  0  -0.468889  0  2.242554  0  0  -0.494471  0  2.237551  0  0  -0.2682  -0.450841  0  2.245363  0
O  O57  1  0.05633142  0.90200845  0.52884763  1  0  -0.538143  0  1.974259  0  0  -0.468848  0  2.241903  0  0  -0.494373  0  2.236857  0  0  -0.268467  -0.450866  0  2.244946  0
O  O58  1  0.44360105  0.90199982  0.02886513  1  0  -0.538348  0  1.9741  0  0  -0.469  0  2.241709  0  0  -0.494584  0  2.2367  0  0  -0.268326  -0.451009  0  2.244647  0
O  O59  1  0.94364185  0.09802104  0.47113001  1  0  -0.537981  0  1.975436  0  0  -0.468731  0  2.243103  0  0  -0.494278  0  2.238108  0  0  -0.268265  -0.450736  0  2.246052  0
