# generated using pymatgen
data_CdH32C28(NO)4
_symmetry_space_group_name_H-M   'P 1'
_cell_length_a   11.32821949
_cell_length_b   11.84838117
_cell_length_c   12.81101934
_cell_angle_alpha   86.28175862
_cell_angle_beta   66.55026594
_cell_angle_gamma   69.94198909
_symmetry_Int_Tables_number   1
_chemical_formula_structural   CdH32C28(NO)4
_chemical_formula_sum   'Cd2 H64 C56 N8 O8'
_cell_volume   1476.68383220
_cell_formula_units_Z   2
loop_
 _symmetry_equiv_pos_site_id
 _symmetry_equiv_pos_as_xyz
  1  'x, y, z'
loop_
 _atom_site_type_symbol
 _atom_site_label
 _atom_site_symmetry_multiplicity
 _atom_site_fract_x
 _atom_site_fract_y
 _atom_site_fract_z
 _atom_site_occupancy
 _atom_site_hle17_bader_spin_density
 _atom_site_hle17_ddec_charge
 _atom_site_hle17_ddec_spin_density
 _atom_site_hle17_ddec_sum_bond_order
 _atom_site_hle17_magmom
 _atom_site_hse06_10hf_bader_spin_density
 _atom_site_hse06_10hf_ddec_charge
 _atom_site_hse06_10hf_ddec_spin_density
 _atom_site_hse06_10hf_ddec_sum_bond_order
 _atom_site_hse06_10hf_magmom
 _atom_site_hse06_bader_spin_density
 _atom_site_hse06_ddec_charge
 _atom_site_hse06_ddec_spin_density
 _atom_site_hse06_ddec_sum_bond_order
 _atom_site_hse06_magmom
 _atom_site_pbe_bader_spin_density
 _atom_site_pbe_cm5_charge
 _atom_site_pbe_ddec_charge
 _atom_site_pbe_ddec_spin_density
 _atom_site_pbe_ddec_sum_bond_order
 _atom_site_pbe_magmom
Cd  Cd0  1  0.34296706  0.78519219  0.28757919  1  0  1.049158  0  1.683949  0  0  0.844276  0  2.132268  0  0  0.905932  0  2.080494  0  0  0.755555  0.800914  0  2.167149  0
Cd  Cd1  1  0.65703284  0.21481001  0.71242208  1  0  1.049183  0  1.683904  0  0  0.84431  0  2.13221  0  0  0.905959  0  2.080439  0  0  0.755552  0.800943  0  2.167095  0
H  H2  1  0.40814697  0.02445291  0.21684891  1  0  0.089441  0  0.966808  0  0  0.098284  0  1.029418  0  0  0.101028  0  1.026707  0  0  0.116175  0.096241  0  1.031433  0
H  H3  1  0.59185076  0.97554483  0.78315409  1  0  0.089461  0  0.966811  0  0  0.09831  0  1.029408  0  0  0.101052  0  1.026702  0  0  0.1162  0.096269  0  1.031422  0
H  H4  1  0.60078387  0.09190652  0.08175247  1  0  0.114145  0  0.926076  0  0  0.125114  0  0.98168  0  0  0.128768  0  0.980332  0  0  0.112009  0.12252  0  0.982766  0
H  H5  1  0.39920962  0.90809487  0.91825022  1  0  0.11412  0  0.926062  0  0  0.125084  0  0.981678  0  0  0.128739  0  0.980331  0  0  0.112007  0.12249  0  0.982765  0
H  H6  1  0.79673115  0.73282779  0.91298519  1  0  0.105116  0  0.95909  0  0  0.114156  0  1.021284  0  0  0.117002  0  1.021138  0  0  0.104871  0.112123  0  1.021616  0
H  H7  1  0.20326293  0.26717989  0.08701308  1  0  0.105183  0  0.959123  0  0  0.114263  0  1.021253  0  0  0.117113  0  1.021109  0  0  0.104893  0.112229  0  1.021588  0
H  H8  1  0.59896781  0.68024545  0.05623231  1  0  0.082097  0  0.957234  0  0  0.088962  0  1.024647  0  0  0.090954  0  1.023081  0  0  0.115688  0.087507  0  1.025683  0
H  H9  1  0.40102480  0.31976138  0.94376103  1  0  0.082121  0  0.957282  0  0  0.088982  0  1.024714  0  0  0.090975  0  1.023145  0  0  0.115697  0.087525  0  1.025749  0
H  H10  1  0.90965707  0.87611549  0.84413602  1  0  0.054478  0  0.909343  0  0  0.068848  0  0.973384  0  0  0.071021  0  0.970629  0  0  0.09328  0.067271  0  0.975353  0
H  H11  1  0.09033986  0.12387959  0.15586271  1  0  0.05446  0  0.90937  0  0  0.06887  0  0.973388  0  0  0.071044  0  0.970631  0  0  0.093311  0.067294  0  0.975359  0
H  H12  1  0.79606354  0.02629247  0.85635021  1  0  0.08882  0  0.91852  0  0  0.105638  0  0.979735  0  0  0.106271  0  0.979329  0  0  0.112494  0.105125  0  0.980113  0
H  H13  1  0.20393594  0.97370618  0.14364513  1  0  0.088811  0  0.918571  0  0  0.105671  0  0.979753  0  0  0.106305  0  0.979346  0  0  0.112504  0.105158  0  0.980133  0
H  H14  1  0.94919228  0.11740206  0.85031446  1  0  0.079956  0  0.943337  0  0  0.096009  0  1.005789  0  0  0.096794  0  1.005714  0  0  0.106597  0.095356  0  1.006003  0
H  H15  1  0.05081472  0.88259472  0.14967533  1  0  0.080056  0  0.943315  0  0  0.096051  0  1.005801  0  0  0.096833  0  1.005731  0  0  0.106623  0.095398  0  1.006015  0
H  H16  1  0.08109622  0.97400533  0.83130932  1  0  0.036045  0  0.925578  0  0  0.048824  0  0.999091  0  0  0.050623  0  0.996234  0  0  0.085596  0.047473  0  1.001232  0
H  H17  1  0.91891140  0.02598963  0.16868348  1  0  0.036087  0  0.925593  0  0  0.048862  0  0.999092  0  0  0.050658  0  0.99623  0  0  0.085619  0.047513  0  1.001231  0
H  H18  1  0.03145551  0.82808878  0.97515692  1  0  0.033082  0  0.949612  0  0  0.045899  0  1.026636  0  0  0.04691  0  1.024841  0  0  0.086807  0.045132  0  1.028024  0
H  H19  1  0.96854809  0.17191431  0.02483526  1  0  0.033047  0  0.949661  0  0  0.045835  0  1.026702  0  0  0.046842  0  1.024908  0  0  0.086817  0.045069  0  1.028092  0
H  H20  1  0.86865887  0.87065123  0.09249851  1  0  0.061007  0  0.927519  0  0  0.082855  0  0.981663  0  0  0.082588  0  0.98329  0  0  0.101724  0.083032  0  0.980625  0
H  H21  1  0.13134905  0.12934824  0.90749006  1  0  0.061006  0  0.927481  0  0  0.082853  0  0.981625  0  0  0.082585  0  0.983246  0  0  0.101712  0.083032  0  0.980587  0
H  H22  1  0.11173289  0.00925875  0.63866009  1  0  0.092376  0  0.94446  0  0  0.106165  0  1.007631  0  0  0.108392  0  1.006403  0  0  0.091807  0.104607  0  1.008408  0
H  H23  1  0.88826694  0.99074615  0.36134107  1  0  0.092367  0  0.944386  0  0  0.106159  0  1.007553  0  0  0.10839  0  1.006316  0  0  0.091829  0.104601  0  1.008333  0
H  H24  1  0.02111243  0.11569078  0.56860650  1  0  0.113365  0  0.926392  0  0  0.129363  0  0.984462  0  0  0.131472  0  0.983952  0  0  0.101848  0.128134  0  0.984367  0
H  H25  1  0.97889041  0.88431140  0.43139223  1  0  0.113356  0  0.926387  0  0  0.129356  0  0.984444  0  0  0.13146  0  0.983943  0  0  0.101839  0.128127  0  0.984349  0
H  H26  1  0.20630861  0.19618111  0.48059638  1  0  0.075847  0  0.944214  0  0  0.089327  0  1.012602  0  0  0.091798  0  1.009804  0  0  0.091268  0.087236  0  1.015056  0
H  H27  1  0.79369948  0.80381027  0.51939332  1  0  0.075857  0  0.944257  0  0  0.089313  0  1.012669  0  0  0.091817  0  1.009839  0  0  0.091326  0.087223  0  1.015119  0
H  H28  1  0.16373738  0.19626019  0.62926043  1  0  0.073152  0  0.926344  0  0  0.094595  0  0.981592  0  0  0.095583  0  0.981601  0  0  0.092616  0.093742  0  0.98171  0
H  H29  1  0.83627519  0.80374188  0.37073191  1  0  0.073104  0  0.92636  0  0  0.094545  0  0.981621  0  0  0.095532  0  0.981634  0  0  0.092598  0.093688  0  0.981746  0
H  H30  1  0.43181967  0.11067624  0.35082565  1  0  0.083957  0  0.960743  0  0  0.098415  0  1.017687  0  0  0.101311  0  1.015925  0  0  0.09765  0.09616  0  1.019328  0
H  H31  1  0.56818996  0.88931601  0.64916583  1  0  0.083942  0  0.960655  0  0  0.098389  0  1.017618  0  0  0.101287  0  1.015854  0  0  0.097643  0.096109  0  1.019288  0
H  H32  1  0.32326886  0.00618975  0.69463341  1  0  0.087968  0  0.953891  0  0  0.101572  0  1.011664  0  0  0.104505  0  1.0105  0  0  0.096154  0.099332  0  1.012761  0
H  H33  1  0.67673858  0.99380344  0.30535485  1  0  0.088125  0  0.953693  0  0  0.101656  0  1.011533  0  0  0.10459  0  1.010368  0  0  0.096224  0.099417  0  1.012628  0
H  H34  1  0.33742720  0.52299501  0.01425607  1  0  0.113388  0  0.931808  0  0  0.128787  0  0.991737  0  0  0.131537  0  0.990133  0  0  0.099767  0.12691  0  0.992804  0
H  H35  1  0.66257116  0.47700903  0.98574095  1  0  0.113407  0  0.931833  0  0  0.128772  0  0.991768  0  0  0.131516  0  0.990175  0  0  0.099792  0.126892  0  0.992838  0
H  H36  1  0.25923450  0.47061715  0.14679967  1  0  0.096543  0  0.918953  0  0  0.116164  0  0.972407  0  0  0.118184  0  0.971894  0  0  0.098595  0.114769  0  0.972863  0
H  H37  1  0.74077444  0.52937419  0.85319521  1  0  0.09659  0  0.91901  0  0  0.116187  0  0.972462  0  0  0.118207  0  0.971946  0  0  0.098625  0.114795  0  0.972911  0
H  H38  1  0.12401066  0.70462629  0.05765505  1  0  0.07433  0  0.963776  0  0  0.093686  0  1.022674  0  0  0.094748  0  1.022214  0  0  0.093946  0.092821  0  1.023087  0
H  H39  1  0.87599053  0.29537229  0.94234909  1  0  0.074352  0  0.963765  0  0  0.093707  0  1.022621  0  0  0.09477  0  1.022162  0  0  0.093976  0.092842  0  1.023034  0
H  H40  1  0.04458497  0.65616097  0.19130673  1  0  0.075388  0  0.93866  0  0  0.093338  0  0.999908  0  0  0.094643  0  0.999281  0  0  0.092583  0.092329  0  1.0004  0
H  H41  1  0.95542290  0.34384466  0.80870575  1  0  0.075437  0  0.938749  0  0  0.093399  0  0.999938  0  0  0.094704  0  0.999316  0  0  0.092583  0.092389  0  1.000431  0
H  H42  1  0.13439460  0.62416074  0.88412198  1  0  0.078777  0  0.965016  0  0  0.090141  0  1.02831  0  0  0.093379  0  1.025936  0  0  0.09317  0.087735  0  1.030184  0
H  H43  1  0.86559304  0.37583974  0.11589989  1  0  0.079025  0  0.965002  0  0  0.090348  0  1.028284  0  0  0.093585  0  1.025913  0  0  0.093297  0.087941  0  1.030151  0
H  H44  1  0.96546757  0.47782375  0.20266956  1  0  0.077901  0  0.995277  0  0  0.086481  0  1.065252  0  0  0.088988  0  1.064309  0  0  0.090821  0.084631  0  1.066092  0
H  H45  1  0.03452503  0.52217670  0.79734519  1  0  0.07796  0  0.995194  0  0  0.086552  0  1.065179  0  0  0.089058  0  1.064236  0  0  0.090784  0.084703  0  1.066017  0
H  H46  1  0.44111061  0.79671399  0.48685318  1  0  0.077682  0  0.965922  0  0  0.084197  0  1.033092  0  0  0.08557  0  1.033116  0  0  0.111866  0.083252  0  1.032941  0
H  H47  1  0.55887207  0.20329019  0.51315846  1  0  0.077752  0  0.965813  0  0  0.084266  0  1.032978  0  0  0.085638  0  1.033001  0  0  0.111904  0.083299  0  1.032848  0
H  H48  1  0.60351837  0.67294149  0.57220485  1  0  0.112067  0  0.939753  0  0  0.122029  0  0.998509  0  0  0.125475  0  0.997199  0  0  0.110011  0.119514  0  0.999737  0
H  H49  1  0.39647350  0.32706887  0.42780339  1  0  0.111909  0  0.939942  0  0  0.12196  0  0.998606  0  0  0.125408  0  0.997297  0  0  0.109967  0.119446  0  0.999834  0
H  H50  1  0.73699288  0.38476058  0.31796805  1  0  0.106015  0  0.937958  0  0  0.119758  0  0.991421  0  0  0.123089  0  0.990016  0  0  0.109401  0.117347  0  0.992691  0
H  H51  1  0.26299925  0.61524442  0.68203413  1  0  0.106019  0  0.938078  0  0  0.119809  0  0.991491  0  0  0.123143  0  0.990083  0  0  0.109417  0.117399  0  0.992762  0
H  H52  1  0.57230055  0.52214393  0.23926208  1  0  0.09164  0  0.958849  0  0  0.10038  0  1.02148  0  0  0.103298  0  1.018343  0  0  0.115762  0.098273  0  1.023631  0
H  H53  1  0.42769840  0.47786370  0.76073300  1  0  0.091633  0  0.958843  0  0  0.100316  0  1.021513  0  0  0.103254  0  1.018355  0  0  0.115754  0.09821  0  1.023663  0
H  H54  1  0.71700958  0.41921617  0.58826301  1  0  0.074051  0  0.934101  0  0  0.090748  0  0.999247  0  0  0.09092  0  0.999111  0  0  0.10727  0.090532  0  0.999589  0
H  H55  1  0.28298752  0.58078338  0.41173778  1  0  0.074093  0  0.934098  0  0  0.090792  0  0.99922  0  0  0.090965  0  0.999086  0  0  0.107282  0.090575  0  0.999563  0
H  H56  1  0.83886448  0.35084546  0.45106039  1  0  0.067334  0  0.91696  0  0  0.08025  0  0.983497  0  0  0.082658  0  0.980485  0  0  0.096304  0.078521  0  0.985715  0
H  H57  1  0.16112972  0.64915954  0.54893563  1  0  0.067387  0  0.916954  0  0  0.080287  0  0.983496  0  0  0.082701  0  0.980474  0  0  0.096316  0.078557  0  0.985718  0
H  H58  1  0.89549930  0.58563738  0.36711002  1  0  0.055557  0  0.946405  0  0  0.073387  0  1.010801  0  0  0.073364  0  1.011699  0  0  0.10018  0.073322  0  1.010396  0
H  H59  1  0.10450393  0.41435849  0.63289202  1  0  0.05552  0  0.946383  0  0  0.073432  0  1.010693  0  0  0.073411  0  1.011588  0  0  0.100179  0.073365  0  1.010294  0
H  H60  1  0.02356229  0.43982388  0.34988216  1  0  0.036679  0  0.92128  0  0  0.051571  0  0.991912  0  0  0.05354  0  0.988828  0  0  0.086994  0.050083  0  0.994234  0
H  H61  1  0.97643961  0.56017290  0.65012105  1  0  0.036585  0  0.921311  0  0  0.051512  0  0.991929  0  0  0.053482  0  0.988842  0  0  0.086947  0.050024  0  0.99425  0
H  H62  1  0.01520761  0.33088082  0.52215643  1  0  0.048024  0  0.940449  0  0  0.065463  0  1.007648  0  0  0.066176  0  1.00681  0  0  0.094755  0.064922  0  1.008433  0
H  H63  1  0.98479694  0.66911414  0.47784443  1  0  0.048032  0  0.940442  0  0  0.065457  0  1.007623  0  0  0.066167  0  1.006797  0  0  0.094734  0.064915  0  1.008412  0
H  H64  1  0.88275015  0.39820299  0.65600900  1  0  0.067789  0  0.963539  0  0  0.086047  0  1.024688  0  0  0.085748  0  1.026082  0  0  0.10297  0.086094  0  1.023964  0
H  H65  1  0.11725145  0.60179199  0.34399519  1  0  0.067791  0  0.963539  0  0  0.086039  0  1.024674  0  0  0.08578  0  1.026022  0  0  0.102983  0.086086  0  1.023949  0
C  C66  1  0.49739018  0.96396398  0.14804110  1  0  0.118335  0  3.725363  0  0  0.086588  0  3.978761  0  0  0.093459  0  3.999527  0  0  0.04169  0.082198  0  3.964657  0
C  C67  1  0.50260754  0.03603646  0.85195944  1  0  0.118355  0  3.725449  0  0  0.086605  0  3.978857  0  0  0.093478  0  3.999626  0  0  0.041692  0.082215  0  3.964752  0
C  C68  1  0.60303272  0.00023537  0.07286171  1  0  -0.155426  0  3.702759  0  0  -0.177245  0  3.958976  0  0  -0.185295  0  3.980233  0  0  -0.080949  -0.171915  0  3.944741  0
C  C69  1  0.39697014  0.99976410  0.92713871  1  0  -0.155269  0  3.702551  0  0  -0.17711  0  3.958713  0  0  -0.185156  0  3.979951  0  0  -0.080883  -0.171781  0  3.944477  0
C  C70  1  0.71367345  0.91758011  0.98580190  1  0  0.13789  0  3.72386  0  0  0.150857  0  3.963564  0  0  0.156169  0  3.985046  0  0  0.01755  0.147471  0  3.949059  0
C  C71  1  0.28632090  0.08242935  0.01419697  1  0  0.137742  0  3.723925  0  0  0.150816  0  3.963506  0  0  0.156131  0  3.984988  0  0  0.017523  0.147433  0  3.949004  0
C  C72  1  0.71205313  0.80098766  0.97821563  1  0  -0.171816  0  3.71634  0  0  -0.186393  0  3.956761  0  0  -0.195501  0  3.97944  0  0  -0.083733  -0.180681  0  3.941804  0
C  C73  1  0.28794094  0.19902001  0.02178342  1  0  -0.171939  0  3.716477  0  0  -0.186575  0  3.956855  0  0  -0.195695  0  3.979541  0  0  -0.083775  -0.180862  0  3.941892  0
C  C74  1  0.60350883  0.77063563  0.05754690  1  0  0.130141  0  3.723169  0  0  0.100718  0  3.969172  0  0  0.10866  0  3.988826  0  0  0.045737  0.09568  0  3.955794  0
C  C75  1  0.39648685  0.22937023  0.94245326  1  0  0.130193  0  3.722834  0  0  0.100748  0  3.968884  0  0  0.108693  0  3.988536  0  0  0.045712  0.095712  0  3.955505  0
C  C76  1  0.83191461  0.95363678  0.90646088  1  0  -0.048252  0  3.700267  0  0  -0.106401  0  3.953619  0  0  -0.103421  0  3.964515  0  0  -0.059134  -0.108274  0  3.945854  0
C  C77  1  0.16808837  0.04636272  0.09353403  1  0  -0.048239  0  3.700245  0  0  -0.106495  0  3.953631  0  0  -0.103515  0  3.964526  0  0  -0.059176  -0.108373  0  3.945877  0
C  C78  1  0.99501460  0.04579646  0.89610738  1  0  -0.026637  0  3.697045  0  0  -0.084197  0  3.965179  0  0  -0.08104  0  3.976982  0  0  -0.070793  -0.08622  0  3.956975  0
C  C79  1  0.00499422  0.95420298  0.10388401  1  0  -0.02674  0  3.697306  0  0  -0.084208  0  3.965378  0  0  -0.081046  0  3.977189  0  0  -0.070757  -0.086225  0  3.957158  0
C  C80  1  0.94815500  0.90525927  0.03483993  1  0  -0.014941  0  3.700043  0  0  -0.074558  0  3.968782  0  0  -0.071455  0  3.981784  0  0  -0.071376  -0.076648  0  3.959852  0
C  C81  1  0.05184856  0.09474381  0.96515382  1  0  -0.014874  0  3.700019  0  0  -0.07444  0  3.96868  0  0  -0.071318  0  3.981657  0  0  -0.071349  -0.076537  0  3.959762  0
C  C82  1  0.18791927  0.96686639  0.45905037  1  0  0.684515  0  3.867256  0  0  0.642394  0  4.159114  0  0  0.675372  0  4.155494  0  0  0.187376  0.620652  0  4.15891  0
C  C83  1  0.81208001  0.03313222  0.54095363  1  0  0.684479  0  3.867251  0  0  0.642382  0  4.159082  0  0  0.675359  0  4.155458  0  0  0.187364  0.620644  0  4.158877  0
C  C84  1  0.12411499  0.05803310  0.56145784  1  0  -0.248137  0  3.643147  0  0  -0.28379  0  3.889105  0  0  -0.290208  0  3.898157  0  0  -0.162937  -0.279414  0  3.881993  0
C  C85  1  0.87588594  0.94196640  0.43854323  1  0  -0.248136  0  3.643151  0  0  -0.283772  0  3.889079  0  0  -0.290193  0  3.898141  0  0  -0.162931  -0.279395  0  3.881967  0
C  C86  1  0.21105701  0.13736552  0.54975869  1  0  -0.125251  0  3.709862  0  0  -0.174448  0  3.968188  0  0  -0.174607  0  3.980616  0  0  -0.158195  -0.173946  0  3.959509  0
C  C87  1  0.78895120  0.86263303  0.45023217  1  0  -0.12515  0  3.709887  0  0  -0.174346  0  3.968226  0  0  -0.174528  0  3.980646  0  0  -0.158245  -0.173843  0  3.959553  0
C  C88  1  0.35946630  0.06716321  0.52539702  1  0  0.084689  0  3.756358  0  0  0.10665  0  3.994164  0  0  0.106056  0  4.020094  0  0  -0.01608  0.106738  0  3.976378  0
C  C89  1  0.64053737  0.93283448  0.47459775  1  0  0.084549  0  3.756246  0  0  0.10654  0  3.993999  0  0  0.105941  0  4.01994  0  0  -0.016117  0.106631  0  3.976203  0
C  C90  1  0.46187405  0.06179751  0.41655350  1  0  -0.125821  0  3.781852  0  0  -0.147416  0  4.033373  0  0  -0.15023  0  4.056061  0  0  -0.096882  -0.145442  0  4.017995  0
C  C91  1  0.53813203  0.93819658  0.58343752  1  0  -0.125721  0  3.781652  0  0  -0.14731  0  4.033197  0  0  -0.150124  0  4.055889  0  0  -0.096885  -0.145318  0  4.017825  0
C  C92  1  0.40020822  0.00395597  0.60876434  1  0  -0.129404  0  3.763859  0  0  -0.146386  0  4.008755  0  0  -0.149096  0  4.030393  0  0  -0.0991  -0.144437  0  3.994135  0
C  C93  1  0.59979877  0.99604080  0.39122624  1  0  -0.129539  0  3.76385  0  0  -0.146461  0  4.00874  0  0  -0.14917  0  4.030377  0  0  -0.099181  -0.144511  0  3.994129  0
C  C94  1  0.30815324  0.62599040  0.15861642  1  0  0.677758  0  3.871763  0  0  0.636431  0  4.164912  0  0  0.670139  0  4.159404  0  0  0.192097  0.613602  0  4.167798  0
C  C95  1  0.69186272  0.37399724  0.84138254  1  0  0.677965  0  3.871348  0  0  0.636576  0  4.164569  0  0  0.67028  0  4.159059  0  0  0.192198  0.613742  0  4.16746  0
C  C96  1  0.25879181  0.55314875  0.10158971  1  0  -0.252041  0  3.656923  0  0  -0.288878  0  3.906101  0  0  -0.29552  0  3.91505  0  0  -0.163029  -0.284424  0  3.899929  0
C  C97  1  0.74121049  0.44684714  0.89841108  1  0  -0.252046  0  3.657172  0  0  -0.288816  0  3.906251  0  0  -0.295457  0  3.915205  0  0  -0.163069  -0.284358  0  3.900068  0
C  C98  1  0.11672885  0.62377069  0.10263490  1  0  -0.13084  0  3.726834  0  0  -0.178166  0  3.97809  0  0  -0.178139  0  3.991037  0  0  -0.165012  -0.177884  0  3.969174  0
C  C99  1  0.88327268  0.37622699  0.89736996  1  0  -0.131077  0  3.726926  0  0  -0.178342  0  3.978003  0  0  -0.178321  0  3.990948  0  0  -0.165105  -0.178064  0  3.969085  0
C  C100  1  0.05887369  0.55803466  0.04970899  1  0  0.089565  0  3.752532  0  0  0.112414  0  3.985695  0  0  0.111993  0  4.011427  0  0  -0.016464  0.112507  0  3.96824  0
C  C101  1  0.94111542  0.44197208  0.95031208  1  0  0.08977  0  3.752276  0  0  0.112615  0  3.985395  0  0  0.112198  0  4.011126  0  0  -0.016427  0.112703  0  3.967944  0
C  C102  1  0.07587111  0.56903189  0.93547126  1  0  -0.126407  0  3.786234  0  0  -0.146847  0  4.034875  0  0  -0.149963  0  4.057735  0  0  -0.100544  -0.144596  0  4.019348  0
C  C103  1  0.92412017  0.43096676  0.06454713  1  0  -0.126637  0  3.78639  0  0  -0.14705  0  4.035016  0  0  -0.150168  0  4.057878  0  0  -0.10051  -0.144791  0  4.019483  0
C  C104  1  0.98158019  0.48780643  0.11330670  1  0  -0.134533  0  3.785261  0  0  -0.151868  0  4.029977  0  0  -0.15448  0  4.052285  0  0  -0.103642  -0.150045  0  4.0149  0
C  C105  1  0.01841275  0.51219581  0.88670550  1  0  -0.134675  0  3.784957  0  0  -0.152053  0  4.029727  0  0  -0.154675  0  4.052048  0  0  -0.103545  -0.150226  0  4.014646  0
C  C106  1  0.51005395  0.70561345  0.45078095  1  0  0.134433  0  3.708732  0  0  0.105013  0  3.956144  0  0  0.112656  0  3.976366  0  0  0.0448  0.100025  0  3.942457  0
C  C107  1  0.48993747  0.29439335  0.54922294  1  0  0.134446  0  3.708574  0  0  0.105026  0  3.956024  0  0  0.112672  0  3.976239  0  0  0.044792  0.100054  0  3.942352  0
C  C108  1  0.59916850  0.63603486  0.49865065  1  0  -0.159524  0  3.69544  0  0  -0.178187  0  3.943309  0  0  -0.186614  0  3.964868  0  0  -0.081533  -0.172814  0  3.929265  0
C  C109  1  0.40082786  0.36397634  0.50135604  1  0  -0.15946  0  3.695733  0  0  -0.178241  0  3.943638  0  0  -0.186675  0  3.965221  0  0  -0.081491  -0.172871  0  3.929585  0
C  C110  1  0.68331029  0.51809026  0.45192250  1  0  0.138336  0  3.718286  0  0  0.152551  0  3.956154  0  0  0.157558  0  3.978489  0  0  0.015756  0.149285  0  3.94137  0
C  C111  1  0.31667857  0.48191566  0.54808229  1  0  0.138396  0  3.718353  0  0  0.15267  0  3.956167  0  0  0.157662  0  3.978526  0  0  0.015802  0.14942  0  3.941357  0
C  C112  1  0.67397034  0.47622519  0.35705387  1  0  -0.170745  0  3.727535  0  0  -0.188291  0  3.974429  0  0  -0.197356  0  3.997727  0  0  -0.084611  -0.1824  0  3.959066  0
C  C113  1  0.32601747  0.52378073  0.64295518  1  0  -0.170611  0  3.727703  0  0  -0.188241  0  3.974542  0  0  -0.1973  0  3.997848  0  0  -0.084615  -0.182356  0  3.959176  0
C  C114  1  0.58340302  0.55130437  0.31281657  1  0  0.122139  0  3.725149  0  0  0.091011  0  3.975867  0  0  0.098433  0  3.995496  0  0  0.042071  0.086353  0  3.962351  0
C  C115  1  0.41658816  0.44870334  0.68718267  1  0  0.121946  0  3.725234  0  0  0.090889  0  3.975945  0  0  0.09829  0  3.995571  0  0  0.041985  0.086231  0  3.962429  0
C  C116  1  0.77905772  0.43890600  0.50273134  1  0  -0.053168  0  3.698777  0  0  -0.110593  0  3.95105  0  0  -0.107831  0  3.962423  0  0  -0.061882  -0.112393  0  3.943215  0
C  C117  1  0.22093734  0.56109626  0.49727155  1  0  -0.053326  0  3.698896  0  0  -0.110725  0  3.951096  0  0  -0.10797  0  3.962493  0  0  -0.061898  -0.112529  0  3.943259  0
C  C118  1  0.95806276  0.52357146  0.40821697  1  0  -0.017785  0  3.702432  0  0  -0.077554  0  3.972847  0  0  -0.074381  0  3.984912  0  0  -0.070825  -0.079767  0  3.964732  0
C  C119  1  0.04193825  0.47642264  0.59178590  1  0  -0.017774  0  3.702424  0  0  -0.077637  0  3.972949  0  0  -0.074461  0  3.984998  0  0  -0.070803  -0.079848  0  3.964836  0
C  C120  1  0.95034160  0.41827020  0.57385587  1  0  -0.023736  0  3.690417  0  0  -0.081387  0  3.954991  0  0  -0.078333  0  3.967785  0  0  -0.072188  -0.083469  0  3.946372  0
C  C121  1  0.04965946  0.58172392  0.42614542  1  0  -0.023795  0  3.69051  0  0  -0.081369  0  3.954946  0  0  -0.078342  0  3.967737  0  0  -0.072161  -0.083447  0  3.946325  0
N  N122  1  0.49835274  0.85052135  0.14135402  1  0  -0.343663  0  3.287498  0  0  -0.262199  0  3.554513  0  0  -0.284406  0  3.574656  0  0  -0.338011  -0.247338  0  3.540499  0
N  N123  1  0.50164349  0.14947824  0.85864237  1  0  -0.343726  0  3.287309  0  0  -0.262267  0  3.554364  0  0  -0.284475  0  3.574504  0  0  -0.338021  -0.247405  0  3.540349  0
N  N124  1  0.88993627  0.99865962  0.97114302  1  0  -0.232867  0  3.232791  0  0  -0.159099  0  3.499525  0  0  -0.174012  0  3.518868  0  0  -0.344933  -0.148382  0  3.485539  0
N  N125  1  0.11006962  0.00134255  0.02884766  1  0  -0.23286  0  3.232841  0  0  -0.159132  0  3.499605  0  0  -0.174051  0  3.518942  0  0  -0.345025  -0.148413  0  3.485623  0
N  N126  1  0.50207805  0.66409956  0.35909611  1  0  -0.34313  0  3.265029  0  0  -0.261595  0  3.527466  0  0  -0.283496  0  3.547453  0  0  -0.331954  -0.246778  0  3.513496  0
N  N127  1  0.49791563  0.33590360  0.64091033  1  0  -0.343073  0  3.264677  0  0  -0.261541  0  3.527075  0  0  -0.283438  0  3.547065  0  0  -0.331939  -0.246723  0  3.5131  0
N  N128  1  0.86716347  0.49682899  0.51721264  1  0  -0.233626  0  3.217577  0  0  -0.16181  0  3.486529  0  0  -0.17607  0  3.504866  0  0  -0.347506  -0.151345  0  3.473313  0
N  N129  1  0.13283721  0.50316602  0.48279030  1  0  -0.233653  0  3.217586  0  0  -0.161889  0  3.486591  0  0  -0.176144  0  3.504936  0  0  -0.34766  -0.151435  0  3.473389  0
O  O130  1  0.20413121  0.85584484  0.47740761  1  0  -0.664197  0  1.929002  0  0  -0.600791  0  2.169446  0  0  -0.63026  0  2.159363  0  0  -0.348638  -0.580175  0  2.174585  0
O  O131  1  0.79586933  0.14415285  0.52259836  1  0  -0.664202  0  1.929039  0  0  -0.600809  0  2.169474  0  0  -0.630276  0  2.159391  0  0  -0.348648  -0.58019  0  2.174611  0
O  O132  1  0.22753926  0.00162192  0.35881157  1  0  -0.655468  0  1.901296  0  0  -0.595425  0  2.130043  0  0  -0.623224  0  2.120813  0  0  -0.34453  -0.576001  0  2.134883  0
O  O133  1  0.77245676  0.99837048  0.64118760  1  0  -0.655459  0  1.901327  0  0  -0.595417  0  2.13004  0  0  -0.623213  0  2.120809  0  0  -0.34452  -0.576002  0  2.134883  0
O  O134  1  0.22161096  0.72917186  0.21122781  1  0  -0.647473  0  1.962594  0  0  -0.574713  0  2.208417  0  0  -0.604951  0  2.197269  0  0  -0.338009  -0.553727  0  2.215309  0
O  O135  1  0.77840238  0.27081490  0.78877520  1  0  -0.647527  0  1.962685  0  0  -0.574771  0  2.208538  0  0  -0.604999  0  2.197387  0  0  -0.338022  -0.553783  0  2.215434  0
O  O136  1  0.42837784  0.58315493  0.15508119  1  0  -0.656006  0  1.916867  0  0  -0.607088  0  2.145848  0  0  -0.632848  0  2.13543  0  0  -0.341125  -0.588919  0  2.152091  0
O  O137  1  0.57163842  0.41682735  0.84491013  1  0  -0.656193  0  1.916267  0  0  -0.607227  0  2.145265  0  0  -0.632986  0  2.134849  0  0  -0.341236  -0.589062  0  2.151516  0
