# generated using pymatgen
data_H12PbC20(O2F3)2
_symmetry_space_group_name_H-M   'P 1'
_cell_length_a   8.15661262
_cell_length_b   11.00677660
_cell_length_c   12.10078528
_cell_angle_alpha   117.04373707
_cell_angle_beta   95.47162610
_cell_angle_gamma   89.96592722
_symmetry_Int_Tables_number   1
_chemical_formula_structural   H12PbC20(O2F3)2
_chemical_formula_sum   'H24 Pb2 C40 O8 F12'
_cell_volume   962.06920429
_cell_formula_units_Z   2
loop_
 _symmetry_equiv_pos_site_id
 _symmetry_equiv_pos_as_xyz
  1  'x, y, z'
loop_
 _atom_site_type_symbol
 _atom_site_label
 _atom_site_symmetry_multiplicity
 _atom_site_fract_x
 _atom_site_fract_y
 _atom_site_fract_z
 _atom_site_occupancy
 _atom_site_hle17_bader_spin_density
 _atom_site_hle17_ddec_charge
 _atom_site_hle17_ddec_spin_density
 _atom_site_hle17_ddec_sum_bond_order
 _atom_site_hle17_magmom
 _atom_site_hse06_10hf_bader_spin_density
 _atom_site_hse06_10hf_ddec_charge
 _atom_site_hse06_10hf_ddec_spin_density
 _atom_site_hse06_10hf_ddec_sum_bond_order
 _atom_site_hse06_10hf_magmom
 _atom_site_hse06_bader_spin_density
 _atom_site_hse06_ddec_charge
 _atom_site_hse06_ddec_spin_density
 _atom_site_hse06_ddec_sum_bond_order
 _atom_site_hse06_magmom
 _atom_site_pbe_bader_spin_density
 _atom_site_pbe_cm5_charge
 _atom_site_pbe_ddec_charge
 _atom_site_pbe_ddec_spin_density
 _atom_site_pbe_ddec_sum_bond_order
 _atom_site_pbe_magmom
H  H0  1  0.68449090  0.57101192  0.73001580  1  0  0.124603  0  0.989993  0  0  0.131162  0  1.057664  0  0  0.135022  0  1.057822  0  0  0.097551  0.128308  0  1.057974  0
H  H1  1  0.81562550  0.84110157  0.26972413  1  0  0.125136  0  0.990486  0  0  0.131812  0  1.057759  0  0  0.135664  0  1.057929  0  0  0.098011  0.129049  0  1.057892  0
H  H2  1  0.31551434  0.42898527  0.26998165  1  0  0.124552  0  0.990054  0  0  0.131133  0  1.0577  0  0  0.134993  0  1.057858  0  0  0.097557  0.128276  0  1.058011  0
H  H3  1  0.18437129  0.15889868  0.73027323  1  0  0.12512  0  0.990493  0  0  0.131832  0  1.057721  0  0  0.135683  0  1.057891  0  0  0.09803  0.129051  0  1.057878  0
H  H4  1  0.67804595  0.48805728  0.54685560  1  0  0.082681  0  0.978998  0  0  0.095051  0  1.041543  0  0  0.097083  0  1.041422  0  0  0.09785  0.09337  0  1.042155  0
H  H5  1  0.82260763  0.94103316  0.45287120  1  0  0.083316  0  0.979783  0  0  0.095211  0  1.042648  0  0  0.097306  0  1.04242  0  0  0.098191  0.093532  0  1.043236  0
H  H6  1  0.32195842  0.51194604  0.45314929  1  0  0.082704  0  0.978971  0  0  0.095023  0  1.04159  0  0  0.097055  0  1.041469  0  0  0.097833  0.093345  0  1.042194  0
H  H7  1  0.17739292  0.05896811  0.54712764  1  0  0.083317  0  0.979878  0  0  0.095214  0  1.042735  0  0  0.097312  0  1.042499  0  0  0.098196  0.09354  0  1.043326  0
H  H8  1  0.76589387  0.37232766  0.33613199  1  0  0.094297  0  0.965248  0  0  0.098877  0  1.035974  0  0  0.102364  0  1.03429  0  0  0.096375  0.096655  0  1.036677  0
H  H9  1  0.73468917  0.03569920  0.66364001  1  0  0.094282  0  0.965474  0  0  0.098982  0  1.03611  0  0  0.102471  0  1.03442  0  0  0.0964  0.096408  0  1.037601  0
H  H10  1  0.23411162  0.62767363  0.66387130  1  0  0.094391  0  0.965251  0  0  0.098902  0  1.036037  0  0  0.102387  0  1.03436  0  0  0.096382  0.096709  0  1.036708  0
H  H11  1  0.26531496  0.96430004  0.33635905  1  0  0.094313  0  0.965421  0  0  0.098994  0  1.036074  0  0  0.102482  0  1.034383  0  0  0.096418  0.096419  0  1.037571  0
H  H12  1  0.94167859  0.49846196  0.26064278  1  0  0.09675  0  0.948507  0  0  0.106732  0  1.007817  0  0  0.109921  0  1.005381  0  0  0.096069  0.104396  0  1.009616  0
H  H13  1  0.55862200  0.23720556  0.73926669  1  0  0.097144  0  0.947769  0  0  0.106967  0  1.007454  0  0  0.110183  0  1.005017  0  0  0.096112  0.10465  0  1.009229  0
H  H14  1  0.05832448  0.50154034  0.73935747  1  0  0.096738  0  0.948599  0  0  0.106717  0  1.007921  0  0  0.109906  0  1.005484  0  0  0.096081  0.104387  0  1.009715  0
H  H15  1  0.44137716  0.76279265  0.26073410  1  0  0.097147  0  0.947741  0  0  0.106975  0  1.007426  0  0  0.110191  0  1.004987  0  0  0.096096  0.104653  0  1.009193  0
H  H16  1  0.03481633  0.74018884  0.40118781  1  0  0.085384  0  0.973722  0  0  0.093436  0  1.039171  0  0  0.095711  0  1.039921  0  0  0.093928  0.091772  0  1.038894  0
H  H17  1  0.46543190  0.33884309  0.59899939  1  0  0.085084  0  0.973216  0  0  0.093322  0  1.038539  0  0  0.09554  0  1.039326  0  0  0.093604  0.0917  0  1.038253  0
H  H18  1  0.96518429  0.25981346  0.59881477  1  0  0.085389  0  0.973672  0  0  0.093436  0  1.039127  0  0  0.095711  0  1.039876  0  0  0.093909  0.091775  0  1.038849  0
H  H19  1  0.53456708  0.66115206  0.40100013  1  0  0.085061  0  0.973153  0  0  0.093317  0  1.038463  0  0  0.095535  0  1.039247  0  0  0.09359  0.09169  0  1.038173  0
H  H20  1  0.94444628  0.85763751  0.61538236  1  0  0.091778  0  0.968464  0  0  0.099826  0  1.036102  0  0  0.102483  0  1.034828  0  0  0.099447  0.097753  0  1.037387  0
H  H21  1  0.55585747  0.24253237  0.38485941  1  0  0.093006  0  0.96826  0  0  0.100746  0  1.036014  0  0  0.103449  0  1.034624  0  0  0.099972  0.098698  0  1.037245  0
H  H22  1  0.05555927  0.14236479  0.38462053  1  0  0.091763  0  0.968445  0  0  0.099792  0  1.036112  0  0  0.102459  0  1.034827  0  0  0.099432  0.09772  0  1.037398  0
H  H23  1  0.44414303  0.75746789  0.61514149  1  0  0.092969  0  0.968208  0  0  0.100711  0  1.03597  0  0  0.103415  0  1.03458  0  0  0.099948  0.098663  0  1.0372  0
Pb  Pb24  1  0.74986124  0.05389092  0.99989525  1  0  1.347903  0  1.486534  0  0  1.164212  0  1.886125  0  0  1.220442  0  1.842518  0  0  0.648493  1.123805  0  1.916066  0
Pb  Pb25  1  0.25012918  0.94610525  0.00010415  1  0  1.347909  0  1.486522  0  0  1.164205  0  1.886107  0  0  1.220435  0  1.8425  0  0  0.648502  1.12379  0  1.916049  0
C  C26  1  0.59359625  0.73549920  0.88071805  1  0  0.24208  0  3.899638  0  0  0.222688  0  4.164478  0  0  0.241541  0  4.17707  0  0  0.094114  0.210027  0  4.155715  0
C  C27  1  0.90659659  0.85470313  0.11900703  1  0  0.243572  0  3.899759  0  0  0.222983  0  4.166316  0  0  0.241887  0  4.179  0  0  0.094157  0.210479  0  4.157382  0
C  C28  1  0.40639896  0.26449492  0.11927751  1  0  0.242223  0  3.899436  0  0  0.222696  0  4.1645  0  0  0.241549  0  4.177095  0  0  0.094089  0.210043  0  4.155732  0
C  C29  1  0.09340407  0.14530019  0.88099184  1  0  0.24371  0  3.899549  0  0  0.223098  0  4.166139  0  0  0.242008  0  4.178824  0  0  0.094179  0.210589  0  4.157204  0
C  C30  1  0.67855331  0.68129925  0.77677839  1  0  -0.362172  0  3.737385  0  0  -0.403643  0  4.013917  0  0  -0.424211  0  4.032321  0  0  -0.144412  -0.389861  0  4.001442  0
C  C31  1  0.82171844  0.90465269  0.22300601  1  0  -0.363364  0  3.738926  0  0  -0.404452  0  4.016145  0  0  -0.425116  0  4.034432  0  0  -0.145167  -0.390574  0  4.003664  0
C  C32  1  0.32144713  0.31869999  0.22322209  1  0  -0.362152  0  3.737319  0  0  -0.403591  0  4.013909  0  0  -0.42417  0  4.032305  0  0  -0.144393  -0.389807  0  4.001424  0
C  C33  1  0.17828088  0.09534858  0.77699193  1  0  -0.363358  0  3.738825  0  0  -0.404469  0  4.016035  0  0  -0.425128  0  4.03431  0  0  -0.14517  -0.39058  0  4.003581  0
C  C34  1  0.75364153  0.75745610  0.72373534  1  0  0.456493  0  3.754442  0  0  0.438823  0  4.012872  0  0  0.468485  0  4.012743  0  0  0.143765  0.418933  0  4.012312  0
C  C35  1  0.74678246  0.03395207  0.27618774  1  0  0.457015  0  3.753562  0  0  0.438339  0  4.01339  0  0  0.468315  0  4.012842  0  0  0.143817  0.418234  0  4.013176  0
C  C36  1  0.24635756  0.24254109  0.27626421  1  0  0.45646  0  3.75446  0  0  0.438742  0  4.012941  0  0  0.468431  0  4.012771  0  0  0.143738  0.418869  0  4.012357  0
C  C37  1  0.25321926  0.96604819  0.72381158  1  0  0.456952  0  3.753777  0  0  0.438274  0  4.0136  0  0  0.46825  0  4.013057  0  0  0.143789  0.418168  0  4.013382  0
C  C38  1  0.80564748  0.68206738  0.59601857  1  0  -0.048287  0  3.757452  0  0  -0.025191  0  3.981176  0  0  -0.034734  0  4.006338  0  0  -0.01941  -0.01905  0  3.963985  0
C  C39  1  0.69481655  0.08610898  0.40392156  1  0  -0.048833  0  3.75681  0  0  -0.025246  0  3.980231  0  0  -0.034911  0  4.005361  0  0  -0.019248  -0.019001  0  3.963125  0
C  C40  1  0.19435443  0.31793595  0.40398534  1  0  -0.048351  0  3.757514  0  0  -0.025236  0  3.981216  0  0  -0.034785  0  4.006372  0  0  -0.01941  -0.019096  0  3.964024  0
C  C41  1  0.30518271  0.91389127  0.59607761  1  0  -0.048769  0  3.756728  0  0  -0.025178  0  3.980143  0  0  -0.034845  0  4.005276  0  0  -0.019244  -0.018936  0  3.963045  0
C  C42  1  0.75615161  0.54473531  0.51633147  1  0  -0.079652  0  3.733695  0  0  -0.098278  0  3.97145  0  0  -0.098146  0  3.994029  0  0  -0.082439  -0.097942  0  3.956235  0
C  C43  1  0.74445274  0.02825732  0.48351031  1  0  -0.079871  0  3.734449  0  0  -0.098172  0  3.97217  0  0  -0.098068  0  3.99471  0  0  -0.082661  -0.097833  0  3.956866  0
C  C44  1  0.24385270  0.45526699  0.48367134  1  0  -0.079562  0  3.733789  0  0  -0.098147  0  3.971519  0  0  -0.098016  0  3.994099  0  0  -0.0824  -0.097814  0  3.956314  0
C  C45  1  0.25554546  0.97174600  0.51649006  1  0  -0.079972  0  3.734524  0  0  -0.098287  0  3.97225  0  0  -0.098182  0  3.99479  0  0  -0.082721  -0.097958  0  3.956964  0
C  C46  1  0.80454908  0.47906830  0.39638816  1  0  -0.078104  0  3.760703  0  0  -0.090306  0  4.015301  0  0  -0.094599  0  4.037426  0  0  -0.09311  -0.087539  0  4.000062  0
C  C47  1  0.69596479  0.08228429  0.60341221  1  0  -0.077442  0  3.76016  0  0  -0.090026  0  4.015147  0  0  -0.094295  0  4.03729  0  0  -0.093053  -0.08714  0  4.000061  0
C  C48  1  0.19545534  0.52093604  0.60361385  1  0  -0.078306  0  3.760568  0  0  -0.090457  0  4.01518  0  0  -0.094747  0  4.037295  0  0  -0.093163  -0.087716  0  3.999938  0
C  C49  1  0.30403811  0.91771494  0.39658925  1  0  -0.077426  0  3.760105  0  0  -0.089986  0  4.015103  0  0  -0.094253  0  4.037242  0  0  -0.093057  -0.087104  0  4.000022  0
C  C50  1  0.90373071  0.54965678  0.35442913  1  0  -0.036583  0  3.720729  0  0  -0.056845  0  3.972702  0  0  -0.055609  0  3.991611  0  0  -0.082688  -0.057443  0  3.959618  0
C  C51  1  0.59658058  0.19481087  0.64548761  1  0  -0.03786  0  3.721269  0  0  -0.0583  0  3.973658  0  0  -0.05711  0  3.992566  0  0  -0.083098  -0.058828  0  3.960537  0
C  C52  1  0.09626739  0.45034450  0.64557286  1  0  -0.036567  0  3.72067  0  0  -0.056824  0  3.972622  0  0  -0.055587  0  3.991529  0  0  -0.082705  -0.057425  0  3.959551  0
C  C53  1  0.40341987  0.80518836  0.35451369  1  0  -0.037884  0  3.721266  0  0  -0.058337  0  3.973671  0  0  -0.057148  0  3.992581  0  0  -0.08309  -0.058857  0  3.960524  0
C  C54  1  0.95473138  0.68599680  0.43306348  1  0  -0.083095  0  3.764852  0  0  -0.093133  0  4.016653  0  0  -0.097674  0  4.039091  0  0  -0.09428  -0.090081  0  4.001591  0
C  C55  1  0.54556997  0.25273605  0.56701179  1  0  -0.081654  0  3.766404  0  0  -0.091909  0  4.01787  0  0  -0.096382  0  4.040356  0  0  -0.093792  -0.088915  0  4.002747  0
C  C56  1  0.04527176  0.31400652  0.56693802  1  0  -0.083125  0  3.764923  0  0  -0.093154  0  4.016715  0  0  -0.097696  0  4.039157  0  0  -0.094276  -0.090103  0  4.001661  0
C  C57  1  0.45442789  0.74726114  0.43298768  1  0  -0.081589  0  3.766378  0  0  -0.091849  0  4.017842  0  0  -0.096322  0  4.040328  0  0  -0.093756  -0.088854  0  4.002706  0
C  C58  1  0.90558326  0.75169552  0.55266966  1  0  -0.061973  0  3.71085  0  0  -0.086953  0  3.958705  0  0  -0.085706  0  3.979456  0  0  -0.081265  -0.087571  0  3.944856  0
C  C59  1  0.59474705  0.19908048  0.44742208  1  0  -0.063307  0  3.711796  0  0  -0.088009  0  3.959541  0  0  -0.086726  0  3.980234  0  0  -0.081448  -0.088579  0  3.945664  0
C  C60  1  0.09441870  0.24830882  0.44733385  1  0  -0.061891  0  3.710886  0  0  -0.086859  0  3.958743  0  0  -0.085624  0  3.979492  0  0  -0.081214  -0.087476  0  3.944899  0
C  C61  1  0.40525215  0.80091875  0.55257749  1  0  -0.063291  0  3.711749  0  0  -0.087988  0  3.959477  0  0  -0.086705  0  3.98017  0  0  -0.081431  -0.088557  0  3.945589  0
C  C62  1  0.51169659  0.63407535  0.91622168  1  0  0.709957  0  3.648973  0  0  0.638733  0  3.986842  0  0  0.667523  0  3.960499  0  0  0.296731  0.618051  0  4.005998  0
C  C63  1  0.98837808  0.71765206  0.08356544  1  0  0.708125  0  3.649366  0  0  0.636997  0  3.987834  0  0  0.665438  0  3.962073  0  0  0.29719  0.616402  0  4.006888  0
C  C64  1  0.48829751  0.36592081  0.08377465  1  0  0.709978  0  3.649295  0  0  0.638762  0  3.987238  0  0  0.667551  0  3.960902  0  0  0.296733  0.618072  0  4.006408  0
C  C65  1  0.01162369  0.28234922  0.91643265  1  0  0.708075  0  3.64923  0  0  0.636903  0  3.987769  0  0  0.665336  0  3.962024  0  0  0.297144  0.616316  0  4.006813  0
O  O66  1  0.56553634  0.86091405  0.95383686  1  0  -0.594521  0  2.141585  0  0  -0.517081  0  2.381569  0  0  -0.548546  0  2.380908  0  0  -0.28265  -0.49494  0  2.3815  0
O  O67  1  0.93470594  0.90691263  0.04586248  1  0  -0.594638  0  2.142377  0  0  -0.517144  0  2.383006  0  0  -0.54857  0  2.382332  0  0  -0.282414  -0.494894  0  2.382497  0
O  O68  1  0.43445647  0.13908110  0.04616062  1  0  -0.59461  0  2.141472  0  0  -0.517129  0  2.381533  0  0  -0.54859  0  2.38087  0  0  -0.282663  -0.494994  0  2.381471  0
O  O69  1  0.06529731  0.09309273  0.95413988  1  0  -0.594693  0  2.14222  0  0  -0.517181  0  2.382842  0  0  -0.548612  0  2.38217  0  0  -0.282442  -0.494942  0  2.382362  0
O  O70  1  0.77703621  0.88650612  0.77926163  1  0  -0.555249  0  1.99109  0  0  -0.490006  0  2.219836  0  0  -0.515743  0  2.213464  0  0  -0.269919  -0.472537  0  2.223841  0
O  O71  1  0.72332623  0.10768863  0.22080326  1  0  -0.555349  0  1.989147  0  0  -0.489658  0  2.21825  0  0  -0.515458  0  2.211609  0  0  -0.269633  -0.471587  0  2.221717  0
O  O72  1  0.22295948  0.11349618  0.22074064  1  0  -0.555225  0  1.991211  0  0  -0.489942  0  2.219953  0  0  -0.515688  0  2.213569  0  0  -0.269903  -0.472481  0  2.223952  0
O  O73  1  0.27667209  0.89231673  0.77919630  1  0  -0.555334  0  1.989367  0  0  -0.489637  0  2.218454  0  0  -0.515435  0  2.211816  0  0  -0.269608  -0.471562  0  2.221913  0
F  F74  1  0.54609970  0.67208299  0.04030457  1  0  -0.252576  0  1.180927  0  0  -0.212952  0  1.347346  0  0  -0.222134  0  1.330894  0  0  -0.102135  -0.206351  0  1.358919  0
F  F75  1  0.95391674  0.63152804  0.95950801  1  0  -0.251269  0  1.181096  0  0  -0.212609  0  1.347773  0  0  -0.22169  0  1.331426  0  0  -0.102257  -0.205996  0  1.359319  0
F  F76  1  0.45389939  0.32791420  0.95969332  1  0  -0.25262  0  1.181031  0  0  -0.212972  0  1.347442  0  0  -0.222154  0  1.330991  0  0  -0.102145  -0.206367  0  1.359023  0
F  F77  1  0.04608733  0.36847017  0.04048897  1  0  -0.251245  0  1.181118  0  0  -0.212553  0  1.347793  0  0  -0.221632  0  1.331451  0  0  -0.10222  -0.20594  0  1.359339  0
F  F78  1  0.34293812  0.63212000  0.89350269  1  0  -0.274262  0  1.177703  0  0  -0.237374  0  1.35482  0  0  -0.248181  0  1.339265  0  0  -0.099326  -0.229279  0  1.36523  0
F  F79  1  0.15713079  0.73817673  0.10626788  1  0  -0.277747  0  1.182484  0  0  -0.236742  0  1.355388  0  0  -0.247438  0  1.339927  0  0  -0.099524  -0.22906  0  1.366468  0
F  F80  1  0.65705964  0.36787514  0.10649841  1  0  -0.274263  0  1.177686  0  0  -0.237367  0  1.354803  0  0  -0.248175  0  1.339251  0  0  -0.099303  -0.229268  0  1.365215  0
F  F81  1  0.84286836  0.26182148  0.89373126  1  0  -0.27775  0  1.182409  0  0  -0.236734  0  1.355321  0  0  -0.24743  0  1.339865  0  0  -0.09951  -0.22905  0  1.366398  0
F  F82  1  0.55720628  0.50361323  0.85290486  1  0  -0.230958  0  1.188781  0  0  -0.19569  0  1.362738  0  0  -0.205198  0  1.346427  0  0  -0.088821  -0.188867  0  1.37431  0
F  F83  1  0.94274089  0.65066021  0.14696336  1  0  -0.229824  0  1.188814  0  0  -0.195165  0  1.362919  0  0  -0.204575  0  1.346739  0  0  -0.089011  -0.188336  0  1.374416  0
F  F84  1  0.44278512  0.49637885  0.14708796  1  0  -0.230978  0  1.18905  0  0  -0.195706  0  1.363014  0  0  -0.205213  0  1.346704  0  0  -0.088827  -0.188882  0  1.374586  0
F  F85  1  0.05725848  0.34934208  0.85303501  1  0  -0.229825  0  1.188734  0  0  -0.195157  0  1.362851  0  0  -0.204568  0  1.346674  0  0  -0.089012  -0.188325  0  1.374342  0
