# generated using pymatgen
data_LiPH24C19O
_symmetry_space_group_name_H-M   'P 1'
_cell_length_a   8.99883362
_cell_length_b   10.49876342
_cell_length_c   10.64212053
_cell_angle_alpha   60.44454689
_cell_angle_beta   87.74605931
_cell_angle_gamma   85.42699595
_symmetry_Int_Tables_number   1
_chemical_formula_structural   LiPH24C19O
_chemical_formula_sum   'Li2 P2 H48 C38 O2'
_cell_volume   871.81931022
_cell_formula_units_Z   2
loop_
 _symmetry_equiv_pos_site_id
 _symmetry_equiv_pos_as_xyz
  1  'x, y, z'
loop_
 _atom_site_type_symbol
 _atom_site_label
 _atom_site_symmetry_multiplicity
 _atom_site_fract_x
 _atom_site_fract_y
 _atom_site_fract_z
 _atom_site_occupancy
 _atom_site_hle17_bader_spin_density
 _atom_site_hle17_ddec_charge
 _atom_site_hle17_ddec_spin_density
 _atom_site_hle17_ddec_sum_bond_order
 _atom_site_hle17_magmom
 _atom_site_hse06_10hf_bader_spin_density
 _atom_site_hse06_10hf_ddec_charge
 _atom_site_hse06_10hf_ddec_spin_density
 _atom_site_hse06_10hf_ddec_sum_bond_order
 _atom_site_hse06_10hf_magmom
 _atom_site_hse06_bader_spin_density
 _atom_site_hse06_ddec_charge
 _atom_site_hse06_ddec_spin_density
 _atom_site_hse06_ddec_sum_bond_order
 _atom_site_hse06_magmom
 _atom_site_pbe_bader_spin_density
 _atom_site_pbe_cm5_charge
 _atom_site_pbe_ddec_charge
 _atom_site_pbe_ddec_spin_density
 _atom_site_pbe_ddec_sum_bond_order
 _atom_site_pbe_magmom
Li  Li0  1  0.57475482  0.44056035  0.89242317  1  0  0.713777  0  0.589976  0  0  0.659815  0  0.703712  0  0  0.663452  0  0.700767  0  0  0.366634  0.656549  0  0.706836  0
Li  Li1  1  0.07475563  0.33298397  0.10757757  1  0  0.713779  0  0.589992  0  0  0.659813  0  0.703724  0  0  0.663448  0  0.700781  0  0  0.366637  0.656547  0  0.706847  0
P  P2  1  0.33995609  0.37266440  0.81971271  1  0  0.131756  0  3.660708  0  0  0.079429  0  4.055238  0  0  0.089738  0  4.063849  0  0  -0.033562  0.073579  0  4.047897  0
P  P3  1  0.83995809  0.19237759  0.18028712  1  0  0.131769  0  3.660626  0  0  0.079411  0  4.055247  0  0  0.089717  0  4.063869  0  0  -0.033574  0.073563  0  4.047908  0
H  H4  1  0.06804339  0.36027007  0.85967711  1  0  0.105333  0  1.02143  0  0  0.119579  0  1.083454  0  0  0.121456  0  1.085691  0  0  0.085278  0.118573  0  1.081787  0
H  H5  1  0.56804421  0.21994374  0.14032468  1  0  0.105313  0  1.021472  0  0  0.119554  0  1.0835  0  0  0.121433  0  1.085738  0  0  0.085265  0.118549  0  1.081833  0
H  H6  1  0.23907067  0.56974779  0.91918175  1  0  0.066322  0  0.974275  0  0  0.083983  0  1.034121  0  0  0.085409  0  1.032143  0  0  0.093982  0.082198  0  1.036926  0
H  H7  1  0.73907053  0.48892879  0.08081690  1  0  0.06633  0  0.974278  0  0  0.08401  0  1.034103  0  0  0.085442  0  1.032124  0  0  0.093986  0.082226  0  1.036907  0
H  H8  1  0.89840064  0.54780379  0.91452575  1  0  0.125411  0  1.013346  0  0  0.137838  0  1.07483  0  0  0.141479  0  1.07372  0  0  0.086354  0.135232  0  1.076042  0
H  H9  1  0.39840009  0.46232833  0.08547459  1  0  0.125408  0  1.013342  0  0  0.137834  0  1.074827  0  0  0.141474  0  1.073723  0  0  0.086374  0.135228  0  1.076038  0
H  H10  1  0.00018557  0.66809220  0.95882686  1  0  0.116485  0  1.032568  0  0  0.129943  0  1.094047  0  0  0.132093  0  1.095204  0  0  0.076716  0.128698  0  1.092589  0
H  H11  1  0.50018498  0.62691707  0.04117293  1  0  0.116445  0  1.032566  0  0  0.129906  0  1.094047  0  0  0.132056  0  1.095202  0  0  0.076697  0.12866  0  1.092593  0
H  H12  1  0.53422275  0.09869949  0.97706517  1  0  0.083996  0  0.97478  0  0  0.09092  0  1.046102  0  0  0.093618  0  1.045653  0  0  0.099221  0.088739  0  1.047206  0
H  H13  1  0.03422532  0.07576522  0.02293380  1  0  0.083985  0  0.974776  0  0  0.090914  0  1.046098  0  0  0.093613  0  1.045649  0  0  0.099216  0.088733  0  1.047202  0
H  H14  1  0.52855932  0.85204105  0.00267093  1  0  0.078471  0  0.983703  0  0  0.089932  0  1.046366  0  0  0.091925  0  1.046582  0  0  0.095285  0.088221  0  1.046676  0
H  H15  1  0.02855957  0.85471261  0.99732823  1  0  0.078448  0  0.983717  0  0  0.089908  0  1.046383  0  0  0.0919  0  1.046599  0  0  0.095284  0.088198  0  1.046691  0
H  H16  1  0.32743123  0.79780743  0.88440803  1  0  0.086877  0  0.965583  0  0  0.101386  0  1.021872  0  0  0.103493  0  1.02146  0  0  0.101935  0.100108  0  1.021622  0
H  H17  1  0.82743058  0.68221620  0.11559184  1  0  0.086843  0  0.965625  0  0  0.101352  0  1.021919  0  0  0.10346  0  1.021506  0  0  0.101916  0.100074  0  1.021669  0
H  H18  1  0.13410284  0.99507777  0.73669229  1  0  0.077926  0  0.982563  0  0  0.086718  0  1.050374  0  0  0.089134  0  1.049927  0  0  0.09485  0.08481  0  1.051282  0
H  H19  1  0.63410419  0.73177118  0.26330795  1  0  0.077943  0  0.982577  0  0  0.086722  0  1.05039  0  0  0.089151  0  1.049932  0  0  0.094856  0.084814  0  1.051295  0
H  H20  1  0.14282156  0.24371766  0.70763416  1  0  0.084577  0  0.959104  0  0  0.098921  0  1.017973  0  0  0.10135  0  1.017406  0  0  0.100284  0.097256  0  1.017999  0
H  H21  1  0.64282430  0.95135121  0.29236712  1  0  0.084596  0  0.959098  0  0  0.09894  0  1.017963  0  0  0.101371  0  1.017395  0  0  0.100285  0.097277  0  1.017987  0
H  H22  1  0.13963924  0.61999067  0.61836702  1  0  0.091451  0  0.967226  0  0  0.104116  0  1.025753  0  0  0.106591  0  1.025336  0  0  0.095321  0.10235  0  1.026083  0
H  H23  1  0.63963927  0.23835707  0.38163149  1  0  0.09148  0  0.967194  0  0  0.104132  0  1.025744  0  0  0.106607  0  1.025326  0  0  0.095329  0.102365  0  1.026073  0
H  H24  1  0.12800882  0.76925455  0.34905669  1  0  0.079461  0  0.968127  0  0  0.091113  0  1.02854  0  0  0.093409  0  1.028429  0  0  0.094906  0.089329  0  1.029028  0
H  H25  1  0.62800959  0.11831125  0.65094097  1  0  0.079461  0  0.968184  0  0  0.091132  0  1.028575  0  0  0.093425  0  1.028463  0  0  0.094898  0.08935  0  1.029062  0
H  H26  1  0.31210598  0.71377936  0.19936648  1  0  0.082477  0  0.966406  0  0  0.093532  0  1.027681  0  0  0.095716  0  1.027853  0  0  0.095956  0.091954  0  1.027705  0
H  H27  1  0.81210654  0.91314755  0.80063236  1  0  0.082483  0  0.966385  0  0  0.093553  0  1.027648  0  0  0.095737  0  1.027819  0  0  0.095952  0.091954  0  1.027694  0
H  H28  1  0.50133562  0.50379695  0.31710679  1  0  0.0853  0  0.975634  0  0  0.097055  0  1.035953  0  0  0.099182  0  1.035922  0  0  0.093058  0.095745  0  1.035565  0
H  H29  1  0.00133744  0.82090506  0.68289404  1  0  0.085336  0  0.975615  0  0  0.097083  0  1.035942  0  0  0.099215  0  1.035907  0  0  0.093067  0.095774  0  1.035553  0
H  H30  1  0.51257657  0.35484227  0.58517474  1  0  0.078943  0  0.967047  0  0  0.092873  0  1.028268  0  0  0.095021  0  1.027995  0  0  0.096855  0.091525  0  1.028123  0
H  H31  1  0.01257857  0.94001584  0.41482609  1  0  0.078977  0  0.967065  0  0  0.092895  0  1.028292  0  0  0.095043  0  1.02802  0  0  0.096859  0.091546  0  1.02815  0
H  H32  1  0.88584208  0.53851532  0.62860589  1  0  0.044535  0  0.918931  0  0  0.060207  0  0.981239  0  0  0.060321  0  0.981306  0  0  0.097693  0.059554  0  0.981777  0
H  H33  1  0.38584212  0.16712085  0.37139383  1  0  0.044526  0  0.918923  0  0  0.060206  0  0.981238  0  0  0.060319  0  0.981307  0  0  0.097694  0.059553  0  0.981775  0
H  H34  1  0.73875546  0.50664604  0.54183226  1  0  0.036268  0  0.933424  0  0  0.050866  0  0.999962  0  0  0.050878  0  1.000146  0  0  0.095562  0.050522  0  1.000498  0
H  H35  1  0.23875710  0.04847702  0.45816921  1  0  0.036224  0  0.933468  0  0  0.050852  0  0.999987  0  0  0.050864  0  1.000171  0  0  0.095556  0.050505  0  1.000526  0
H  H36  1  0.83901576  0.29974728  0.85739154  1  0  0.099102  0  0.989439  0  0  0.113862  0  1.06425  0  0  0.115546  0  1.063968  0  0  0.092608  0.112862  0  1.06428  0
H  H37  1  0.33901319  0.15714058  0.14260805  1  0  0.099102  0  0.98942  0  0  0.113864  0  1.064229  0  0  0.11554  0  1.063956  0  0  0.092621  0.112863  0  1.064262  0
H  H38  1  0.88259456  0.26983994  0.70877279  1  0  0.110838  0  0.947458  0  0  0.134727  0  1.003915  0  0  0.135009  0  1.005439  0  0  0.093363  0.13458  0  1.002707  0
H  H39  1  0.38259438  0.97861168  0.29122651  1  0  0.110813  0  0.947469  0  0  0.134713  0  1.003917  0  0  0.134993  0  1.005442  0  0  0.09335  0.134565  0  1.002707  0
H  H40  1  0.69554388  0.26908062  0.76777500  1  0  0.095812  0  0.973128  0  0  0.111641  0  1.048067  0  0  0.112924  0  1.04791  0  0  0.091316  0.110992  0  1.047482  0
H  H41  1  0.19554210  0.03685560  0.23222641  1  0  0.095815  0  0.973121  0  0  0.111643  0  1.048064  0  0  0.112927  0  1.047905  0  0  0.091313  0.110994  0  1.047479  0
H  H42  1  0.57424514  0.69584363  0.50877669  1  0  0.036738  0  0.943823  0  0  0.049586  0  1.012796  0  0  0.048981  0  1.014304  0  0  0.093269  0.049783  0  1.012105  0
H  H43  1  0.07424533  0.20461987  0.49122394  1  0  0.036738  0  0.943833  0  0  0.049584  0  1.01281  0  0  0.04898  0  1.014315  0  0  0.093259  0.049779  0  1.012119  0
H  H44  1  0.72380492  0.76386124  0.55973130  1  0  0.042686  0  0.945486  0  0  0.055577  0  1.012131  0  0  0.055018  0  1.013939  0  0  0.093973  0.055891  0  1.011183  0
H  H45  1  0.22380430  0.32359234  0.44026803  1  0  0.042703  0  0.945455  0  0  0.055573  0  1.012118  0  0  0.055015  0  1.013923  0  0  0.09397  0.055887  0  1.011169  0
H  H46  1  0.41316343  0.70277974  0.70229975  1  0  0.093588  0  0.976863  0  0  0.109827  0  1.050263  0  0  0.110693  0  1.050592  0  0  0.089527  0.109102  0  1.050128  0
H  H47  1  0.91316338  0.40507911  0.29769785  1  0  0.09358  0  0.976821  0  0  0.109824  0  1.050221  0  0  0.110693  0  1.050545  0  0  0.089516  0.109098  0  1.050085  0
H  H48  1  0.48180424  0.87825169  0.58776608  1  0  0.107355  0  0.95059  0  0  0.132094  0  1.007347  0  0  0.132139  0  1.009314  0  0  0.092413  0.131893  0  1.006333  0
H  H49  1  0.98180346  0.46601713  0.41223187  1  0  0.107356  0  0.950592  0  0  0.132093  0  1.007347  0  0  0.132136  0  1.009318  0  0  0.092422  0.131893  0  1.006334  0
H  H50  1  0.56316313  0.76329931  0.76016423  1  0  0.102413  0  0.967582  0  0  0.11979  0  1.035758  0  0  0.120393  0  1.037235  0  0  0.092827  0.11927  0  1.034802  0
H  H51  1  0.06316316  0.52346391  0.23983393  1  0  0.10247  0  0.967483  0  0  0.119841  0  1.035666  0  0  0.120444  0  1.037143  0  0  0.09286  0.119321  0  1.034709  0
C  C52  1  0.16423819  0.40194770  0.88437210  1  0  -0.569147  0  3.909107  0  0  -0.540629  0  4.163091  0  0  -0.5588  0  4.186726  0  0  -0.234276  -0.529949  0  4.147786  0
C  C53  1  0.66423922  0.28631838  0.11562798  1  0  -0.569083  0  3.909116  0  0  -0.540555  0  4.163087  0  0  -0.558728  0  4.186728  0  0  -0.234237  -0.529878  0  4.147779  0
C  C54  1  0.13840778  0.52287564  0.90908206  1  0  -0.011439  0  4.109123  0  0  -0.023504  0  4.344503  0  0  -0.01206  0  4.362745  0  0  -0.157405  -0.030286  0  4.331664  0
C  C55  1  0.63840699  0.43195564  0.09091749  1  0  -0.011474  0  4.10916  0  0  -0.02355  0  4.344528  0  0  -0.01211  0  4.362775  0  0  -0.157408  -0.030328  0  4.331685  0
C  C56  1  0.00418390  0.57856071  0.93483314  1  0  -0.524366  0  3.751385  0  0  -0.548548  0  3.990263  0  0  -0.560465  0  4.004977  0  0  -0.280228  -0.53905  0  3.978775  0
C  C57  1  0.50418433  0.51339134  0.06516555  1  0  -0.52431  0  3.751387  0  0  -0.548499  0  3.990278  0  0  -0.560413  0  4.004994  0  0  -0.280243  -0.539004  0  3.978794  0
C  C58  1  0.33747591  0.18795876  0.84182609  1  0  -0.065472  0  3.75526  0  0  -0.027712  0  3.987532  0  0  -0.032015  0  4.0125  0  0  -0.021053  -0.025227  0  3.970503  0
C  C59  1  0.83748060  0.02978328  0.15817577  1  0  -0.065498  0  3.755341  0  0  -0.027723  0  3.987578  0  0  -0.032024  0  4.012543  0  0  -0.021105  -0.025237  0  3.970552  0
C  C60  1  0.44610434  0.07660645  0.92409932  1  0  -0.090991  0  3.754751  0  0  -0.105744  0  3.993166  0  0  -0.107166  0  4.014708  0  0  -0.086484  -0.104741  0  3.979497  0
C  C61  1  0.94610697  0.00070492  0.07590220  1  0  -0.090925  0  3.754701  0  0  -0.105675  0  3.993086  0  0  -0.107096  0  4.014628  0  0  -0.086437  -0.104672  0  3.979417  0
C  C62  1  0.44250551  0.93684697  0.93905037  1  0  -0.075828  0  3.782824  0  0  -0.086872  0  4.024715  0  0  -0.089509  0  4.047271  0  0  -0.094116  -0.085394  0  4.010221  0
C  C63  1  0.94250870  0.87589639  0.06095067  1  0  -0.075787  0  3.782787  0  0  -0.086833  0  4.024685  0  0  -0.089469  0  4.047241  0  0  -0.094109  -0.085354  0  4.010192  0
C  C64  1  0.33019923  0.90683731  0.87254017  1  0  -0.075359  0  3.770856  0  0  -0.085574  0  4.008937  0  0  -0.086944  0  4.030455  0  0  -0.091916  -0.083825  0  3.993482  0
C  C65  1  0.83020164  0.77937795  0.12746047  1  0  -0.075319  0  3.770904  0  0  -0.085541  0  4.008999  0  0  -0.08691  0  4.030519  0  0  -0.091897  -0.083793  0  3.993545  0
C  C66  1  0.22185743  0.01745166  0.78952473  1  0  -0.081046  0  3.790313  0  0  -0.089664  0  4.032729  0  0  -0.092226  0  4.05454  0  0  -0.094253  -0.088243  0  4.018503  0
C  C67  1  0.72186061  0.80697566  0.21047584  1  0  -0.081114  0  3.790334  0  0  -0.089718  0  4.03276  0  0  -0.092292  0  4.054569  0  0  -0.0943  -0.088297  0  4.018533  0
C  C68  1  0.22617120  0.15685090  0.77399581  1  0  -0.076383  0  3.741133  0  0  -0.094682  0  3.980512  0  0  -0.095836  0  4.002206  0  0  -0.0854  -0.092921  0  3.965227  0
C  C69  1  0.72617483  0.93084558  0.22600659  1  0  -0.076411  0  3.741161  0  0  -0.09471  0  3.980538  0  0  -0.095865  0  4.002238  0  0  -0.085367  -0.092949  0  3.965255  0
C  C70  1  0.32759959  0.47863464  0.62007749  1  0  -0.070665  0  3.738344  0  0  -0.033249  0  3.973452  0  0  -0.036407  0  3.99795  0  0  -0.027588  -0.030661  0  3.955688  0
C  C71  1  0.82760099  0.09871393  0.37992140  1  0  -0.070622  0  3.738439  0  0  -0.033244  0  3.97359  0  0  -0.036405  0  3.998092  0  0  -0.027538  -0.030657  0  3.955827  0
C  C72  1  0.22010028  0.59619914  0.55185524  1  0  -0.095383  0  3.748896  0  0  -0.110075  0  3.983812  0  0  -0.112425  0  4.005966  0  0  -0.094281  -0.108418  0  3.968497  0
C  C73  1  0.72010166  0.14805444  0.44814314  1  0  -0.095451  0  3.74902  0  0  -0.110125  0  3.983943  0  0  -0.112475  0  4.006097  0  0  -0.094335  -0.108469  0  3.968629  0
C  C74  1  0.21438094  0.68029600  0.40123107  1  0  -0.075858  0  3.792906  0  0  -0.082609  0  4.031283  0  0  -0.084409  0  4.053365  0  0  -0.094661  -0.0816  0  4.017202  0
C  C75  1  0.71438035  0.08152787  0.59876788  1  0  -0.075874  0  3.792922  0  0  -0.082644  0  4.031298  0  0  -0.08444  0  4.053386  0  0  -0.094638  -0.081635  0  4.017218  0
C  C76  1  0.31678143  0.64845829  0.31683103  1  0  -0.077193  0  3.775965  0  0  -0.087654  0  4.016272  0  0  -0.08944  0  4.037624  0  0  -0.095846  -0.086825  0  4.002369  0
C  C77  1  0.81678513  0.96529113  0.68316759  1  0  -0.07716  0  3.775918  0  0  -0.08763  0  4.016218  0  0  -0.089416  0  4.037569  0  0  -0.095854  -0.086784  0  4.002325  0
C  C78  1  0.42431252  0.53111752  0.38360862  1  0  -0.086859  0  3.796868  0  0  -0.096145  0  4.041767  0  0  -0.097553  0  4.062021  0  0  -0.097553  -0.095369  0  4.027789  0
C  C79  1  0.92431400  0.91472740  0.61639166  1  0  -0.086926  0  3.796847  0  0  -0.096211  0  4.041756  0  0  -0.097622  0  4.062009  0  0  -0.09756  -0.095433  0  4.027773  0
C  C80  1  0.42954810  0.44732957  0.53393725  1  0  -0.094142  0  3.767345  0  0  -0.11385  0  4.014958  0  0  -0.115265  0  4.035241  0  0  -0.091955  -0.112567  0  4.000283  0
C  C81  1  0.92954986  0.98126727  0.46606294  1  0  -0.094154  0  3.767289  0  0  -0.113831  0  4.014895  0  0  -0.115246  0  4.035181  0  0  -0.091954  -0.112545  0  4.000222  0
C  C82  1  0.78008410  0.48505201  0.64739503  1  0  0.151718  0  3.649883  0  0  0.100245  0  3.920161  0  0  0.107929  0  3.926143  0  0  -0.067653  0.095262  0  3.916276  0
C  C83  1  0.28008482  0.13244586  0.35260565  1  0  0.151815  0  3.649789  0  0  0.10029  0  3.920128  0  0  0.107977  0  3.926109  0  0  -0.067639  0.095309  0  3.916241  0
C  C84  1  0.80050879  0.32204570  0.75133200  1  0  -0.33682  0  3.723748  0  0  -0.417802  0  3.975932  0  0  -0.420229  0  3.984634  0  0  -0.243315  -0.416001  0  3.969144  0
C  C85  1  0.30050828  0.07337667  0.24866862  1  0  -0.336815  0  3.723724  0  0  -0.417798  0  3.975926  0  0  -0.420219  0  3.984636  0  0  -0.24332  -0.415998  0  3.969137  0
C  C86  1  0.62489685  0.69926053  0.59976494  1  0  0.147599  0  3.642105  0  0  0.09757  0  3.909681  0  0  0.105112  0  3.916206  0  0  -0.070598  0.092334  0  3.905511  0
C  C87  1  0.12489612  0.29902436  0.40023462  1  0  0.147562  0  3.642075  0  0  0.097539  0  3.90967  0  0  0.10508  0  3.916195  0  0  -0.070606  0.092306  0  3.905494  0
C  C88  1  0.51428732  0.76375477  0.66715917  1  0  -0.337245  0  3.744617  0  0  -0.418492  0  3.994476  0  0  -0.421125  0  4.005112  0  0  -0.245996  -0.416563  0  3.987544  0
C  C89  1  0.01428655  0.43091382  0.33283897  1  0  -0.337295  0  3.744524  0  0  -0.418516  0  3.994382  0  0  -0.421149  0  4.005014  0  0  -0.246039  -0.416593  0  3.987448  0
O  O90  1  0.67258743  0.55076151  0.70619544  1  0  -0.413044  0  2.309899  0  0  -0.330368  0  2.555831  0  0  -0.346165  0  2.557393  0  0  -0.301047  -0.319296  0  2.554645  0
O  O91  1  0.17258697  0.25695482  0.29380519  1  0  -0.413058  0  2.309822  0  0  -0.330353  0  2.555742  0  0  -0.346149  0  2.557301  0  0  -0.301022  -0.319283  0  2.554556  0
