# generated using pymatgen
data_NiH14C24(NO2)4
_symmetry_space_group_name_H-M   'P 1'
_cell_length_a   8.75663761
_cell_length_b   11.66710879
_cell_length_c   11.66709478
_cell_angle_alpha   108.63315429
_cell_angle_beta   93.61416328
_cell_angle_gamma   93.61411199
_symmetry_Int_Tables_number   1
_chemical_formula_structural   NiH14C24(NO2)4
_chemical_formula_sum   'Ni2 H28 C48 N8 O16'
_cell_volume   1122.87135007
_cell_formula_units_Z   2
loop_
 _symmetry_equiv_pos_site_id
 _symmetry_equiv_pos_as_xyz
  1  'x, y, z'
loop_
 _atom_site_type_symbol
 _atom_site_label
 _atom_site_symmetry_multiplicity
 _atom_site_fract_x
 _atom_site_fract_y
 _atom_site_fract_z
 _atom_site_occupancy
 _atom_site_hle17_ddec_charge
 _atom_site_hle17_ddec_spin_density
 _atom_site_hle17_ddec_sum_bond_order
 _atom_site_hle17_magmom
 _atom_site_hse06_10hf_ddec_charge
 _atom_site_hse06_10hf_ddec_spin_density
 _atom_site_hse06_10hf_ddec_sum_bond_order
 _atom_site_hse06_10hf_magmom
 _atom_site_hse06_ddec_charge
 _atom_site_hse06_ddec_spin_density
 _atom_site_hse06_ddec_sum_bond_order
 _atom_site_hse06_magmom
 _atom_site_pbe_cm5_charge
 _atom_site_pbe_ddec_charge
 _atom_site_pbe_ddec_spin_density
 _atom_site_pbe_ddec_sum_bond_order
 _atom_site_pbe_magmom
Ni  Ni0  1  0.75000071  0.55853664  0.44146269  1  0.936204  -1.907784  2.021176  -1.533  0.939648  -1.874173  2.420229  -1.644  1.015106  -1.93652  2.358445  -1.728  0.687673  0.876607  -1.814433  2.478441  -1.563
Ni  Ni1  1  0.24999968  0.44146444  0.55853611  1  0.936134  1.907766  2.021588  1.533  0.939731  1.874152  2.420595  1.644  1.015181  1.936501  2.358812  1.728  0.687658  0.876722  1.81442  2.478795  1.563
H  H2  1  0.53918491  0.37055707  0.09478705  1  0.119711  -4.4e-05  0.959221  0.0  0.124919  0.0  1.026114  0.0  0.128843  1e-05  1.023298  0.0  0.114524  0.122082  -1.2e-05  1.028242  0.0
H  H3  1  0.96081459  0.90520979  0.62944021  1  0.119699  -4.3e-05  0.959299  0.0  0.124933  0.0  1.026152  0.0  0.128858  1e-05  1.023336  0.0  0.114512  0.122096  -1.2e-05  1.028285  0.0
H  H4  1  0.46081488  0.62943858  0.90520906  1  0.119697  4.4e-05  0.959281  0.0  0.124917  -0.0  1.026151  0.0  0.128844  -1e-05  1.023334  0.0  0.114521  0.122082  1.2e-05  1.028286  0.0
H  H5  1  0.03918611  0.09479396  0.37056377  1  0.119703  4.3e-05  0.959242  0.0  0.12493  -0.0  1.026108  0.0  0.128856  -1e-05  1.023293  0.0  0.114509  0.122091  1.2e-05  1.028245  0.0
H  H6  1  0.06915815  0.52361763  0.35213904  1  0.10567  -0.00128  0.962149  -0.002  0.107414  -0.000762  1.031075  -0.001  0.110412  -0.000554  1.027981  -0.001  0.122186  0.10512  -0.000977  1.033435  -0.002
H  H7  1  0.43084307  0.64786061  0.47638291  1  0.105687  -0.001278  0.962114  -0.002  0.10742  -0.000762  1.031041  -0.001  0.110419  -0.000554  1.027947  -0.001  0.122188  0.105126  -0.000977  1.033403  -0.002
H  H8  1  0.93084120  0.47638436  0.64786001  1  0.105749  0.001279  0.962012  0.002  0.107422  0.000762  1.030994  0.001  0.110417  0.000554  1.027906  0.001  0.122202  0.105133  0.000977  1.033354  0.002
H  H9  1  0.56915847  0.35214044  0.52361849  1  0.105739  0.00128  0.962041  0.002  0.107416  0.000762  1.031023  0.001  0.110411  0.000554  1.027932  0.001  0.1222  0.105129  0.000977  1.033384  0.002
H  H10  1  0.64654392  0.57999337  0.20707225  1  0.085929  -0.001218  0.962067  -0.002  0.089558  -0.000682  1.031532  -0.001  0.091645  -0.00047  1.029379  -0.001  0.115143  0.088054  -0.000898  1.033282  -0.002
H  H11  1  0.85345632  0.79292659  0.42000560  1  0.085938  -0.001216  0.962045  -0.002  0.089542  -0.000682  1.031545  -0.001  0.091629  -0.00047  1.029393  -0.001  0.115131  0.088046  -0.000898  1.033289  -0.002
H  H12  1  0.35345648  0.42000772  0.79292569  1  0.085905  0.001218  0.962034  0.002  0.0895  0.000682  1.031527  0.001  0.091589  0.00047  1.029374  0.001  0.115112  0.088016  0.000898  1.033267  0.002
H  H13  1  0.14654397  0.20707360  0.57999204  1  0.085915  0.001218  0.962039  0.002  0.089508  0.000682  1.03153  0.001  0.091598  0.00047  1.029376  0.001  0.115112  0.088022  0.000898  1.033267  0.002
H  H14  1  0.20061555  0.23774895  0.28375484  1  0.117719  -0.000157  0.974483  0.0  0.122456  -0.000136  1.042026  0.0  0.126292  -0.00012  1.039702  0.0  0.109104  0.119586  -0.000152  1.043714  0.0
H  H15  1  0.29938242  0.71624675  0.76225016  1  0.117797  -0.000158  0.974444  0.0  0.122486  -0.000136  1.042038  0.0  0.126322  -0.00012  1.039715  0.0  0.109127  0.11961  -0.000152  1.043746  0.0
H  H16  1  0.79938455  0.76224935  0.71624816  1  0.117771  0.000155  0.974465  0.0  0.122455  0.000136  1.042074  0.0  0.126285  0.00012  1.039752  0.0  0.10911  0.119584  0.000152  1.043766  0.0
H  H17  1  0.70061912  0.28375431  0.23775040  1  0.117763  0.000157  0.974465  0.0  0.122444  0.000136  1.042072  0.0  0.126277  0.00012  1.039753  0.0  0.109097  0.119573  0.000152  1.043759  0.0
H  H18  1  0.11525595  0.06736826  0.09241178  1  0.095633  -4.8e-05  0.959057  0.0  0.102172  -5.6e-05  1.025254  0.0  0.104607  -3.5e-05  1.025543  0.0  0.100113  0.100518  -7.8e-05  1.025095  0.0
H  H19  1  0.38474071  0.90759022  0.93263161  1  0.095632  -5e-05  0.959083  0.0  0.102174  -5.6e-05  1.025266  0.0  0.104608  -3.5e-05  1.025558  0.0  0.100114  0.10052  -7.8e-05  1.025106  0.0
H  H20  1  0.88474956  0.93262728  0.90759314  1  0.095654  5.1e-05  0.958984  0.0  0.102172  5.6e-05  1.025209  0.0  0.104606  3.5e-05  1.025497  0.0  0.100111  0.100519  7.9e-05  1.025049  0.0
H  H21  1  0.61525137  0.09240807  0.06737188  1  0.095662  4.8e-05  0.959012  0.0  0.102184  5.6e-05  1.025228  0.0  0.104618  3.5e-05  1.025519  0.0  0.100115  0.100529  7.9e-05  1.025068  0.0
H  H22  1  0.73794924  0.54390094  0.00480764  1  0.103262  -1.7e-05  0.966325  0.0  0.112572  -0.00028  1.0297  0.0  0.11491  -0.000191  1.029821  0.0  0.105272  0.110977  -0.000376  1.029652  -0.001
H  H23  1  0.76205180  0.99519250  0.45609932  1  0.103271  -1.9e-05  0.966325  0.0  0.112584  -0.00028  1.029697  0.0  0.114922  -0.000191  1.029816  0.0  0.105264  0.110989  -0.000375  1.029649  -0.001
H  H24  1  0.26205290  0.45610559  0.99519303  1  0.103311  1.6e-05  0.966335  0.0  0.112623  0.000279  1.0297  0.0  0.114961  0.000191  1.029819  0.0  0.105286  0.111027  0.000375  1.02965  0.001
H  H25  1  0.23794849  0.00480774  0.54389404  1  0.103238  1.6e-05  0.966268  0.0  0.112552  0.00028  1.029651  0.0  0.114886  0.000191  1.029773  0.0  0.105245  0.110955  0.000375  1.029599  0.001
H  H26  1  0.18085581  0.48805067  0.15671375  1  0.104476  -0.000107  0.961875  0.0  0.115667  -0.000364  1.019399  0.0  0.117757  -0.000257  1.020029  0.0  0.107707  0.114061  -0.000473  1.01932  -0.001
H  H27  1  0.31914629  0.84328640  0.51194957  1  0.10448  -0.000107  0.961846  0.0  0.115657  -0.000364  1.019389  0.0  0.11776  -0.000257  1.020001  0.0  0.107708  0.114051  -0.000473  1.01931  -0.001
H  H28  1  0.81914593  0.51195220  0.84328741  1  0.104472  0.000104  0.961869  0.0  0.115661  0.000364  1.019399  0.0  0.117751  0.000257  1.020029  0.0  0.107705  0.114061  0.000473  1.019322  0.001
H  H29  1  0.68085639  0.15671467  0.48805018  1  0.104441  0.000105  0.961905  0.0  0.115636  0.000364  1.019429  0.0  0.117723  0.000257  1.020062  0.0  0.107684  0.114033  0.000473  1.01935  0.001
C  C30  1  0.37650979  0.31423955  0.20248355  1  -0.040375  -0.006456  3.72274  -0.008  -0.019683  -0.002986  3.957122  -0.004  -0.027929  -0.002267  3.977487  -0.003  -0.008151  -0.014623  -0.003774  3.94427  -0.005
C  C31  1  0.12348933  0.79751597  0.68575885  1  -0.040359  -0.006448  3.722856  -0.008  -0.019665  -0.002986  3.95719  -0.004  -0.02791  -0.002266  3.977556  -0.003  -0.008134  -0.014603  -0.003774  3.944336  -0.005
C  C32  1  0.62349144  0.68575874  0.79751951  1  -0.040285  0.006387  3.722907  0.008  -0.019613  0.002986  3.957247  0.004  -0.027856  0.002267  3.977612  0.003  -0.008162  -0.014557  0.003774  3.944404  0.005
C  C33  1  0.87650827  0.20248052  0.31424258  1  -0.040223  0.006436  3.722804  0.008  -0.019573  0.002986  3.957164  0.004  -0.027818  0.002267  3.977531  0.003  -0.008129  -0.014516  0.003774  3.944319  0.005
C  C34  1  0.43700960  0.41157985  0.31996972  1  0.651725  0.005055  3.891951  0.008  0.613316  0.003691  4.18663  0.006  0.651514  0.002986  4.175894  0.005  0.221038  0.586157  0.004571  4.192148  0.007
C  C35  1  0.06299323  0.68002945  0.58841719  1  0.651745  0.005052  3.891946  0.008  0.613359  0.00369  4.186596  0.006  0.651556  0.002986  4.175864  0.005  0.221131  0.586198  0.004571  4.192111  0.007
C  C36  1  0.56301473  0.58842043  0.68002049  1  0.651632  -0.005034  3.892249  -0.008  0.613332  -0.003681  4.186791  -0.006  0.651529  -0.002979  4.176054  -0.005  0.221188  0.586179  -0.00456  4.192312  -0.007
C  C37  1  0.93698509  0.31997894  0.41157957  1  0.651774  -0.00504  3.892036  -0.008  0.613478  -0.003682  4.186575  -0.006  0.651679  -0.002979  4.175836  -0.005  0.22126  0.586323  -0.004561  4.192097  -0.007
C  C38  1  0.44426113  0.30607676  0.09552044  1  -0.106843  0.002143  3.718113  0.002  -0.141136  0.000771  3.97647  0.001  -0.138299  0.000682  3.992235  0.001  -0.07511  -0.142943  0.000931  3.966095  0.001
C  C39  1  0.05573475  0.90447885  0.69392108  1  -0.106858  0.002134  3.718155  0.002  -0.141164  0.00077  3.976448  0.001  -0.138326  0.000682  3.992213  0.001  -0.07508  -0.142968  0.000931  3.96607  0.001
C  C40  1  0.55574334  0.69391976  0.90447875  1  -0.106806  -0.002078  3.718319  -0.002  -0.141088  -0.000769  3.976623  -0.001  -0.138252  -0.00068  3.992389  -0.001  -0.075049  -0.142895  -0.000929  3.966259  -0.001
C  C41  1  0.94425744  0.09552037  0.30608014  1  -0.106867  -0.002124  3.718258  -0.002  -0.141156  -0.00077  3.976536  -0.001  -0.138322  -0.00068  3.992303  -0.001  -0.075069  -0.142964  -0.000929  3.966169  -0.001
C  C42  1  0.39384223  0.21184052  0.98889598  1  0.024685  -0.000946  3.689618  -0.001  0.005187  -0.000179  3.945584  0.0  0.001679  -0.000215  3.966228  0.0  0.074461  0.007446  -0.000196  3.931632  0.0
C  C43  1  0.10615324  0.01110358  0.78816020  1  0.024746  -0.000936  3.689525  -0.001  0.005264  -0.000178  3.945437  0.0  0.001757  -0.000216  3.966082  0.0  0.074458  0.007524  -0.000196  3.931485  0.0
C  C44  1  0.60615766  0.78815600  0.01110385  1  0.024645  0.000884  3.689678  0.001  0.005186  0.000179  3.945623  0.0  0.001677  0.000216  3.966269  0.0  0.074453  0.007445  0.000196  3.93167  0.0
C  C45  1  0.89384259  0.98889741  0.21184606  1  0.024657  0.000933  3.689624  0.001  0.005225  0.000179  3.945499  0.0  0.001716  0.000214  3.966146  0.0  0.074448  0.007484  0.000196  3.931547  0.0
C  C46  1  0.27610237  0.12268941  0.98513058  1  0.036828  0.001596  3.755618  0.002  0.039411  0.000511  4.003099  0.001  0.042526  0.000484  4.023132  0.001  0.007033  0.037416  0.000624  3.989456  0.001
C  C47  1  0.22389297  0.01487005  0.87731055  1  0.036782  0.001585  3.755567  0.002  0.039386  0.00051  4.003024  0.001  0.042499  0.000483  4.023059  0.001  0.007005  0.037391  0.000624  3.989383  0.001
C  C48  1  0.72389658  0.87730891  0.01487066  1  0.036817  -0.001525  3.755596  -0.002  0.039411  -0.000508  4.00303  -0.001  0.042524  -0.000482  4.023065  -0.001  0.007025  0.03742  -0.00062  3.989382  -0.001
C  C49  1  0.77610161  0.98513007  0.12269194  1  0.036858  -0.001579  3.75552  -0.002  0.03949  -0.000509  4.002897  -0.001  0.042603  -0.000482  4.022933  -0.001  0.007073  0.037497  -0.000621  3.989249  -0.001
C  C50  1  0.99942908  0.52679377  0.27248208  1  0.130987  0.015259  3.653152  0.018  0.106592  0.001825  3.90764  0.003  0.115385  0.002584  3.924378  0.004  0.050487  0.099977  0.001524  3.896612  0.003
C  C51  1  0.50057158  0.72751753  0.47320663  1  0.130965  0.015235  3.653195  0.018  0.106584  0.001825  3.907645  0.003  0.115375  0.002584  3.924387  0.004  0.050477  0.099965  0.001524  3.896626  0.003
C  C52  1  0.00057038  0.47320912  0.72751812  1  0.130846  -0.015269  3.653117  -0.018  0.106561  -0.001827  3.907583  -0.003  0.115349  -0.002585  3.924326  -0.004  0.050432  0.099946  -0.001528  3.896567  -0.003
C  C53  1  0.49942996  0.27248354  0.52679307  1  0.130844  -0.015277  3.65316  -0.018  0.106547  -0.001827  3.907617  -0.003  0.115338  -0.002586  3.924358  -0.004  0.050453  0.099934  -0.001528  3.896599  -0.003
C  C54  1  0.76408649  0.55818404  0.19140613  1  0.116467  0.016324  3.712986  0.02  0.087689  0.002669  3.978191  0.004  0.096291  0.003271  3.995746  0.005  0.038481  0.081293  0.002511  3.966332  0.004
C  C55  1  0.73591555  0.80859377  0.44181474  1  0.116499  0.016308  3.712954  0.02  0.087716  0.002669  3.978175  0.004  0.096317  0.003272  3.995728  0.005  0.038499  0.081314  0.002511  3.966314  0.004
C  C56  1  0.23591525  0.44181886  0.80859333  1  0.116453  -0.016337  3.712902  -0.02  0.087749  -0.00267  3.978079  -0.004  0.096351  -0.003272  3.99563  -0.005  0.038489  0.081344  -0.002513  3.966222  -0.004
C  C57  1  0.26408714  0.19140734  0.55818160  1  0.116438  -0.016342  3.712943  -0.02  0.08773  -0.00267  3.97811  -0.004  0.096331  -0.003273  3.995661  -0.005  0.038497  0.081327  -0.002513  3.966249  -0.004
C  C58  1  0.25584204  0.22870537  0.20038609  1  -0.030384  0.000995  3.656292  0.001  -0.05956  -7e-05  3.906068  0.0  -0.056972  8.3e-05  3.923579  0.0  -0.067479  -0.061208  -0.000185  3.894622  0.0
C  C59  1  0.24415519  0.79961505  0.77129465  1  -0.030476  0.000987  3.656431  0.001  -0.059629  -7.1e-05  3.906222  0.0  -0.057043  8.2e-05  3.923737  0.0  -0.06753  -0.061279  -0.000185  3.894772  0.0
C  C60  1  0.74415816  0.77129385  0.79961551  1  -0.030499  -0.00092  3.656522  -0.001  -0.059638  7.3e-05  3.906314  0.0  -0.057048  -8.1e-05  3.923828  0.0  -0.067516  -0.061284  0.000188  3.894866  0.0
C  C61  1  0.75584053  0.20038508  0.22870704  1  -0.030506  -0.000976  3.656502  -0.001  -0.059637  7.2e-05  3.906288  0.0  -0.057053  -8.2e-05  3.923808  0.0  -0.067493  -0.061284  0.000188  3.894842  0.0
C  C62  1  0.20848985  0.13430630  0.09366473  1  -0.086127  -0.001531  3.699061  -0.002  -0.106026  -0.000364  3.953443  0.0  -0.110062  -0.000362  3.972383  0.0  -0.080766  -0.103372  -0.000419  3.940622  -0.001
C  C63  1  0.29150887  0.90633441  0.86569324  1  -0.086157  -0.001517  3.699034  -0.002  -0.106057  -0.000363  3.953402  0.0  -0.110095  -0.000362  3.972342  0.0  -0.080785  -0.103402  -0.000419  3.940577  -0.001
C  C64  1  0.79151243  0.86569110  0.90633722  1  -0.086193  0.001455  3.69913  0.002  -0.106084  0.000363  3.953511  0.0  -0.11012  0.000362  3.972452  0.0  -0.080786  -0.103429  0.000418  3.940686  0.001
C  C65  1  0.70848655  0.09366298  0.13430924  1  -0.086235  0.001515  3.699251  0.002  -0.106141  0.000364  3.953613  0.0  -0.110176  0.000361  3.972554  0.0  -0.080851  -0.103488  0.000418  3.94079  0.001
C  C66  1  0.96962778  0.51081935  0.05978445  1  0.106032  0.017996  3.738998  0.022  0.115817  0.003949  3.96977  0.005  0.121343  0.003876  3.988487  0.005  0.016404  0.111736  0.004695  3.957638  0.006
C  C67  1  0.53037344  0.94021561  0.48917912  1  0.106036  0.017979  3.739014  0.022  0.115821  0.003949  3.969794  0.005  0.121347  0.003877  3.988518  0.005  0.016384  0.111742  0.004695  3.957653  0.006
C  C68  1  0.03037426  0.48918627  0.94021592  1  0.106065  -0.018012  3.73896  -0.022  0.115834  -0.00395  3.969751  -0.005  0.121364  -0.003876  3.988466  -0.005  0.016382  0.111764  -0.004698  3.957609  -0.006
C  C69  1  0.46962675  0.05978372  0.51081309  1  0.106034  -0.018007  3.738973  -0.022  0.115799  -0.00395  3.969772  -0.005  0.121328  -0.003876  3.988485  -0.005  0.016403  0.11173  -0.004698  3.957628  -0.006
C  C70  1  0.81722195  0.53797692  0.07787679  1  -0.148112  -0.018748  3.703353  -0.022  -0.168817  -0.003885  3.953913  -0.005  -0.176897  -0.003847  3.974976  -0.005  -0.083103  -0.163525  -0.004438  3.940287  -0.006
C  C71  1  0.68277925  0.92212314  0.46202275  1  -0.148127  -0.018725  3.703379  -0.022  -0.168839  -0.003884  3.953956  -0.005  -0.176916  -0.003847  3.975016  -0.005  -0.083106  -0.163546  -0.004438  3.940326  -0.006
C  C72  1  0.18278239  0.46202871  0.92212283  1  -0.148202  0.018759  3.703388  0.022  -0.16892  0.003884  3.953952  0.005  -0.176998  0.003847  3.975009  0.005  -0.083111  -0.163624  0.004437  3.940321  0.006
C  C73  1  0.31722000  0.07787800  0.53797086  1  -0.148087  0.018762  3.703225  0.022  -0.168801  0.003884  3.95379  0.005  -0.176877  0.003847  3.97485  0.005  -0.083061  -0.163504  0.004437  3.940155  0.006
C  C74  1  0.06090301  0.50672809  0.16147478  1  -0.135246  -0.019951  3.668545  -0.023  -0.153082  -0.00447  3.909239  -0.006  -0.160522  -0.004359  3.929278  -0.006  -0.074939  -0.148428  -0.005108  3.89675  -0.007
C  C75  1  0.43909895  0.83852454  0.49327105  1  -0.135237  -0.019935  3.668567  -0.023  -0.153067  -0.004469  3.909253  -0.006  -0.160513  -0.004359  3.929281  -0.006  -0.074932  -0.148416  -0.005108  3.896762  -0.007
C  C76  1  0.93909894  0.49327664  0.83852443  1  -0.135285  0.019967  3.668693  0.023  -0.153131  0.004468  3.909373  0.006  -0.160571  0.004357  3.92941  0.006  -0.074928  -0.148477  0.005105  3.896885  0.007
C  C77  1  0.56090249  0.16147566  0.50672493  1  -0.135265  0.019967  3.668711  0.023  -0.153116  0.004468  3.909393  0.006  -0.160555  0.004358  3.929435  0.006  -0.074944  -0.148462  0.005106  3.896904  0.007
N  N78  1  0.47369392  0.20788644  0.88069615  1  0.477545  -7e-06  3.942213  0.0  0.533942  -3.8e-05  4.20088  0.0  0.555035  -3e-06  4.208021  0.0  0.056538  0.519615  -0.00015  4.196241  0.0
N  N79  1  0.02630151  0.11930331  0.79211121  1  0.477596  -7e-06  3.942161  0.0  0.533976  -3.7e-05  4.200825  0.0  0.55507  -3e-06  4.207967  0.0  0.056534  0.51965  -0.00015  4.196184  0.0
N  N80  1  0.52630328  0.79210644  0.11930236  1  0.477632  1.2e-05  3.942069  0.0  0.533909  3.7e-05  4.200871  0.0  0.555003  1e-06  4.208012  0.0  0.056452  0.519579  0.00015  4.196231  0.0
N  N81  1  0.97369681  0.88069949  0.20789662  1  0.477568  7e-06  3.941983  0.0  0.533825  3.8e-05  4.200788  0.0  0.554919  3e-06  4.207931  0.0  0.056442  0.519494  0.00015  4.19615  0.0
N  N82  1  0.85236787  0.55131558  0.28744670  1  -0.292612  -0.080648  3.32475  -0.116  -0.257457  -0.044547  3.619194  -0.068  -0.284985  -0.035479  3.639019  -0.055  -0.327643  -0.236461  -0.052892  3.604911  -0.078
N  N83  1  0.64763271  0.71255171  0.44868351  1  -0.292672  -0.080628  3.324771  -0.116  -0.257473  -0.044546  3.61917  -0.068  -0.284998  -0.035478  3.63899  -0.055  -0.327641  -0.23648  -0.05289  3.604892  -0.078
N  N84  1  0.14763347  0.44868370  0.71254983  1  -0.292464  0.080626  3.324526  0.116  -0.257369  0.044536  3.618945  0.068  -0.284885  0.035472  3.638761  0.055  -0.327593  -0.236387  0.052873  3.604678  0.078
N  N85  1  0.35236779  0.28745025  0.55131815  1  -0.292446  0.080628  3.324629  0.116  -0.257338  0.044535  3.619021  0.068  -0.284852  0.035472  3.638835  0.055  -0.327595  -0.236356  0.052873  3.604758  0.078
O  O86  1  0.57858621  0.44626025  0.32383895  1  -0.614926  -0.041088  2.174904  -0.063  -0.589714  -0.025278  2.456946  -0.04  -0.625753  -0.019799  2.447776  -0.032  -0.302013  -0.560044  -0.030435  2.461179  -0.048
O  O87  1  0.92141459  0.67616078  0.55373714  1  -0.614964  -0.041091  2.174842  -0.063  -0.589764  -0.025279  2.456868  -0.04  -0.625805  -0.019799  2.447704  -0.032  -0.302076  -0.560095  -0.030437  2.461107  -0.048
O  O88  1  0.42140150  0.55373992  0.67615895  1  -0.615104  0.04111  2.174234  0.063  -0.590018  0.025292  2.456299  0.04  -0.626079  0.019809  2.447152  0.032  -0.302211  -0.560331  0.030451  2.460524  0.048
O  O89  1  0.07859620  0.32384120  0.44626244  1  -0.615176  0.041107  2.174203  0.063  -0.590098  0.02529  2.456276  0.04  -0.626159  0.019808  2.447122  0.032  -0.302256  -0.560415  0.030449  2.460502  0.048
O  O90  1  0.34539904  0.44981541  0.40000118  1  -0.601424  0.018963  2.110738  0.026  -0.573116  0.015055  2.383995  0.02  -0.60263  0.012601  2.370804  0.017  -0.309301  -0.549765  0.017312  2.392136  0.023
O  O91  1  0.15460356  0.59999930  0.55018235  1  -0.601408  0.018964  2.110806  0.026  -0.573116  0.015055  2.384069  0.02  -0.602622  0.012601  2.370859  0.017  -0.309313  -0.549765  0.017312  2.39221  0.023
O  O92  1  0.65458908  0.55018824  0.60001075  1  -0.601129  -0.018956  2.111696  -0.026  -0.572875  -0.015054  2.384957  -0.02  -0.602359  -0.012601  2.371713  -0.017  -0.309207  -0.549529  -0.017308  2.393108  -0.023
O  O93  1  0.84540945  0.39999183  0.44981032  1  -0.601204  -0.018955  2.111538  -0.026  -0.572959  -0.015054  2.384824  -0.02  -0.602428  -0.012601  2.371543  -0.017  -0.309243  -0.549615  -0.017308  2.392975  -0.023
O  O94  1  0.53096464  0.30576454  0.87439996  1  -0.34926  -5.4e-05  1.730387  0.0  -0.343158  -4.3e-05  1.91405  0.0  -0.354924  -2.4e-05  1.910173  0.0  -0.132303  -0.335435  -0.00013  1.917041  0.0
O  O95  1  0.96903361  0.12559842  0.69423509  1  -0.34919  -5.1e-05  1.730529  0.0  -0.34308  -4.3e-05  1.914191  0.0  -0.354847  -2.3e-05  1.910317  0.0  -0.132237  -0.335362  -0.00013  1.917186  0.0
O  O96  1  0.46903360  0.69422749  0.12559402  1  -0.349241  4.2e-05  1.730338  0.0  -0.343119  4.3e-05  1.91407  0.0  -0.354881  2.5e-05  1.910186  0.0  -0.132262  -0.335386  0.000131  1.917044  0.0
O  O97  1  0.03096616  0.87440711  0.30577286  1  -0.349192  5.2e-05  1.730367  0.0  -0.343056  4.4e-05  1.9141  0.0  -0.354817  2.4e-05  1.910217  0.0  -0.132223  -0.335326  0.000131  1.917078  0.0
O  O98  1  0.48142424  0.10745827  0.80288509  1  -0.339431  -0.000214  1.762327  0.0  -0.334744  -4.8e-05  1.949544  0.0  -0.346789  -3.3e-05  1.948541  0.0  -0.12149  -0.326517  -0.000123  1.950403  0.0
O  O99  1  0.01857598  0.19711707  0.89254151  1  -0.339581  -0.000217  1.76221  0.0  -0.334893  -4.8e-05  1.949428  0.0  -0.34694  -3.3e-05  1.948423  0.0  -0.121573  -0.326665  -0.000123  1.950287  0.0
O  O100  1  0.51857057  0.89253367  0.19711556  1  -0.339514  0.000216  1.762332  0.0  -0.334778  4.8e-05  1.949588  0.0  -0.346825  3.4e-05  1.948586  0.0  -0.121484  -0.326556  0.000123  1.950448  0.0
O  O101  1  0.98143243  0.80288393  0.10746449  1  -0.339476  0.000214  1.762154  0.0  -0.334741  4.7e-05  1.949411  0.0  -0.34679  3.5e-05  1.94841  0.0  -0.121484  -0.32652  0.000123  1.950273  0.0
