# generated using pymatgen
data_CoH36C40(N4Cl)2
_symmetry_space_group_name_H-M   'P 1'
_cell_length_a   7.74270114
_cell_length_b   9.09703060
_cell_length_c   12.55433076
_cell_angle_alpha   103.30157017
_cell_angle_beta   105.05255902
_cell_angle_gamma   91.40877290
_symmetry_Int_Tables_number   1
_chemical_formula_structural   CoH36C40(N4Cl)2
_chemical_formula_sum   'Co1 H36 C40 N8 Cl2'
_cell_volume   827.66870124
_cell_formula_units_Z   1
loop_
 _symmetry_equiv_pos_site_id
 _symmetry_equiv_pos_as_xyz
  1  'x, y, z'
loop_
 _atom_site_type_symbol
 _atom_site_label
 _atom_site_symmetry_multiplicity
 _atom_site_fract_x
 _atom_site_fract_y
 _atom_site_fract_z
 _atom_site_occupancy
 _atom_site_hle17_ddec_charge
 _atom_site_hle17_ddec_spin_density
 _atom_site_hle17_ddec_sum_bond_order
 _atom_site_hle17_magmom
 _atom_site_hse06_10hf_ddec_charge
 _atom_site_hse06_10hf_ddec_spin_density
 _atom_site_hse06_10hf_ddec_sum_bond_order
 _atom_site_hse06_10hf_magmom
 _atom_site_hse06_ddec_charge
 _atom_site_hse06_ddec_spin_density
 _atom_site_hse06_ddec_sum_bond_order
 _atom_site_hse06_magmom
 _atom_site_pbe_cm5_charge
 _atom_site_pbe_ddec_charge
 _atom_site_pbe_ddec_spin_density
 _atom_site_pbe_ddec_sum_bond_order
 _atom_site_pbe_magmom
Co  Co0  1  0.00000844  0.49999379  0.49999637  1  0.513404  -1.109773  2.42595  -0.992  0.484953  -1.032639  2.830319  -0.956  0.554954  -1.032711  2.767472  -0.968  0.57933  0.446596  -1.025173  2.867159  -0.935
H  H1  1  0.69210579  0.33611118  0.77829272  1  0.098292  -0.00031  0.973532  0.0  0.104243  -0.000388  1.042905  0.0  0.10756  -0.000278  1.041571  0.0  0.093832  0.101945  -0.000498  1.043469  0.0
H  H2  1  0.30788238  0.66392065  0.22172308  1  0.098355  -0.000301  0.97328  0.0  0.104196  -0.000388  1.042816  0.0  0.107515  -0.000278  1.041481  0.0  0.093823  0.101898  -0.000498  1.043381  0.0
H  H3  1  0.98096822  0.36548481  0.92899944  1  0.095642  7e-06  0.96171  0.0  0.102904  3e-06  1.0311  0.0  0.106287  3e-06  1.028441  0.0  0.102739  0.100393  1e-06  1.033165  0.0
H  H4  1  0.01903585  0.63453839  0.07100547  1  0.095688  4e-06  0.961524  0.0  0.102965  3e-06  1.030895  0.0  0.106348  3e-06  1.028233  0.0  0.102762  0.100455  1e-06  1.032958  0.0
H  H5  1  0.78296887  0.01098693  0.05408352  1  0.096355  -4e-06  0.961715  0.0  0.099216  -0.0  1.035442  0.0  0.10313  -1e-06  1.032912  0.0  0.099843  0.096567  -0.0  1.037082  0.0
H  H6  1  0.21702875  0.98903858  0.94591918  1  0.096497  -4e-06  0.961597  0.0  0.099333  -0.0  1.035355  0.0  0.103247  -1e-06  1.032824  0.0  0.099929  0.096683  -0.0  1.036995  0.0
H  H7  1  0.49446127  0.97951473  0.90144702  1  0.09891  -2e-06  0.965627  0.0  0.106957  1e-06  1.031742  0.0  0.10975  -0.0  1.030682  0.0  0.1042  0.104913  1e-06  1.032748  0.0
H  H8  1  0.50554620  0.02048330  0.09855063  1  0.098845  -7e-06  0.965659  0.0  0.1069  1e-06  1.031776  0.0  0.109691  -1e-06  1.030716  0.0  0.1042  0.104875  1e-06  1.032759  0.0
H  H9  1  0.38788120  0.23309163  0.69584309  1  0.052061  9e-06  0.94637  0.0  0.061419  -4.1e-05  1.017762  0.0  0.063844  -4e-05  1.016035  0.0  0.10053  0.059693  -5e-05  1.018686  0.0
H  H10  1  0.61209388  0.76691182  0.30416174  1  0.052014  1.1e-05  0.946359  0.0  0.061347  -4.1e-05  1.017779  0.0  0.063804  -4e-05  1.016022  0.0  0.100497  0.059629  -5e-05  1.018681  0.0
H  H11  1  0.10066118  0.16680277  0.62099198  1  0.062345  -7e-05  0.955578  0.0  0.076181  5e-05  1.025783  0.0  0.07512  3.6e-05  1.028718  0.0  0.09838  0.07656  7.5e-05  1.024198  0.0
H  H12  1  0.89933636  0.83318984  0.37900658  1  0.062479  -7.1e-05  0.95569  0.0  0.076355  5e-05  1.025886  0.0  0.075298  3.6e-05  1.02882  0.0  0.098421  0.076731  7.5e-05  1.024302  0.0
H  H13  1  0.02032923  0.18183780  0.74156652  1  0.075865  8e-06  0.9336  0.0  0.096993  4.2e-05  0.993879  0.0  0.095629  2.7e-05  0.995761  0.0  0.108997  0.097521  3.2e-05  0.992871  0.0
H  H14  1  0.97966425  0.81815382  0.25843369  1  0.075907  6e-06  0.933579  0.0  0.097094  4.2e-05  0.993859  0.0  0.095727  2.7e-05  0.995741  0.0  0.109003  0.097623  3.2e-05  0.992849  0.0
H  H15  1  0.16335791  0.80977307  0.61723738  1  0.087905  0.000192  0.97073  0.0  0.091344  0.00026  1.042332  0.0  0.093651  0.000204  1.039705  0.0  0.111842  0.089668  0.000287  1.044034  0.0
H  H16  1  0.83664709  0.19022619  0.38276169  1  0.087908  0.000193  0.970728  0.0  0.09125  0.00026  1.042429  0.0  0.093546  0.000204  1.039793  0.0  0.111815  0.089574  0.000287  1.044131  0.0
H  H17  1  0.72351004  0.08861320  0.61853327  1  0.101082  -0.000342  0.97667  0.0  0.109442  -0.000254  1.042065  0.0  0.112233  -0.000202  1.039935  0.0  0.096685  0.106686  -0.000242  1.044841  0.0
H  H18  1  0.27647543  0.91135698  0.38146334  1  0.101146  -0.000345  0.976849  0.0  0.109516  -0.000254  1.042199  0.0  0.112307  -0.000202  1.040069  0.0  0.09673  0.106758  -0.000242  1.044975  0.0
H  H19  1  0.51217275  0.84675639  0.52472998  1  0.106212  0.000196  0.972441  0.0  0.114634  -0.000143  1.033288  0.0  0.117523  -7.4e-05  1.032948  0.0  0.097053  0.112503  -0.000235  1.03335  0.0
H  H20  1  0.48781882  0.15322043  0.47526614  1  0.106136  0.000202  0.97258  0.0  0.114596  -0.000143  1.033384  0.0  0.117486  -7.3e-05  1.033045  0.0  0.09703  0.112464  -0.000235  1.033442  0.0
H  H21  1  0.64139571  0.60360539  0.48666499  1  0.077333  0.000201  0.992662  0.0  0.079729  0.000211  1.067904  0.0  0.081994  0.000162  1.064969  0.0  0.107375  0.077041  0.000188  1.072261  0.0
H  H22  1  0.35860563  0.39637471  0.51333306  1  0.077417  0.000198  0.992732  0.0  0.07987  0.000211  1.067901  0.0  0.082133  0.000162  1.064967  0.0  0.107376  0.077138  0.000188  1.072311  0.0
H  H23  1  0.06005181  0.13804278  0.15498639  1  0.053287  1.5e-05  0.933859  0.0  0.06355  3e-05  1.001354  0.0  0.065998  1.6e-05  0.999597  0.0  0.102773  0.062135  4e-05  1.002125  0.0
H  H24  1  0.93995166  0.86196558  0.84501382  1  0.053301  1.4e-05  0.933753  0.0  0.063529  3e-05  1.001301  0.0  0.065972  1.6e-05  0.999548  0.0  0.102754  0.062116  4e-05  1.002069  0.0
H  H25  1  0.33762504  0.21533360  0.24809395  1  0.056357  -6.3e-05  0.947193  0.0  0.074067  1.1e-05  1.011679  0.0  0.073103  -6e-06  1.013988  0.0  0.09787  0.074702  2.1e-05  1.009903  0.0
H  H26  1  0.66239314  0.78465303  0.75190677  1  0.056366  -7.4e-05  0.947414  0.0  0.074051  1.1e-05  1.011861  0.0  0.073091  -6e-06  1.01417  0.0  0.097843  0.074687  2.1e-05  1.010085  0.0
H  H27  1  0.29110397  0.40653133  0.28849610  1  0.0831  0.000139  0.961365  0.0  0.099699  0.000128  1.02606  0.0  0.09935  0.000103  1.026712  0.0  0.099028  0.09971  0.000143  1.025407  0.0
H  H28  1  0.70890029  0.59345096  0.71150191  1  0.083101  0.000135  0.961359  0.0  0.099617  0.000128  1.026088  0.0  0.099268  0.000103  1.026747  0.0  0.099021  0.099629  0.000143  1.025433  0.0
H  H29  1  0.62100849  0.37488919  0.40023216  1  0.085047  0.000334  1.012897  0.0  0.092754  0.000281  1.077533  0.0  0.0948  0.000219  1.075429  0.0  0.09973  0.0908  0.000311  1.079835  0.0
H  H30  1  0.37902432  0.62510746  0.59977223  1  0.084986  0.000339  1.012924  0.0  0.092678  0.000281  1.077591  0.0  0.094726  0.000219  1.075483  0.0  0.099727  0.090726  0.000312  1.079889  0.0
H  H31  1  0.46043472  0.40027212  0.05049349  1  0.102185  1.8e-05  0.950526  0.0  0.110296  7.7e-05  1.0166  0.0  0.113488  4.1e-05  1.013925  0.0  0.106164  0.107972  0.00011  1.018568  0.0
H  H32  1  0.53955690  0.59972430  0.94951353  1  0.102163  2e-05  0.950562  0.0  0.110229  7.7e-05  1.016692  0.0  0.113443  4.1e-05  1.013955  0.0  0.106171  0.107909  0.00011  1.018657  0.0
H  H33  1  0.77857185  0.50541874  0.07881922  1  0.095508  0.000182  0.970348  0.0  0.105206  1.8e-05  1.033998  0.0  0.107714  2.9e-05  1.03359  0.0  0.103532  0.103379  -1e-06  1.034544  0.0
H  H34  1  0.22141667  0.49457830  0.92117230  1  0.09553  0.000176  0.970419  0.0  0.105235  1.8e-05  1.034048  0.0  0.107745  2.8e-05  1.033636  0.0  0.10352  0.103411  -1e-06  1.034598  0.0
H  H35  1  0.99993114  0.54274583  0.26951565  1  0.088281  0.000229  1.002748  0.0  0.094094  0.000193  1.06908  0.0  0.096588  0.00016  1.066707  0.0  0.099848  0.092098  0.000208  1.071012  0.0
H  H36  1  0.00007897  0.45726540  0.73047402  1  0.088271  0.000224  1.002667  0.0  0.094124  0.000194  1.06897  0.0  0.0966  0.000159  1.066648  0.0  0.099892  0.092138  0.000208  1.070873  0.0
C  C37  1  0.57278453  0.15815677  0.83261121  1  0.038125  5.6e-05  3.805954  0.0  0.059203  -4e-06  4.035481  0.0  0.056907  -6e-06  4.059681  0.0  -0.012166  0.061137  5.7e-05  4.018865  0.0
C  C38  1  0.42721386  0.84186419  0.16739093  1  0.03799  5.6e-05  3.806005  0.0  0.059144  -4e-06  4.035428  0.0  0.056848  -5e-06  4.059635  0.0  -0.012103  0.061079  5.7e-05  4.018818  0.0
C  C39  1  0.71232648  0.26461681  0.83866273  1  -0.103336  -0.000142  3.731446  0.0  -0.123834  -0.000233  3.982259  0.0  -0.127134  -0.00017  4.003913  0.0  -0.083289  -0.121786  -0.000316  3.967117  0.0
C  C40  1  0.28766504  0.73540206  0.16134047  1  -0.103341  -0.00016  3.731246  0.0  -0.123812  -0.000233  3.982084  0.0  -0.127115  -0.000171  4.003739  0.0  -0.08338  -0.121764  -0.000316  3.966939  0.0
C  C41  1  0.87466724  0.28002450  0.92162566  1  -0.088432  8.8e-05  3.723675  0.0  -0.109978  4e-05  3.974621  0.0  -0.111019  8e-06  3.993886  0.0  -0.082621  -0.109218  4.2e-05  3.961405  0.0
C  C42  1  0.12533198  0.72000224  0.07838066  1  -0.088555  9.6e-05  3.723744  0.0  -0.110115  4e-05  3.974661  0.0  -0.111157  1e-05  3.993931  0.0  -0.08262  -0.109354  4.2e-05  3.961442  0.0
C  C43  1  0.90078933  0.19052737  0.00101738  1  0.038288  1e-06  3.813741  0.0  0.057284  3e-06  4.044218  0.0  0.054906  4e-06  4.069125  0.0  -0.011341  0.058859  -1.5e-05  4.027246  0.0
C  C44  1  0.09922014  0.80949680  0.99898608  1  0.038402  1.4e-05  3.813914  0.0  0.057481  3e-06  4.044257  0.0  0.055105  3e-06  4.069163  0.0  -0.01126  0.059056  -1.5e-05  4.027286  0.0
C  C45  1  0.76334586  0.08045391  0.99226795  1  -0.105021  -1e-06  3.735877  0.0  -0.122145  -2.4e-05  3.983468  0.0  -0.12574  -2e-05  4.005454  0.0  -0.082926  -0.11967  -1.9e-05  3.968444  0.0
C  C46  1  0.23665613  0.91956460  0.00773117  1  -0.105246  -5e-06  3.735912  0.0  -0.122384  -2.4e-05  3.983539  0.0  -0.125979  -1.9e-05  4.005524  0.0  -0.08304  -0.119908  -1.9e-05  3.968521  0.0
C  C47  1  0.60208990  0.06344719  0.90839323  1  -0.084508  5.3e-05  3.715508  0.0  -0.105264  4.3e-05  3.957431  0.0  -0.106612  3.3e-05  3.978318  0.0  -0.082386  -0.104602  3.3e-05  3.943623  0.0
C  C48  1  0.39790743  0.93656577  0.09160596  1  -0.084424  7.7e-05  3.715543  0.0  -0.105215  4.4e-05  3.957489  0.0  -0.106563  3.1e-05  3.978375  0.0  -0.082468  -0.104569  3.3e-05  3.943673  0.0
C  C49  1  0.39611698  0.15672853  0.75369830  1  0.112955  2e-05  3.723867  0.0  0.080648  -1.5e-05  3.976726  0.0  0.088804  -1.1e-05  3.991853  0.0  0.069784  0.074934  -2.4e-05  3.966465  0.0
C  C50  1  0.60386863  0.84327461  0.24630406  1  0.113089  1.3e-05  3.723771  0.0  0.080788  -1.5e-05  3.976601  0.0  0.088921  -1.1e-05  3.99172  0.0  0.069844  0.075076  -2.5e-05  3.966343  0.0
C  C51  1  0.08594208  0.10566632  0.68520623  1  -0.024455  0.000806  3.757135  0.001  -0.080387  0.000238  4.010932  0.0  -0.076381  0.000228  4.025295  0.0  -0.062593  -0.082689  0.000229  4.001779  0.0
C  C52  1  0.91404463  0.89431404  0.31479128  1  -0.024617  0.000809  3.757233  0.001  -0.080738  0.000238  4.011193  0.0  -0.076735  0.000228  4.025555  0.0  -0.06266  -0.083035  0.000229  4.002042  0.0
C  C53  1  0.02027091  0.82257928  0.59954602  1  0.068233  0.014799  3.6301  0.01  0.029659  0.005146  3.886534  0.003  0.040737  0.004137  3.899752  0.003  0.040004  0.02205  0.006386  3.879431  0.004
C  C54  1  0.97973129  0.17740962  0.40044630  1  0.068227  0.014796  3.629882  0.01  0.029767  0.005148  3.886284  0.003  0.040864  0.004139  3.899484  0.003  0.039934  0.022161  0.006388  3.879184  0.004
C  C55  1  0.95880644  0.96521939  0.62798631  1  0.04302  -0.004017  3.715696  -0.006  0.066562  -0.000362  3.955119  -0.001  0.0613  -0.000614  3.976296  -0.001  -0.002649  0.068412  -0.00031  3.94309  -0.001
C  C56  1  0.04117950  0.03476651  0.37200794  1  0.043173  -0.004015  3.715619  -0.006  0.066811  -0.000363  3.954965  -0.001  0.061552  -0.000615  3.976139  -0.001  -0.002496  0.068648  -0.000311  3.942958  -0.001
C  C57  1  0.77340448  0.97730148  0.59957204  1  -0.065481  0.015757  3.70167  0.01  -0.091921  0.004915  3.946646  0.003  -0.085719  0.003513  3.961764  0.002  -0.075248  -0.096381  0.00693  3.937642  0.004
C  C58  1  0.22657798  0.02267670  0.40042532  1  -0.065627  0.015765  3.701769  0.01  -0.092073  0.004918  3.946719  0.003  -0.085873  0.003515  3.961845  0.002  -0.075313  -0.096531  0.006933  3.937721  0.004
C  C59  1  0.65799579  0.84645724  0.54741713  1  -0.123687  -0.004255  3.767626  -0.006  -0.132836  -0.000563  4.01684  -0.001  -0.140222  -0.000742  4.035376  -0.001  -0.091816  -0.126472  -0.000624  4.003765  -0.001
C  C60  1  0.34199882  0.15352190  0.45258217  1  -0.123565  -0.004268  3.767517  -0.006  -0.132742  -0.000563  4.016744  -0.001  -0.140136  -0.000743  4.03529  -0.001  -0.09179  -0.126373  -0.000625  4.003651  -0.001
C  C61  1  0.72941602  0.70770904  0.52384796  1  0.099539  0.01573  3.692952  0.011  0.065706  0.005336  3.954592  0.003  0.076645  0.004195  3.969152  0.003  0.03347  0.057003  0.006639  3.947805  0.004
C  C62  1  0.27058326  0.29227467  0.47615510  1  0.099313  0.01576  3.693537  0.011  0.06539  0.005338  3.955308  0.003  0.076364  0.004197  3.969814  0.003  0.033369  0.056716  0.006641  3.948537  0.004
C  C63  1  0.06177299  0.21202678  0.09651337  1  0.1113  0.00014  3.742088  0.0  0.078204  8.1e-05  4.001728  0.0  0.086623  3.4e-05  4.016367  0.0  0.070145  0.072652  0.000147  3.991459  0.0
C  C64  1  0.93823356  0.78798393  0.90349083  1  0.111315  0.000149  3.741872  0.0  0.078208  8.1e-05  4.001523  0.0  0.086632  3.6e-05  4.01616  0.0  0.070129  0.072654  0.000147  3.991257  0.0
C  C65  1  0.33118052  0.32328054  0.22151757  1  -0.037002  0.000422  3.75872  0.0  -0.088134  0.000139  4.005624  0.0  -0.085021  0.000129  4.020092  0.0  -0.066093  -0.089787  0.000124  3.995659  0.0
C  C66  1  0.66883250  0.67671761  0.77848651  1  -0.037127  0.000472  3.759019  0.0  -0.08805  0.000138  4.005739  0.0  -0.084944  0.000129  4.020223  0.0  -0.066049  -0.089706  0.000124  3.995775  0.0
C  C67  1  0.64994224  0.40397434  0.32663774  1  0.040751  0.008029  3.651055  0.006  0.005174  0.003148  3.903865  0.002  0.01342  0.002453  3.919805  0.002  0.035341  -8.2e-05  0.003861  3.892793  0.003
C  C68  1  0.35007222  0.59602588  0.67336208  1  0.04089  0.007991  3.650921  0.006  0.005363  0.003147  3.903736  0.002  0.013603  0.002452  3.919686  0.002  0.035379  0.000112  0.003861  3.892654  0.003
C  C69  1  0.51625143  0.38069423  0.22369436  1  0.049347  -0.001514  3.71872  -0.002  0.07215  -1e-06  3.955724  0.0  0.067675  -0.000185  3.978285  0.0  -0.001351  0.075022  1.7e-05  3.940132  0.0
C  C70  1  0.48375875  0.61930280  0.77630833  1  0.049349  -0.001513  3.718726  -0.002  0.071962  -1e-06  3.955861  0.0  0.067487  -0.000185  3.978433  0.0  -0.001391  0.074835  1.7e-05  3.940268  0.0
C  C71  1  0.56142777  0.41727168  0.13192982  1  -0.057424  0.007273  3.701188  0.005  -0.083249  0.002639  3.946712  0.002  -0.079747  0.001883  3.964827  0.001  -0.069646  -0.085485  0.003618  3.934211  0.002
C  C72  1  0.43857144  0.58272324  0.86807093  1  -0.057398  0.007259  3.701162  0.005  -0.083144  0.002639  3.946729  0.002  -0.079627  0.001883  3.964845  0.001  -0.069629  -0.085382  0.003618  3.934229  0.002
C  C73  1  0.73702206  0.47580103  0.14828632  1  -0.11361  -0.001675  3.764805  -0.002  -0.123594  -1.9e-05  4.015188  0.0  -0.131259  -0.000223  4.038221  0.0  -0.086744  -0.11842  1.3e-05  3.999527  0.0
C  C74  1  0.26296696  0.52420876  0.85171436  1  -0.113683  -0.001671  3.765035  -0.002  -0.123669  -2e-05  4.015403  0.0  -0.131333  -0.000222  4.03843  0.0  -0.086738  -0.118502  1.3e-05  3.999751  0.0
C  C75  1  0.86218924  0.49640375  0.25364539  1  0.099586  0.007622  3.653089  0.005  0.0642  0.00292  3.913339  0.002  0.073289  0.002362  3.929789  0.002  0.032896  0.058068  0.00344  3.902135  0.002
C  C76  1  0.13781491  0.50361025  0.74635496  1  0.099554  0.007661  3.653362  0.005  0.064123  0.00292  3.913598  0.002  0.073202  0.00236  3.930043  0.002  0.032806  0.057997  0.003438  3.902395  0.002
N  N77  1  0.25682979  0.07902031  0.75548622  1  -0.305482  -2.8e-05  3.014226  0.0  -0.258566  -2e-05  3.287657  0.0  -0.272038  -3.2e-05  3.30306  0.0  -0.323602  -0.249584  9.9e-05  3.276763  0.0
N  N78  1  0.74316267  0.92097363  0.24451498  1  -0.3056  -2.2e-05  3.01412  0.0  -0.258641  -2e-05  3.287629  0.0  -0.272115  -3.1e-05  3.303042  0.0  -0.32365  -0.249661  9.9e-05  3.276738  0.0
N  N79  1  0.19427744  0.31087921  0.11570901  1  -0.300793  0.000166  2.989374  0.0  -0.256273  0.000112  3.263718  0.0  -0.269706  6.8e-05  3.279526  0.0  -0.324949  -0.247301  0.000135  3.252626  0.0
N  N80  1  0.80573473  0.68912243  0.88429706  1  -0.300742  0.000156  2.98916  0.0  -0.256252  0.000113  3.263416  0.0  -0.269684  6.6e-05  3.279222  0.0  -0.324904  -0.247282  0.000135  3.252329  0.0
N  N81  1  0.90810262  0.69484542  0.54720317  1  -0.235772  0.015473  3.400123  0.01  -0.184865  0.011025  3.684999  0.008  -0.212717  0.010533  3.704578  0.008  -0.337265  -0.168805  0.010382  3.6723  0.008
N  N82  1  0.09189997  0.30514783  0.45278508  1  -0.235717  0.015464  3.400254  0.01  -0.184843  0.011023  3.685169  0.008  -0.212703  0.01053  3.704749  0.008  -0.337209  -0.16878  0.010379  3.672454  0.008
N  N83  1  0.82002938  0.46204273  0.34387070  1  -0.236609  0.011071  3.337691  0.007  -0.181884  0.008021  3.612639  0.006  -0.209648  0.008224  3.63474  0.006  -0.320651  -0.164439  0.00614  3.59704  0.004
N  N84  1  0.17998415  0.53795990  0.65613252  1  -0.23654  0.011067  3.337769  0.007  -0.181793  0.008019  3.612673  0.006  -0.209551  0.008223  3.634773  0.006  -0.320608  -0.164349  0.006139  3.597073  0.004
Cl  Cl85  1  0.76063338  0.36389577  0.57860664  1  -0.591957  -0.031756  0.873574  -0.051  -0.560999  -0.026725  1.119226  -0.04  -0.582533  -0.019845  1.100497  -0.03  -0.28437  -0.540948  -0.034787  1.131798  -0.051
Cl  Cl86  1  0.23937791  0.63609075  0.42138746  1  -0.591977  -0.031753  0.873624  -0.051  -0.560991  -0.026726  1.11928  -0.04  -0.582535  -0.019846  1.100553  -0.03  -0.284348  -0.540933  -0.034788  1.131848  -0.051
