# generated using pymatgen
data_BaH5C8NO7
_symmetry_space_group_name_H-M   'P 1'
_cell_length_a   7.28181375
_cell_length_b   7.67598736
_cell_length_c   17.56574722
_cell_angle_alpha   98.31989567
_cell_angle_beta   98.46327139
_cell_angle_gamma   90.19919811
_symmetry_Int_Tables_number   1
_chemical_formula_structural   BaH5C8NO7
_chemical_formula_sum   'Ba4 H20 C32 N4 O28'
_cell_volume   960.61892692
_cell_formula_units_Z   4
loop_
 _symmetry_equiv_pos_site_id
 _symmetry_equiv_pos_as_xyz
  1  'x, y, z'
loop_
 _atom_site_type_symbol
 _atom_site_label
 _atom_site_symmetry_multiplicity
 _atom_site_fract_x
 _atom_site_fract_y
 _atom_site_fract_z
 _atom_site_occupancy
 _atom_site_hle17_bader_spin_density
 _atom_site_hle17_ddec_charge
 _atom_site_hle17_ddec_spin_density
 _atom_site_hle17_ddec_sum_bond_order
 _atom_site_hle17_magmom
 _atom_site_hse06_10hf_bader_spin_density
 _atom_site_hse06_10hf_ddec_charge
 _atom_site_hse06_10hf_ddec_spin_density
 _atom_site_hse06_10hf_ddec_sum_bond_order
 _atom_site_hse06_10hf_magmom
 _atom_site_hse06_bader_spin_density
 _atom_site_hse06_ddec_charge
 _atom_site_hse06_ddec_spin_density
 _atom_site_hse06_ddec_sum_bond_order
 _atom_site_hse06_magmom
 _atom_site_pbe_bader_spin_density
 _atom_site_pbe_cm5_charge
 _atom_site_pbe_ddec_charge
 _atom_site_pbe_ddec_spin_density
 _atom_site_pbe_ddec_sum_bond_order
 _atom_site_pbe_magmom
Ba  Ba0  1  0.24550129  0.06954615  0.75385219  1  0  1.636349  0  1.126577  0  0  1.474813  0  1.530149  0  0  1.516528  0  1.486778  0  0  0.942118  1.444103  0  1.560968  0
Ba  Ba1  1  0.75448064  0.93045520  0.24614623  1  0  1.636351  0  1.126633  0  0  1.474791  0  1.53025  0  0  1.516508  0  1.486874  0  0  0.942116  1.444084  0  1.561068  0
Ba  Ba2  1  0.23116983  0.17235938  0.15578590  1  0  1.624729  0  1.10444  0  0  1.461676  0  1.500493  0  0  1.504737  0  1.457732  0  0  0.934931  1.429884  0  1.530883  0
Ba  Ba3  1  0.76882430  0.82762490  0.84421229  1  0  1.624786  0  1.104348  0  0  1.461647  0  1.500525  0  0  1.504713  0  1.457775  0  0  0.934959  1.429851  0  1.530916  0
H  H4  1  0.98507185  0.59957598  0.55210334  1  0  0.413046  0  0.859969  0  0  0.380323  0  0.939156  0  0  0.393564  0  0.925804  0  0  0.306041  0.371067  0  0.94838  0
H  H5  1  0.01493823  0.40042664  0.44789978  1  0  0.413006  0  0.859906  0  0  0.380263  0  0.939123  0  0  0.393505  0  0.925771  0  0  0.306031  0.371006  0  0.948345  0
H  H6  1  0.12774837  0.38362279  0.84796264  1  0  0.082516  0  1.037986  0  0  0.092286  0  1.107271  0  0  0.096377  0  1.10425  0  0  0.114873  0.089324  0  1.109512  0
H  H7  1  0.87224637  0.61636912  0.15204015  1  0  0.082516  0  1.037868  0  0  0.092248  0  1.107209  0  0  0.096343  0  1.104185  0  0  0.114825  0.089283  0  1.10946  0
H  H8  1  0.16512211  0.83557144  0.41082900  1  0  0.134952  0  0.929271  0  0  0.143902  0  0.989782  0  0  0.14831  0  0.986724  0  0  0.125638  0.14069  0  0.992095  0
H  H9  1  0.83488853  0.16444770  0.58916514  1  0  0.13489  0  0.929276  0  0  0.143825  0  0.98986  0  0  0.148238  0  0.986785  0  0  0.12561  0.140615  0  0.992167  0
H  H10  1  0.48936322  0.63353131  0.64178545  1  0  0.427354  0  0.84857  0  0  0.394664  0  0.927277  0  0  0.408099  0  0.912635  0  0  0.319427  0.385212  0  0.937475  0
H  H11  1  0.51064719  0.36647111  0.35822051  1  0  0.427373  0  0.848382  0  0  0.394603  0  0.927228  0  0  0.408032  0  0.912597  0  0  0.319409  0.385152  0  0.937421  0
H  H12  1  0.38350381  0.81815053  0.01301206  1  0  0.136042  0  0.941637  0  0  0.142678  0  1.005559  0  0  0.147849  0  1.000974  0  0  0.129808  0.138938  0  1.008946  0
H  H13  1  0.61649642  0.18184811  0.98698976  1  0  0.135992  0  0.941648  0  0  0.142609  0  1.005586  0  0  0.147777  0  1.001003  0  0  0.129783  0.13887  0  1.008971  0
H  H14  1  0.41907308  0.35527455  0.47066577  1  0  0.134596  0  0.981949  0  0  0.139193  0  1.048433  0  0  0.143792  0  1.044619  0  0  0.118528  0.135779  0  1.051413  0
H  H15  1  0.58093628  0.64471786  0.52933197  1  0  0.134708  0  0.981792  0  0  0.139195  0  1.048398  0  0  0.143785  0  1.044585  0  0  0.118557  0.135821  0  1.051326  0
H  H16  1  0.01718856  0.34885145  0.34426546  1  0  0.413861  0  0.866552  0  0  0.386118  0  0.940328  0  0  0.396562  0  0.928121  0  0  0.310386  0.378667  0  0.949091  0
H  H17  1  0.98281650  0.65114814  0.65574235  1  0  0.41395  0  0.866434  0  0  0.386165  0  0.940315  0  0  0.396609  0  0.928105  0  0  0.310393  0.37871  0  0.949077  0
H  H18  1  0.08276592  0.54431127  0.35351180  1  0  0.423221  0  0.872888  0  0  0.395666  0  0.933459  0  0  0.406647  0  0.917379  0  0  0.29649  0.387908  0  0.944818  0
H  H19  1  0.91723840  0.45568744  0.64648964  1  0  0.423134  0  0.873082  0  0  0.395678  0  0.933444  0  0  0.406653  0  0.917375  0  0  0.296504  0.387919  0  0.944803  0
H  H20  1  0.04589129  0.46556935  0.75122783  1  0  0.409804  0  0.881324  0  0  0.383427  0  0.952874  0  0  0.393086  0  0.940101  0  0  0.303095  0.376588  0  0.96041  0
H  H21  1  0.95410861  0.53442284  0.24877178  1  0  0.409845  0  0.88122  0  0  0.383449  0  0.952794  0  0  0.39311  0  0.940077  0  0  0.303123  0.376612  0  0.960328  0
H  H22  1  0.86942934  0.35267904  0.75199174  1  0  0.434807  0  0.863684  0  0  0.404707  0  0.925725  0  0  0.416347  0  0.908694  0  0  0.303272  0.396436  0  0.937809  0
H  H23  1  0.13055879  0.64732862  0.24801199  1  0  0.434867  0  0.863577  0  0  0.404773  0  0.925619  0  0  0.416404  0  0.908595  0  0  0.303284  0.396501  0  0.937709  0
C  C24  1  0.26150949  0.61377621  0.92082653  1  0  -0.008507  0  3.686999  0  0  0.012894  0  3.928516  0  0  0.009737  0  3.945756  0  0  0.0177  0.014723  0  3.917183  0
C  C25  1  0.73848807  0.38622102  0.07917622  1  0  -0.008505  0  3.687041  0  0  0.012822  0  3.928531  0  0  0.009666  0  3.945765  0  0  0.017674  0.014654  0  3.917197  0
C  C26  1  0.18908881  0.44193597  0.90610129  1  0  -0.127104  0  3.722025  0  0  -0.164518  0  3.970837  0  0  -0.166803  0  3.990168  0  0  -0.06595  -0.16287  0  3.95805  0
C  C27  1  0.81091403  0.55806413  0.09389905  1  0  -0.126972  0  3.721877  0  0  -0.164348  0  3.970745  0  0  -0.166628  0  3.99007  0  0  -0.065851  -0.162704  0  3.957963  0
C  C28  1  0.22343988  0.94681618  0.45329732  1  0  -0.095837  0  3.62702  0  0  -0.134682  0  3.879166  0  0  -0.135179  0  3.896429  0  0  -0.057794  -0.134236  0  3.867819  0
C  C29  1  0.77655734  0.05319326  0.54670122  1  0  -0.095884  0  3.626701  0  0  -0.134795  0  3.878941  0  0  -0.135289  0  3.89621  0  0  -0.057783  -0.134348  0  3.867593  0
C  C30  1  0.22139344  0.94774337  0.53282573  1  0  0.08158  0  3.789781  0  0  0.08989  0  4.040508  0  0  0.087537  0  4.060183  0  0  0.116153  0.091146  0  4.027388  0
C  C31  1  0.77859524  0.05226481  0.46717065  1  0  0.081622  0  3.789548  0  0  0.089966  0  4.040427  0  0  0.087615  0  4.060104  0  0  0.116038  0.091224  0  4.027309  0
C  C32  1  0.29815843  0.09427382  0.42910729  1  0  0.001891  0  3.647338  0  0  0.021927  0  3.888999  0  0  0.018377  0  3.907022  0  0  0.012776  0.023971  0  3.877056  0
C  C33  1  0.70184033  0.90573686  0.57089255  1  0  0.002135  0  3.646967  0  0  0.022218  0  3.888571  0  0  0.01867  0  3.906591  0  0  0.012858  0.024261  0  3.876637  0
C  C34  1  0.32600924  0.68475291  0.99819198  1  0  -0.084579  0  3.608305  0  0  -0.124133  0  3.865474  0  0  -0.12365  0  3.880283  0  0  -0.04989  -0.124455  0  3.855837  0
C  C35  1  0.67399627  0.31524194  0.00180807  1  0  -0.084493  0  3.608219  0  0  -0.124024  0  3.865326  0  0  -0.123541  0  3.880141  0  0  -0.04982  -0.124346  0  3.855685  0
C  C36  1  0.34401712  0.22931414  0.56389857  1  0  0.097076  0  3.751595  0  0  0.099913  0  4.006997  0  0  0.098585  0  4.024534  0  0  0.12142  0.100546  0  3.995339  0
C  C37  1  0.65598051  0.77068971  0.43610412  1  0  0.097  0  3.751828  0  0  0.099856  0  4.007201  0  0  0.098523  0  4.024743  0  0  0.121471  0.10049  0  3.995552  0
C  C38  1  0.14590516  0.79964890  0.56639582  1  0  0.643871  0  3.802525  0  0  0.587976  0  4.098652  0  0  0.621193  0  4.09039  0  0  0.245963  0.565438  0  4.103805  0
C  C39  1  0.85409572  0.20035868  0.43361071  1  0  0.644258  0  3.801476  0  0  0.588163  0  4.097878  0  0  0.621374  0  4.089638  0  0  0.246205  0.565611  0  4.103042  0
C  C40  1  0.33536191  0.66398676  0.14266120  1  0  0.659407  0  3.89279  0  0  0.606705  0  4.193947  0  0  0.64059  0  4.184829  0  0  0.235571  0.583728  0  4.199357  0
C  C41  1  0.66462854  0.33601453  0.85733929  1  0  0.65958  0  3.89286  0  0  0.606848  0  4.193993  0  0  0.640735  0  4.184868  0  0  0.235637  0.58387  0  4.199407  0
C  C42  1  0.19355186  0.34285889  0.96672535  1  0  0.098317  0  3.764078  0  0  0.105921  0  4.012781  0  0  0.105802  0  4.030862  0  0  0.121231  0.105627  0  4.000703  0
C  C43  1  0.80645656  0.65713989  0.03327569  1  0  0.09831  0  3.764072  0  0  0.105881  0  4.012876  0  0  0.105753  0  4.030972  0  0  0.121234  0.105587  0  4.000797  0
C  C44  1  0.38898674  0.38380337  0.62802332  1  0  0.64694  0  3.793186  0  0  0.597341  0  4.086187  0  0  0.630894  0  4.075452  0  0  0.252242  0.574413  0  4.093296  0
C  C45  1  0.61101248  0.61620037  0.37198114  1  0  0.646816  0  3.792966  0  0  0.597165  0  4.086044  0  0  0.63071  0  4.075316  0  0  0.252115  0.574234  0  4.093155  0
C  C46  1  0.14554622  0.14705984  0.94997088  1  0  0.650742  0  3.919345  0  0  0.60036  0  4.214722  0  0  0.634233  0  4.205641  0  0  0.230176  0.577414  0  4.220064  0
C  C47  1  0.85446137  0.85293946  0.05002275  1  0  0.650763  0  3.919219  0  0  0.600313  0  4.214763  0  0  0.634181  0  4.205685  0  0  0.230197  0.577369  0  4.220103  0
C  C48  1  0.30263332  0.58425275  0.05690706  1  0  0.096063  0  3.708707  0  0  0.102631  0  3.962758  0  0  0.1015  0  3.981888  0  0  0.122247  0.103061  0  3.949986  0
C  C49  1  0.69736784  0.41573952  0.94309146  1  0  0.095862  0  3.708923  0  0  0.102525  0  3.962803  0  0  0.101395  0  3.981926  0  0  0.12219  0.102953  0  3.950034  0
C  C50  1  0.36293056  0.23660267  0.48623879  1  0  -0.086462  0  3.610401  0  0  -0.127305  0  3.866837  0  0  -0.126523  0  3.882452  0  0  -0.064042  -0.127775  0  3.856664  0
C  C51  1  0.63707096  0.76340404  0.51376143  1  0  -0.08665  0  3.610467  0  0  -0.127428  0  3.866941  0  0  -0.12663  0  3.882543  0  0  -0.064115  -0.127926  0  3.856742  0
C  C52  1  0.25853944  0.71584605  0.85315240  1  0  0.690838  0  3.88462  0  0  0.639147  0  4.177565  0  0  0.674162  0  4.166469  0  0  0.238815  0.615313  0  4.184348  0
C  C53  1  0.74144801  0.28415403  0.14684616  1  0  0.690735  0  3.884805  0  0  0.639195  0  4.177514  0  0  0.674212  0  4.166411  0  0  0.238773  0.615364  0  4.184295  0
C  C54  1  0.29047141  0.10202366  0.34249219  1  0  0.65738  0  3.906153  0  0  0.607496  0  4.202122  0  0  0.641466  0  4.19354  0  0  0.226621  0.584441  0  4.20718  0
C  C55  1  0.70954131  0.89798173  0.65750954  1  0  0.657346  0  3.906428  0  0  0.607485  0  4.202332  0  0  0.641452  0  4.193748  0  0  0.226562  0.584428  0  4.207394  0
N  N56  1  0.27785319  0.08643343  0.58700957  1  0  -0.353359  0  3.202539  0  0  -0.320856  0  3.458834  0  0  -0.329066  0  3.477076  0  0  -0.327078  -0.31495  0  3.446531  0
N  N57  1  0.72213594  0.91357447  0.41299080  1  0  -0.353342  0  3.202476  0  0  -0.320821  0  3.458758  0  0  -0.329029  0  3.477  0  0  -0.327068  -0.314916  0  3.446454  0
N  N58  1  0.24348717  0.41459648  0.04122885  1  0  -0.374778  0  3.194975  0  0  -0.335081  0  3.450024  0  0  -0.34549  0  3.469224  0  0  -0.339458  -0.327595  0  3.437012  0
N  N59  1  0.75651837  0.58539702  0.95877166  1  0  -0.374754  0  3.195037  0  0  -0.33506  0  3.450048  0  0  -0.345464  0  3.469249  0  0  -0.339494  -0.327571  0  3.437036  0
O  O60  1  0.10231842  0.43646130  0.37896087  1  0  -0.803444  0  1.899081  0  0  -0.755713  0  2.081899  0  0  -0.775198  0  2.055518  0  0  -0.572619  -0.741963  0  2.100204  0
O  O61  1  0.89768906  0.56353987  0.62104374  1  0  -0.803532  0  1.899139  0  0  -0.755825  0  2.08183  0  0  -0.775304  0  2.055447  0  0  -0.572633  -0.742069  0  2.100147  0
O  O62  1  0.04955002  0.67551804  0.51714876  1  0  -0.537443  0  2.124502  0  0  -0.479436  0  2.34362  0  0  -0.504358  0  2.334296  0  0  -0.314676  -0.462186  0  2.34959  0
O  O63  1  0.95044518  0.32447312  0.48284601  1  0  -0.537346  0  2.124635  0  0  -0.479251  0  2.343872  0  0  -0.504169  0  2.334554  0  0  -0.314565  -0.462003  0  2.349853  0
O  O64  1  0.42122024  0.18249320  0.31885051  1  0  -0.689473  0  1.995977  0  0  -0.63125  0  2.23007  0  0  -0.658068  0  2.220149  0  0  -0.323669  -0.612175  0  2.236124  0
O  O65  1  0.57878538  0.81751358  0.68114932  1  0  -0.689549  0  1.996024  0  0  -0.63133  0  2.230024  0  0  -0.658171  0  2.220149  0  0  -0.3237  -0.612256  0  2.236082  0
O  O66  1  0.06559834  0.08729164  0.88107409  1  0  -0.747298  0  1.988758  0  0  -0.679813  0  2.237428  0  0  -0.707688  0  2.228529  0  0  -0.4042  -0.660033  0  2.242934  0
O  O67  1  0.93439098  0.91270948  0.11892862  1  0  -0.747407  0  1.988391  0  0  -0.679892  0  2.237099  0  0  -0.707767  0  2.228199  0  0  -0.404286  -0.660113  0  2.242607  0
O  O68  1  0.19185094  0.05750485  0.00388910  1  0  -0.645508  0  2.001658  0  0  -0.591601  0  2.246609  0  0  -0.617067  0  2.237806  0  0  -0.358573  -0.57365  0  2.252086  0
O  O69  1  0.80818339  0.94248506  0.99611006  1  0  -0.645383  0  2.001864  0  0  -0.59141  0  2.24677  0  0  -0.616909  0  2.238055  0  0  -0.358528  -0.573464  0  2.252248  0
O  O70  1  0.39534207  0.81593123  0.85065604  1  0  -0.704551  0  1.968696  0  0  -0.639391  0  2.214701  0  0  -0.666795  0  2.203926  0  0  -0.378082  -0.619944  0  2.221508  0
O  O71  1  0.60465051  0.18406115  0.14933986  1  0  -0.704506  0  1.968714  0  0  -0.639379  0  2.214591  0  0  -0.666791  0  2.203832  0  0  -0.378048  -0.619934  0  2.221398  0
O  O72  1  0.11273268  0.69493808  0.80182893  1  0  -0.720462  0  1.957251  0  0  -0.655289  0  2.191307  0  0  -0.681577  0  2.179929  0  0  -0.345517  -0.636536  0  2.198414  0
O  O73  1  0.88725474  0.30506068  0.19816953  1  0  -0.720444  0  1.95726  0  0  -0.65533  0  2.191253  0  0  -0.681623  0  2.179882  0  0  -0.34551  -0.636576  0  2.19836  0
O  O74  1  0.16825473  0.80129303  0.63788279  1  0  -0.608153  0  2.114931  0  0  -0.556856  0  2.362707  0  0  -0.579009  0  2.353445  0  0  -0.331843  -0.541529  0  2.368676  0
O  O75  1  0.83174926  0.19870410  0.36210369  1  0  -0.608597  0  2.113809  0  0  -0.557206  0  2.361634  0  0  -0.579368  0  2.352382  0  0  -0.332121  -0.54188  0  2.367625  0
O  O76  1  0.15199125  0.02769852  0.29798731  1  0  -0.65764  0  1.955079  0  0  -0.602657  0  2.194856  0  0  -0.628899  0  2.187231  0  0  -0.327892  -0.584031  0  2.199507  0
O  O77  1  0.84801843  0.97229102  0.70201364  1  0  -0.657621  0  1.955545  0  0  -0.602605  0  2.195239  0  0  -0.628844  0  2.187615  0  0  -0.327804  -0.583981  0  2.199893  0
O  O78  1  0.36713937  0.37616012  0.69559874  1  0  -0.548703  0  1.974011  0  0  -0.506152  0  2.199536  0  0  -0.526332  0  2.190474  0  0  -0.287252  -0.492353  0  2.205632  0
O  O79  1  0.63287969  0.62383235  0.30439941  1  0  -0.548644  0  1.973532  0  0  -0.506056  0  2.199047  0  0  -0.526242  0  2.189996  0  0  -0.287209  -0.492253  0  2.205139  0
O  O80  1  0.28098994  0.57058043  0.18947532  1  0  -0.663297  0  1.985661  0  0  -0.60633  0  2.216229  0  0  -0.631167  0  2.204857  0  0  -0.318151  -0.588789  0  2.223505  0
O  O81  1  0.71899779  0.42943013  0.81052463  1  0  -0.66337  0  1.985647  0  0  -0.60638  0  2.216213  0  0  -0.631224  0  2.204846  0  0  -0.318135  -0.588839  0  2.223489  0
O  O82  1  0.44902134  0.52313750  0.60189448  1  0  -0.544978  0  2.169538  0  0  -0.486597  0  2.390486  0  0  -0.510779  0  2.375651  0  0  -0.313613  -0.469714  0  2.400314  0
O  O83  1  0.55098618  0.47687164  0.39810960  1  0  -0.544923  0  2.169533  0  0  -0.486491  0  2.390574  0  0  -0.510646  0  2.375727  0  0  -0.313539  -0.469599  0  2.400398  0
O  O84  1  0.98485003  0.35131962  0.72649332  1  0  -0.859853  0  1.869097  0  0  -0.803467  0  2.05105  0  0  -0.825074  0  2.021579  0  0  -0.589592  -0.788025  0  2.070303  0
O  O85  1  0.01513596  0.64867650  0.27350487  1  0  -0.85999  0  1.868856  0  0  -0.803544  0  2.050797  0  0  -0.82515  0  2.021382  0  0  -0.589608  -0.788103  0  2.070043  0
O  O86  1  0.41042871  0.81775585  0.16060834  1  0  -0.733928  0  1.942889  0  0  -0.670504  0  2.190796  0  0  -0.697195  0  2.180746  0  0  -0.375659  -0.651579  0  2.197141  0
O  O87  1  0.58954753  0.18225089  0.83938798  1  0  -0.733964  0  1.942873  0  0  -0.670541  0  2.19078  0  0  -0.69723  0  2.180727  0  0  -0.375703  -0.651616  0  2.197126  0
