# generated using pymatgen
data_AgH6C3N3O2
_symmetry_space_group_name_H-M   'P 1'
_cell_length_a   6.33793285
_cell_length_b   6.77622470
_cell_length_c   12.84450654
_cell_angle_alpha   89.99990466
_cell_angle_beta   89.99982305
_cell_angle_gamma   89.99966362
_symmetry_Int_Tables_number   1
_chemical_formula_structural   AgH6C3N3O2
_chemical_formula_sum   'Ag4 H24 C12 N12 O8'
_cell_volume   551.63632428
_cell_formula_units_Z   4
loop_
 _symmetry_equiv_pos_site_id
 _symmetry_equiv_pos_as_xyz
  1  'x, y, z'
loop_
 _atom_site_type_symbol
 _atom_site_label
 _atom_site_symmetry_multiplicity
 _atom_site_fract_x
 _atom_site_fract_y
 _atom_site_fract_z
 _atom_site_occupancy
 _atom_site_pbe_bader_spin_density
 _atom_site_pbe_cm5_charge
 _atom_site_pbe_ddec_charge
 _atom_site_pbe_ddec_spin_density
 _atom_site_pbe_ddec_sum_bond_order
 _atom_site_pbe_magmom
Ag  Ag0  1  0.50000015  0.34859273  0.75000417  1  0  0.38205  0.299537  0  1.776416  0
Ag  Ag1  1  0.49999608  0.65140522  0.24999183  1  0  0.382008  0.29941  0  1.776476  0
Ag  Ag2  1  0.00000936  0.99999702  0.50000010  1  0  0.439383  0.386111  0  1.603091  0
Ag  Ag3  1  0.00001882  0.00000134  0.00000027  1  0  0.439379  0.386108  0  1.603097  0
H  H4  1  0.66973417  0.79737920  0.65539220  1  0  0.116864  0.080491  0  1.012399  0
H  H5  1  0.33026009  0.79735915  0.84460797  1  0  0.116855  0.080431  0  1.012239  0
H  H6  1  0.66973867  0.20262670  0.34460745  1  0  0.116869  0.080488  0  1.012282  0
H  H7  1  0.33027372  0.20262792  0.15539295  1  0  0.116842  0.080441  0  1.012286  0
H  H8  1  0.33026679  0.20262909  0.34461237  1  0  0.116828  0.080454  0  1.012329  0
H  H9  1  0.66974403  0.20262848  0.15539037  1  0  0.11684  0.080442  0  1.012272  0
H  H10  1  0.33025755  0.79735945  0.65539089  1  0  0.116873  0.080488  0  1.012314  0
H  H11  1  0.66973197  0.79738037  0.84461161  1  0  0.116836  0.080437  0  1.01229  0
H  H12  1  0.80936412  0.60938192  0.58717546  1  0  0.119437  0.093419  0  0.993015  0
H  H13  1  0.19061557  0.60936978  0.91282019  1  0  0.119424  0.093364  0  0.993087  0
H  H14  1  0.80937012  0.39061880  0.41282164  1  0  0.119426  0.093389  0  0.993081  0
H  H15  1  0.19063475  0.39062394  0.08718171  1  0  0.119443  0.093412  0  0.993079  0
H  H16  1  0.19062264  0.39062194  0.41282054  1  0  0.119423  0.093367  0  0.993149  0
H  H17  1  0.80938223  0.39062375  0.08717815  1  0  0.119431  0.09338  0  0.993094  0
H  H18  1  0.19061348  0.60937473  0.58718136  1  0  0.119449  0.093404  0  0.993143  0
H  H19  1  0.80936305  0.60937845  0.91282674  1  0  0.119404  0.093396  0  0.993042  0
H  H20  1  0.99998151  0.36166936  0.81992396  1  0  0.121239  0.099986  0  0.990445  0
H  H21  1  0.99998197  0.36167106  0.68007663  1  0  0.12127  0.100009  0  0.990502  0
H  H22  1  0.00000367  0.63833008  0.18007671  1  0  0.121257  0.099896  0  0.990479  0
H  H23  1  0.00000006  0.63832985  0.31992405  1  0  0.121274  0.100006  0  0.990376  0
H  H24  1  0.14208788  0.04791447  0.75000066  1  0  0.115771  0.085758  0  1.014238  0
H  H25  1  0.85791592  0.04791845  0.75000170  1  0  0.115821  0.085891  0  1.01435  0
H  H26  1  0.14209451  0.95208394  0.25000131  1  0  0.115793  0.08581  0  1.014328  0
H  H27  1  0.85791623  0.95208201  0.25000001  1  0  0.11579  0.085806  0  1.014259  0
C  C28  1  0.80987638  0.70267417  0.65682699  1  0  0.01289  -0.007749  0  3.865434  0
C  C29  1  0.19009956  0.70265340  0.84317637  1  0  0.012933  -0.00754  0  3.865127  0
C  C30  1  0.80989133  0.29733836  0.34317479  1  0  0.012957  -0.007625  0  3.865372  0
C  C31  1  0.19011415  0.29733589  0.15682787  1  0  0.012948  -0.007662  0  3.865334  0
C  C32  1  0.19010880  0.29734002  0.34317835  1  0  0.012932  -0.007626  0  3.865263  0
C  C33  1  0.80989982  0.29733423  0.15682820  1  0  0.012957  -0.007622  0  3.865287  0
C  C34  1  0.19010332  0.70265222  0.65682355  1  0  0.01289  -0.007735  0  3.865356  0
C  C35  1  0.80988050  0.70267535  0.84317436  1  0  0.01296  -0.007597  0  3.86525  0
C  C36  1  0.99997828  0.45430070  0.74999909  1  0  0.013858  -0.006815  0  3.842307  0
C  C37  1  0.00000216  0.54569874  0.25000314  1  0  0.013882  -0.006592  0  3.841982  0
C  C38  1  0.99999088  0.95519318  0.75000043  1  0  0.015191  -0.000981  0  3.806309  0
C  C39  1  0.00000377  0.04480921  0.25000102  1  0  0.01523  -0.000939  0  3.806377  0
N  N40  1  0.80771173  0.57739926  0.75000073  1  0  -0.350985  -0.150783  0  3.468533  0
N  N41  1  0.19227132  0.57739500  0.74999962  1  0  -0.351099  -0.15092  0  3.468041  0
N  N42  1  0.80772333  0.42260443  0.25000027  1  0  -0.351117  -0.151001  0  3.468416  0
N  N43  1  0.19228450  0.42260165  0.25000150  1  0  -0.35106  -0.150933  0  3.468363  0
N  N44  1  0.00000150  0.83149292  0.65436655  1  0  -0.351405  -0.138948  0  3.432344  0
N  N45  1  0.00000245  0.83149113  0.84563275  1  0  -0.351383  -0.138985  0  3.43238  0
N  N46  1  0.00000148  0.16850477  0.34563251  1  0  -0.351441  -0.139053  0  3.432551  0
N  N47  1  0.00000684  0.16850804  0.15436787  1  0  -0.351423  -0.138884  0  3.432474  0
N  N48  1  0.50001079  0.20405833  0.53323140  1  0  -0.066865  0.194589  0  3.561172  0
N  N49  1  0.50000306  0.20405467  0.96678095  1  0  -0.066795  0.194577  0  3.560276  0
N  N50  1  0.50000279  0.79593963  0.46674825  1  0  -0.067015  0.194349  0  3.563192  0
N  N51  1  0.50000106  0.79594328  0.03322050  1  0  -0.066888  0.194506  0  3.560604  0
O  O52  1  0.33115738  0.22891915  0.58501785  1  0  -0.195659  -0.380931  0  2.302684  0
O  O53  1  0.66886420  0.22892951  0.91498902  1  0  -0.195727  -0.380945  0  2.302359  0
O  O54  1  0.33117197  0.77109300  0.41498384  1  0  -0.195575  -0.38074  0  2.303742  0
O  O55  1  0.66886360  0.77106901  0.08500907  1  0  -0.19571  -0.380937  0  2.302392  0
O  O56  1  0.66884043  0.77107734  0.41498749  1  0  -0.195609  -0.380774  0  2.303576  0
O  O57  1  0.33114465  0.77106845  0.08500853  1  0  -0.195666  -0.380874  0  2.302517  0
O  O58  1  0.66886370  0.22893300  0.58501216  1  0  -0.195742  -0.380996  0  2.302879  0
O  O59  1  0.33114052  0.22893337  0.91499005  1  0  -0.195745  -0.380965  0  2.302272  0
