# generated using pymatgen
data_ZnH16C13NO6
_symmetry_space_group_name_H-M   'P 1'
_cell_length_a   9.93545143
_cell_length_b   11.04174869
_cell_length_c   11.89256397
_cell_angle_alpha   86.74970015
_cell_angle_beta   77.74978540
_cell_angle_gamma   84.48655898
_symmetry_Int_Tables_number   1
_chemical_formula_structural   ZnH16C13NO6
_chemical_formula_sum   'Zn2 H32 C26 N2 O12'
_cell_volume   1268.18094350
_cell_formula_units_Z   2
loop_
 _symmetry_equiv_pos_site_id
 _symmetry_equiv_pos_as_xyz
  1  'x, y, z'
loop_
 _atom_site_type_symbol
 _atom_site_label
 _atom_site_symmetry_multiplicity
 _atom_site_fract_x
 _atom_site_fract_y
 _atom_site_fract_z
 _atom_site_occupancy
 _atom_site_pbe_bader_charge
 _atom_site_pbe_bader_spin_density
 _atom_site_pbe_cm5_charge
 _atom_site_pbe_ddec_charge
 _atom_site_pbe_ddec_spin_density
 _atom_site_pbe_ddec_sum_bond_order
 _atom_site_pbe_magmom
Zn  Zn0  1  0.63990965  0.51282300  0.47525096  1  1.299351  0  0.676942  0.816143  0  2.429419  0
Zn  Zn1  1  0.35033711  0.47880498  0.53681412  1  1.299929  0  0.679427  0.819431  0  2.426642  0
H  H2  1  0.37992139  0.10171328  0.57428764  1  0.11232  0  0.111066  0.125047  0  1.003739  0
H  H3  1  0.59091564  0.08535126  0.07446470  1  0.027482  0  0.088873  0.118553  0  0.995482  0
H  H4  1  0.76920095  0.08489998  0.07563052  1  0.029782  0  0.081982  0.102824  0  1.019436  0
H  H5  1  0.11680773  0.84343188  0.44169545  1  0.051947  0  0.098516  0.065767  0  0.970026  0
H  H6  1  0.28221295  0.86249641  0.35276402  1  0.039291  0  0.098198  0.058714  0  0.984493  0
H  H7  1  0.06040270  0.06496797  0.44808601  1  0.039429  0  0.094851  0.093215  0  0.96808  0
H  H8  1  0.23373702  0.09244570  0.38745583  1  0.026817  0  0.093771  0.090558  0  0.978515  0
H  H9  1  0.21741627  0.01198427  0.19978059  1  0.021109  0  0.085046  0.108575  0  1.006135  0
H  H10  1  0.07854312  0.12498461  0.24081879  1  0.000466  0  0.090655  0.118227  0  1.001753  0
H  H11  1  0.04874395  0.96824439  0.25794875  1  0.021557  0  0.082664  0.102268  0  1.023041  0
H  H12  1  0.82980357  0.77391784  0.32616492  1  0.069783  0  0.105326  0.07892  0  0.962053  0
H  H13  1  0.60006276  0.88396191  0.50509044  1  0.087482  0  0.109976  0.12546  0  1.006301  0
H  H14  1  0.73990127  0.65076453  0.29517007  1  0.091282  0  0.108656  0.090946  0  1.036223  0
H  H15  1  0.02216170  0.71670999  0.15549499  1  0.032224  0  0.093797  0.084316  0  0.975589  0
H  H16  1  0.92829797  0.59681506  0.12875650  1  0.022601  0  0.098291  0.093741  0  0.963279  0
H  H17  1  0.73299324  0.74942525  0.09423924  1  0.029859  0  0.090388  0.119428  0  0.995042  0
H  H18  1  0.89086726  0.77894784  0.99921066  1  0.049796  0  0.093359  0.122478  0  0.992069  0
H  H19  1  0.82699992  0.87029194  0.12019372  1  0.022734  0  0.084849  0.107622  0  1.033625  0
H  H20  1  0.16104591  0.40082893  0.79470825  1  0.069342  0  0.107314  0.085368  0  0.965354  0
H  H21  1  0.26255829  0.29665670  0.69363375  1  0.119915  0  0.108668  0.092117  0  1.027591  0
H  H22  1  0.98251209  0.24780125  0.84951517  1  0.067465  0  0.095756  0.088422  0  0.969027  0
H  H23  1  0.08479567  0.14706956  0.74800324  1  0.040848  0  0.09804  0.093427  0  0.966622  0
H  H24  1  0.86196708  0.44291243  0.58855822  1  0.182811  0  0.142637  0.131959  0  0.990208  0
H  H25  1  0.27865118  0.13610649  0.85672112  1  0.064581  0  0.090096  0.11802  0  0.995987  0
H  H26  1  0.12419732  0.09136550  0.94763342  1  0.034641  0  0.089291  0.116721  0  1.00186  0
H  H27  1  0.17824222  0.23825481  0.95829789  1  0.03083  0  0.088519  0.112378  0  1.002771  0
H  H28  1  0.12261687  0.56025981  0.43813448  1  0.164785  0  0.140395  0.124153  0  0.993602  0
H  H29  1  0.84203419  0.07557830  0.27799721  1  0.031333  0  0.099994  0.065973  0  1.011124  0
H  H30  1  0.74164421  0.21819898  0.30084308  1  0.034732  0  0.097024  0.071817  0  0.996871  0
H  H31  1  0.63499507  0.97623824  0.25551503  1  -0.018264  0  0.086082  0.076214  0  0.997976  0
H  H32  1  0.52918983  0.11262561  0.28798738  1  0.003978  0  0.089116  0.084756  0  0.989148  0
H  H33  1  0.65641813  0.21837466  0.11101705  1  0.012037  0  0.083893  0.111242  0  1.017999  0
C  C34  1  0.42419281  0.72502254  0.50043965  1  1.551471  0  0.208099  0.544104  0  4.207981  0
C  C35  1  0.58342903  0.13156442  0.49184022  1  0.418458  0  0.073598  0.095833  0  4.007286  0
C  C36  1  0.49638962  0.93006527  0.51702417  1  0.030536  0  -0.093795  -0.142894  0  4.02825  0
C  C37  1  0.47968137  0.05860671  0.53209510  1  0.082114  0  -0.091208  -0.142906  0  4.015687  0
C  C38  1  0.06656864  0.50207314  0.50542975  1  0.597988  0  0.064726  0.023857  0  3.912647  0
C  C39  1  0.92139094  0.49246395  0.51591975  1  0.550921  0  0.06494  0.023401  0  3.900717  0
C  C40  1  0.73792477  0.11868691  0.31062079  1  0.446985  0  -0.071313  0.024523  0  3.868306  0
C  C41  1  0.63408331  0.07615990  0.24692057  1  0.02895  0  -0.174073  -0.14284  0  3.989919  0
C  C42  1  0.66460718  0.11841517  0.12010470  1  -0.052464  0  -0.243261  -0.350433  0  3.98016  0
C  C43  1  0.20191525  0.90328097  0.42219372  1  0.402561  0  -0.064366  0.045547  0  3.869693  0
C  C44  1  0.15292596  0.03148684  0.38545096  1  -0.010059  0  -0.167646  -0.136961  0  3.973737  0
C  C45  1  0.56260047  0.26570782  0.50747792  1  1.574342  0  0.208232  0.542901  0  4.204583  0
C  C46  1  0.12258978  0.03445323  0.26445794  1  -0.043205  0  -0.241302  -0.35073  0  3.986876  0
C  C47  1  0.84194512  0.68452469  0.28667861  1  0.340751  0  -0.066166  -0.009912  0  3.852855  0
C  C48  1  0.91717748  0.68914309  0.16170717  1  0.019969  0  -0.163049  -0.125161  0  3.991609  0
C  C49  1  0.83748423  0.77691230  0.08999742  1  -0.066012  0  -0.23786  -0.34852  0  3.957485  0
C  C50  1  0.15731973  0.32479636  0.73985777  1  0.321633  0  -0.068613  -0.015701  0  3.848361  0
C  C51  1  0.08961900  0.21851931  0.80762472  1  -0.039067  0  -0.163878  -0.126212  0  3.983018  0
C  C52  1  0.17228893  0.16837405  0.89763286  1  -0.103207  0  -0.237876  -0.348533  0  3.963226  0
C  C53  1  0.48588995  0.47975817  0.28811225  1  1.680395  0  0.218633  0.656123  0  4.260594  0
C  C54  1  0.50316906  0.50453614  0.72263754  1  1.701407  0  0.219308  0.655138  0  4.253057  0
C  C55  1  0.48465886  0.47901321  0.16693003  1  0.285846  0  -0.01933  -0.154719  0  3.880847  0
C  C56  1  0.50215642  0.49782094  0.84453020  1  0.107905  0  -0.015572  -0.14099  0  3.869262  0
C  C57  1  0.49013457  0.48383087  0.06301084  1  -0.379856  0  -0.021164  0.015009  0  4.272487  0
C  C58  1  0.49618082  0.49043367  0.94850039  1  -0.285611  0  -0.022368  0.007751  0  4.272248  0
C  C59  1  0.39283803  0.85958097  0.51319937  1  0.48765  0  0.072283  0.09012  0  4.025493  0
N  N60  1  0.14136174  0.44702514  0.57353771  1  -0.595435  0  -0.200972  -0.057372  0  3.405829  0
N  N61  1  0.84926459  0.54427307  0.44423055  1  -0.595704  0  -0.200144  -0.057351  0  3.391626  0
O  O62  1  0.55060568  0.68422661  0.49109718  1  -1.175812  0  -0.321901  -0.552192  0  2.407251  0
O  O63  1  0.25879436  0.90735339  0.52484254  1  -1.067571  0  -0.203336  -0.212765  0  2.514099  0
O  O64  1  0.92546492  0.60122834  0.34951530  1  -0.648841  0  -0.073373  -0.081  0  2.43629  0
O  O65  1  0.07451327  0.36846329  0.65515285  1  -0.629871  0  -0.069668  -0.073103  0  2.415269  0
O  O66  1  0.44094851  0.30884710  0.55476705  1  -1.181655  0  -0.322157  -0.557135  0  2.422223  0
O  O67  1  0.32335096  0.66142030  0.50150603  1  -1.157524  0  -0.314957  -0.531356  0  2.345377  0
O  O68  1  0.66579557  0.32772488  0.47120785  1  -1.157934  0  -0.311072  -0.520907  0  2.350766  0
O  O69  1  0.59794338  0.50912335  0.31089146  1  -1.144752  0  -0.305987  -0.535035  0  2.292661  0
O  O70  1  0.38476802  0.51790497  0.69633524  1  -1.140844  0  -0.305267  -0.534101  0  2.280984  0
O  O71  1  0.37751924  0.45214986  0.35919280  1  -1.144618  0  -0.308475  -0.537622  0  2.25417  0
O  O72  1  0.62069183  0.49595343  0.65438968  1  -1.154868  0  -0.304629  -0.532862  0  2.27058  0
O  O73  1  0.70929355  0.08376975  0.43272549  1  -1.069251  0  -0.208502  -0.219791  0  2.501468  0
