# generated using pymatgen
data_ZnH36Pt2Au2C20S4(NO2)4
_symmetry_space_group_name_H-M   'P 1'
_cell_length_a   12.45189053
_cell_length_b   12.45189060
_cell_length_c   24.68600880
_cell_angle_alpha   90.00000409
_cell_angle_beta   89.99999913
_cell_angle_gamma   120.00001581
_symmetry_Int_Tables_number   1
_chemical_formula_structural   ZnH36Pt2Au2C20S4(NO2)4
_chemical_formula_sum   'Zn3 H108 Pt6 Au6 C60 S12 N12 O24'
_cell_volume   3314.75956636
_cell_formula_units_Z   3
loop_
 _symmetry_equiv_pos_site_id
 _symmetry_equiv_pos_as_xyz
  1  'x, y, z'
loop_
 _atom_site_type_symbol
 _atom_site_label
 _atom_site_symmetry_multiplicity
 _atom_site_fract_x
 _atom_site_fract_y
 _atom_site_fract_z
 _atom_site_occupancy
 _atom_site_pbe_bader_charge
 _atom_site_pbe_bader_spin_density
 _atom_site_pbe_cm5_charge
 _atom_site_pbe_ddec_charge
 _atom_site_pbe_ddec_spin_density
 _atom_site_pbe_ddec_sum_bond_order
 _atom_site_pbe_magmom
Zn  Zn0  1  0.00000001  0.00000003  0.33333375  1  1.330683  0  0.678383  0.962555  0  2.237455  0
Zn  Zn1  1  0.00000002  0.00000006  0.66666751  1  1.326614  0  0.67834  0.962534  0  2.237477  0
Zn  Zn2  1  0.00000000  0.00000000  0.00000203  1  1.330702  0  0.678357  0.962536  0  2.237462  0
H  H3  1  0.65537662  0.72658255  0.23344682  1  0.428986  0  0.306084  0.288745  0  0.900241  0
H  H4  1  0.34462278  0.27341688  0.23344681  1  0.428983  0  0.306078  0.288762  0  0.900233  0
H  H5  1  0.27341759  0.92879377  0.56677977  1  0.436439  0  0.306071  0.288737  0  0.9003  0
H  H6  1  0.07120293  0.34462328  0.90011189  1  0.430285  0  0.306089  0.288787  0  0.900177  0
H  H7  1  0.92879731  0.65537706  0.90011190  1  0.430284  0  0.306097  0.288797  0  0.900161  0
H  H8  1  0.72658264  0.07120651  0.56677975  1  0.436436  0  0.30608  0.288744  0  0.900282  0
H  H9  1  0.92879338  0.27342283  0.76655689  1  0.436395  0  0.306085  0.288759  0  0.900126  0
H  H10  1  0.34462631  0.07120789  0.43322354  1  0.430318  0  0.306089  0.288718  0  0.900182  0
H  H11  1  0.72658013  0.65537421  0.09989019  1  0.428919  0  0.306081  0.288739  0  0.900133  0
H  H12  1  0.27342007  0.34462599  0.09989019  1  0.428918  0  0.306078  0.288737  0  0.900139  0
H  H13  1  0.65537391  0.92879238  0.43322355  1  0.430319  0  0.306092  0.28873  0  0.900167  0
H  H14  1  0.07120605  0.72657669  0.76655730  1  0.436399  0  0.306074  0.288749  0  0.900151  0
H  H15  1  0.68403586  0.71523958  0.29648901  1  0.465107  0  0.306986  0.299367  0  0.908711  0
H  H16  1  0.31596436  0.28476066  0.29648900  1  0.465104  0  0.307036  0.299504  0  0.908629  0
H  H17  1  0.28475964  0.96879495  0.62982236  1  0.468685  0  0.307005  0.299442  0  0.908655  0
H  H18  1  0.03120397  0.31596278  0.96315449  1  0.466804  0  0.30699  0.299375  0  0.908732  0
H  H19  1  0.96879547  0.68403677  0.96315449  1  0.466519  0  0.306993  0.299381  0  0.908717  0
H  H20  1  0.71524059  0.03120535  0.62982234  1  0.468684  0  0.306971  0.299356  0  0.90877  0
H  H21  1  0.96879103  0.28475394  0.70351429  1  0.468714  0  0.307013  0.299424  0  0.908681  0
H  H22  1  0.31596753  0.03120879  0.37018094  1  0.466602  0  0.307032  0.299442  0  0.908677  0
H  H23  1  0.71524509  0.68403674  0.03684760  1  0.465168  0  0.307033  0.299429  0  0.908723  0
H  H24  1  0.28475511  0.31596346  0.03684760  1  0.465166  0  0.307032  0.299428  0  0.908723  0
H  H25  1  0.68403269  0.96879146  0.37018136  1  0.46661  0  0.307026  0.299455  0  0.90865  0
H  H26  1  0.03120920  0.71524637  0.70351430  1  0.468715  0  0.307015  0.299433  0  0.908674  0
H  H27  1  0.77893187  0.65303578  0.20128366  1  0.033724  0  0.10477  0.08136  0  0.979357  0
H  H28  1  0.22106833  0.34696444  0.20128366  1  0.033724  0  0.104769  0.081367  0  0.979356  0
H  H29  1  0.34696192  0.12589496  0.53461700  1  0.032603  0  0.104761  0.081337  0  0.979383  0
H  H30  1  0.87410078  0.22106340  0.86795076  1  0.032871  0  0.10477  0.081351  0  0.979362  0
H  H31  1  0.12589946  0.77893694  0.86795077  1  0.03287  0  0.104767  0.081332  0  0.979375  0
H  H32  1  0.65303877  0.87410486  0.53461701  1  0.032605  0  0.104782  0.081344  0  0.979377  0
H  H33  1  0.12589414  0.34696117  0.79871762  1  0.032584  0  0.104779  0.081376  0  0.979301  0
H  H34  1  0.22106343  0.87410552  0.46538509  1  0.032798  0  0.104807  0.081414  0  0.979332  0
H  H35  1  0.65303945  0.77893462  0.13205092  1  0.033681  0  0.10478  0.08136  0  0.979324  0
H  H36  1  0.34695995  0.22106479  0.13205092  1  0.03368  0  0.104781  0.081377  0  0.979291  0
H  H37  1  0.77893599  0.12589395  0.46538507  1  0.032805  0  0.104766  0.08134  0  0.979314  0
H  H38  1  0.87410530  0.65303835  0.79871762  1  0.032584  0  0.104779  0.081367  0  0.97931  0
H  H39  1  0.86695640  0.51912906  0.20389647  1  0.022384  0  0.081071  0.125509  0  1.012777  0
H  H40  1  0.13304300  0.48087037  0.20389648  1  0.022385  0  0.081074  0.125514  0  1.012765  0
H  H41  1  0.48087076  0.34782776  0.53722982  1  0.022535  0  0.081096  0.125556  0  1.012748  0
H  H42  1  0.65216810  0.13303986  0.87056479  1  0.02308  0  0.081099  0.125563  0  1.012808  0
H  H43  1  0.34783181  0.86695921  0.87056480  1  0.023025  0  0.081097  0.125552  0  1.012807  0
H  H44  1  0.51912993  0.65217206  0.53722983  1  0.022536  0  0.081096  0.125565  0  1.012729  0
H  H45  1  0.34782579  0.48086793  0.79610480  1  0.022499  0  0.081072  0.125543  0  1.012729  0
H  H46  1  0.13303977  0.65217457  0.46277186  1  0.02297  0  0.08108  0.125529  0  1.012695  0
H  H47  1  0.51913133  0.86696054  0.12943649  1  0.022398  0  0.081085  0.125515  0  1.01279  0
H  H48  1  0.48086854  0.13303840  0.12943648  1  0.022399  0  0.08107  0.125499  0  1.012815  0
H  H49  1  0.86696045  0.34782570  0.46277185  1  0.02297  0  0.081083  0.125535  0  1.012689  0
H  H50  1  0.65217445  0.51913239  0.79610480  1  0.022499  0  0.081073  0.125534  0  1.012733  0
H  H51  1  0.87490761  0.44926435  0.26537057  1  0.035924  0  0.088849  0.131815  0  1.021896  0
H  H52  1  0.12509260  0.55073589  0.26537057  1  0.035925  0  0.088856  0.131808  0  1.021905  0
H  H53  1  0.55073424  0.42564310  0.59870432  1  0.055747  0  0.088859  0.131803  0  1.021939  0
H  H54  1  0.57435616  0.12509292  0.93204010  1  0.035259  0  0.08887  0.131857  0  1.021903  0
H  H55  1  0.42564409  0.87490742  0.93204011  1  0.035257  0  0.08887  0.131843  0  1.021907  0
H  H56  1  0.44926599  0.57435720  0.59870432  1  0.055751  0  0.088848  0.131767  0  1.021963  0
H  H57  1  0.42564214  0.55073521  0.73463071  1  0.055731  0  0.088838  0.131753  0  1.02194  0
H  H58  1  0.12508961  0.57435941  0.40129736  1  0.03541  0  0.088865  0.131781  0  1.021857  0
H  H59  1  0.44926720  0.87490955  0.06796159  1  0.035947  0  0.088874  0.131834  0  1.02191  0
H  H60  1  0.55073300  0.12509065  0.06796157  1  0.035948  0  0.088859  0.131823  0  1.021916  0
H  H61  1  0.87491061  0.42564085  0.40129736  1  0.035407  0  0.088868  0.131774  0  1.021878  0
H  H62  1  0.57435809  0.44926511  0.73463071  1  0.055734  0  0.088865  0.131791  0  1.021953  0
H  H63  1  0.97041729  0.61300693  0.25562942  1  0.09862  0  0.096954  0.149066  0  1.013625  0
H  H64  1  0.02958292  0.38699331  0.25562942  1  0.098616  0  0.096975  0.149092  0  1.013667  0
H  H65  1  0.38699198  0.35740928  0.58896236  1  0.096013  0  0.09699  0.149109  0  1.013636  0
H  H66  1  0.64258966  0.02958323  0.92229854  1  0.097639  0  0.096996  0.149175  0  1.013574  0
H  H67  1  0.35741105  0.97041665  0.92229856  1  0.097639  0  0.097002  0.149156  0  1.013589  0
H  H68  1  0.61300825  0.64259101  0.58896237  1  0.096011  0  0.09699  0.149112  0  1.013628  0
H  H69  1  0.35741052  0.38699237  0.74437104  1  0.096012  0  0.096988  0.149126  0  1.013627  0
H  H70  1  0.02958119  0.64259325  0.41103811  1  0.097564  0  0.096965  0.149074  0  1.013657  0
H  H71  1  0.61300944  0.97041797  0.07770273  1  0.098603  0  0.096989  0.149105  0  1.013694  0
H  H72  1  0.38699076  0.02958224  0.07770272  1  0.098598  0  0.096988  0.149108  0  1.013709  0
H  H73  1  0.97041903  0.35740701  0.41103810  1  0.097563  0  0.096964  0.149073  0  1.013664  0
H  H74  1  0.64258972  0.61300795  0.74437105  1  0.096011  0  0.096991  0.149127  0  1.013628  0
H  H75  1  0.78464294  0.48484013  0.35253087  1  0.01399  0  0.085019  0.126906  0  1.037048  0
H  H76  1  0.21535647  0.51515931  0.35253087  1  0.013989  0  0.084985  0.126868  0  1.037008  0
H  H77  1  0.51515866  0.29980220  0.68586462  1  0.049512  0  0.085009  0.126883  0  1.037082  0
H  H78  1  0.70020155  0.21536406  0.01919792  1  0.015438  0  0.084985  0.126856  0  1.037071  0
H  H79  1  0.29979818  0.78463660  0.01919793  1  0.01543  0  0.084994  0.126861  0  1.037082  0
H  H80  1  0.48484204  0.70019764  0.68586463  1  0.049522  0  0.085001  0.126896  0  1.037085  0
H  H81  1  0.29980055  0.51515708  0.64746960  1  0.049678  0  0.085016  0.12692  0  1.036984  0
H  H82  1  0.21535900  0.70020022  0.31413747  1  0.015809  0  0.08501  0.126905  0  1.036998  0
H  H83  1  0.48484017  0.78463655  0.98080295  1  0.014121  0  0.084998  0.126865  0  1.037023  0
H  H84  1  0.51516008  0.21536381  0.98080294  1  0.014124  0  0.084981  0.126854  0  1.037051  0
H  H85  1  0.78464122  0.29980003  0.31413786  1  0.015811  0  0.08501  0.126908  0  1.036988  0
H  H86  1  0.70019968  0.48484322  0.64746960  1  0.049676  0  0.085012  0.126923  0  1.037018  0
H  H87  1  0.71697646  0.57996912  0.35227688  1  0.035018  0  0.089054  0.131895  0  0.996643  0
H  H88  1  0.28302295  0.42003033  0.35227688  1  0.035029  0  0.089059  0.131884  0  0.996634  0
H  H89  1  0.42002857  0.13700674  0.68561022  1  0.032651  0  0.089064  0.131873  0  0.996667  0
H  H90  1  0.86299791  0.28302754  0.01894231  1  0.031354  0  0.089045  0.131848  0  0.996699  0
H  H91  1  0.13700229  0.71697265  0.01894192  1  0.031382  0  0.089044  0.131861  0  0.996696  0
H  H92  1  0.57997167  0.86299357  0.68561024  1  0.032647  0  0.089061  0.131874  0  0.996674  0
H  H93  1  0.13700589  0.42002780  0.64772480  1  0.032659  0  0.089071  0.131898  0  0.996658  0
H  H94  1  0.28302260  0.86299484  0.31439106  1  0.031403  0  0.089066  0.131895  0  0.996655  0
H  H95  1  0.57997109  0.71697294  0.98105816  1  0.03486  0  0.089049  0.131881  0  0.996644  0
H  H96  1  0.42002835  0.28302661  0.98105855  1  0.034752  0  0.089055  0.131887  0  0.996643  0
H  H97  1  0.71697761  0.13700540  0.31439145  1  0.031432  0  0.089064  0.131883  0  0.99666  0
H  H98  1  0.86299434  0.57997250  0.64772480  1  0.032661  0  0.089069  0.131899  0  0.996656  0
H  H99  1  0.88001442  0.64894899  0.34586880  1  0.106084  0  0.097581  0.148585  0  1.009564  0
H  H100  1  0.11998579  0.35105126  0.34586880  1  0.106088  0  0.097585  0.148584  0  1.009559  0
H  H101  1  0.35105008  0.23106575  0.67920255  1  0.096864  0  0.097578  0.148572  0  1.00955  0
H  H102  1  0.76893576  0.11998971  0.01253706  1  0.09916  0  0.097569  0.148549  0  1.009533  0
H  H103  1  0.23106397  0.88001095  0.01253667  1  0.099156  0  0.097573  0.148555  0  1.009525  0
H  H104  1  0.64895015  0.76893456  0.67920256  1  0.09699  0  0.097578  0.148563  0  1.009567  0
H  H105  1  0.23106491  0.35104932  0.65413207  1  0.097  0  0.097584  0.148565  0  1.009551  0
H  H106  1  0.11998511  0.76893396  0.32079873  1  0.099112  0  0.097581  0.148574  0  1.009533  0
H  H107  1  0.64894750  0.88001116  0.98746381  1  0.106047  0  0.097586  0.148581  0  1.009535  0
H  H108  1  0.35105194  0.11998840  0.98746380  1  0.106046  0  0.09758  0.148571  0  1.009547  0
H  H109  1  0.88001510  0.23106628  0.32079872  1  0.099112  0  0.09759  0.148591  0  1.009537  0
H  H110  1  0.76893532  0.64895099  0.65413208  1  0.096869  0  0.097593  0.148584  0  1.009555  0
Pt  Pt111  1  0.49999970  0.49999972  0.26091258  1  0.367014  0  0.494643  0.114512  0  3.948855  0
Pt  Pt112  1  0.49999989  0.99999926  0.59424634  1  0.367541  0  0.494636  0.114534  0  3.948791  0
Pt  Pt113  1  0.99999924  0.49999995  0.92757846  1  0.360253  0  0.494569  0.114444  0  3.948896  0
Pt  Pt114  1  0.99999923  0.49999994  0.73908789  1  0.367547  0  0.494579  0.114444  0  3.948837  0
Pt  Pt115  1  0.49999989  0.99999924  0.40575739  1  0.360225  0  0.494668  0.114494  0  3.948853  0
Pt  Pt116  1  0.49999970  0.49999970  0.07242200  1  0.366842  0  0.494566  0.114458  0  3.948864  0
Au  Au117  1  0.60959208  0.39040572  0.16666688  1  0.029172  0  0.188639  -0.073529  0  2.69195  0
Au  Au118  1  0.39040732  0.60959369  0.16666689  1  0.029134  0  0.188639  -0.073539  0  2.691924  0
Au  Au119  1  0.60959397  0.21918646  0.50000104  1  0.029825  0  0.188636  -0.073573  0  2.692008  0
Au  Au120  1  0.78081254  0.39040597  0.83333318  1  0.029823  0  0.188637  -0.073556  0  2.691909  0
Au  Au121  1  0.21918770  0.60959436  0.83333318  1  0.029829  0  0.188622  -0.073589  0  2.691923  0
Au  Au122  1  0.39040625  0.78081382  0.50000105  1  0.029826  0  0.18864  -0.073574  0  2.691983  0
C  C123  1  0.77901516  0.55370009  0.27266417  1  -0.011701  0  -0.001376  0.222103  0  3.743462  0
C  C124  1  0.22098505  0.44630015  0.27266417  1  -0.011704  0  -0.001366  0.222105  0  3.743463  0
C  C125  1  0.44629997  0.22531554  0.60599590  1  -0.010337  0  -0.001406  0.222111  0  3.743366  0
C  C126  1  0.77468322  0.22098601  0.93932965  1  -0.012035  0  -0.001384  0.222119  0  3.743369  0
C  C127  1  0.22531622  0.77901354  0.93932926  1  -0.011693  0  -0.001401  0.222076  0  3.74345  0
C  C128  1  0.55370026  0.77468475  0.60599591  1  -0.01034  0  -0.001415  0.222045  0  3.743348  0
C  C129  1  0.22531310  0.44629760  0.72733711  1  -0.010257  0  -0.001405  0.22205  0  3.743393  0
C  C130  1  0.22098349  0.77468728  0.39400417  1  -0.01171  0  -0.001438  0.221943  0  3.7433  0
C  C131  1  0.55370260  0.77901583  0.06067001  1  -0.011638  0  -0.001374  0.22201  0  3.743437  0
C  C132  1  0.44629760  0.22098437  0.06067000  1  -0.011621  0  -0.001361  0.222036  0  3.743529  0
C  C133  1  0.77901672  0.22531298  0.39400456  1  -0.011702  0  -0.001439  0.221986  0  3.743256  0
C  C134  1  0.77468713  0.55370271  0.72733710  1  -0.010275  0  -0.001385  0.222092  0  3.743296  0
C  C135  1  0.77868047  0.66464771  0.24543418  1  0.270719  0  -0.006597  -0.033661  0  3.757684  0
C  C136  1  0.22132020  0.33535206  0.24543417  1  0.27071  0  -0.00659  -0.033651  0  3.757752  0
C  C137  1  0.33535006  0.11403087  0.57876752  1  0.270413  0  -0.006608  -0.033668  0  3.757682  0
C  C138  1  0.88596726  0.22131878  0.91210087  1  0.269223  0  -0.006593  -0.033635  0  3.757715  0
C  C139  1  0.11403299  0.77868156  0.91210088  1  0.269215  0  -0.006565  -0.033574  0  3.757675  0
C  C140  1  0.66465017  0.88596942  0.57876753  1  0.270408  0  -0.006609  -0.033617  0  3.75767  0
C  C141  1  0.11403004  0.33534930  0.75456710  1  0.270368  0  -0.006645  -0.033708  0  3.757681  0
C  C142  1  0.22131800  0.88597119  0.42123457  1  0.269208  0  -0.006623  -0.033707  0  3.757609  0
C  C143  1  0.66465069  0.77868069  0.08790081  1  0.270816  0  -0.006611  -0.033605  0  3.757571  0
C  C144  1  0.33534951  0.22131952  0.08790081  1  0.27081  0  -0.006628  -0.033639  0  3.757619  0
C  C145  1  0.77868014  0.11402793  0.42123415  1  0.269094  0  -0.006597  -0.033589  0  3.75752  0
C  C146  1  0.88596939  0.66465021  0.75456711  1  0.27036  0  -0.00663  -0.033683  0  3.757655  0
C  C147  1  0.87889450  0.53209000  0.24796354  1  -0.068921  0  -0.249212  -0.425132  0  3.890887  0
C  C148  1  0.12110491  0.46790943  0.24796354  1  -0.069153  0  -0.249243  -0.425159  0  3.890946  0
C  C149  1  0.46790856  0.34680493  0.58129648  1  -0.086362  0  -0.24926  -0.425199  0  3.890954  0
C  C150  1  0.65319288  0.12110429  0.91463185  1  -0.068396  0  -0.249308  -0.425385  0  3.891064  0
C  C151  1  0.34680737  0.87889606  0.91463187  1  -0.06893  0  -0.2493  -0.425308  0  3.891039  0
C  C152  1  0.53209167  0.65319536  0.58129649  1  -0.086131  0  -0.249229  -0.425149  0  3.890878  0
C  C153  1  0.34680410  0.46790780  0.75203774  1  -0.086066  0  -0.249208  -0.425132  0  3.890839  0
C  C154  1  0.12110178  0.65319693  0.41870480  1  -0.068714  0  -0.249222  -0.425071  0  3.89072  0
C  C155  1  0.53209239  0.87889690  0.08536942  1  -0.068952  0  -0.249288  -0.425183  0  3.891068  0
C  C156  1  0.46790701  0.12110250  0.08536941  1  -0.069185  0  -0.249257  -0.425162  0  3.891092  0
C  C157  1  0.87889844  0.34680333  0.41870479  1  -0.068949  0  -0.249228  -0.425091  0  3.890755  0
C  C158  1  0.65319533  0.53209171  0.75203774  1  -0.086298  0  -0.249238  -0.425161  0  3.890857  0
C  C159  1  0.79105691  0.56811859  0.33433838  1  -0.092697  0  -0.247564  -0.422122  0  3.864453  0
C  C160  1  0.20894377  0.43188120  0.33433838  1  -0.092707  0  -0.247532  -0.422049  0  3.86434  0
C  C161  1  0.43188009  0.22293797  0.66767172  1  -0.121178  0  -0.247543  -0.422039  0  3.864356  0
C  C162  1  0.77706500  0.20894776  0.00100543  1  -0.088782  0  -0.247501  -0.421966  0  3.864319  0
C  C163  1  0.22293519  0.79105243  0.00100504  1  -0.088782  0  -0.247505  -0.421981  0  3.864357  0
C  C164  1  0.56812014  0.77706233  0.66767173  1  -0.121176  0  -0.247536  -0.422045  0  3.864396  0
C  C165  1  0.22293633  0.43187852  0.66566290  1  -0.121294  0  -0.247555  -0.422086  0  3.864384  0
C  C166  1  0.20894350  0.77706447  0.33232956  1  -0.089035  0  -0.24753  -0.422056  0  3.864392  0
C  C167  1  0.56811930  0.79105306  0.99899544  1  -0.092504  0  -0.247517  -0.421995  0  3.864337  0
C  C168  1  0.43188015  0.20894650  0.99899543  1  -0.092397  0  -0.247501  -0.42198  0  3.86436  0
C  C169  1  0.79105671  0.22293578  0.33232995  1  -0.089058  0  -0.247525  -0.422059  0  3.864342  0
C  C170  1  0.77706310  0.56812098  0.66566290  1  -0.12128  0  -0.247558  -0.422119  0  3.86442  0
C  C171  1  0.89510252  0.78791623  0.26260463  1  1.607629  0  0.199107  0.561584  0  4.22109  0
C  C172  1  0.10489642  0.21208366  0.26260463  1  1.607638  0  0.199099  0.561572  0  4.221134  0
C  C173  1  0.21208154  0.10718578  0.59593838  1  1.614537  0  0.199102  0.561585  0  4.221025  0
C  C174  1  0.89281234  0.10489675  0.92927253  1  1.622718  0  0.199108  0.56155  0  4.221001  0
C  C175  1  0.10718791  0.89510360  0.92927255  1  1.622717  0  0.199111  0.56157  0  4.221074  0
C  C176  1  0.78791788  0.89281371  0.59593839  1  1.614533  0  0.199103  0.561556  0  4.221034  0
C  C177  1  0.10718263  0.21208310  0.73739624  1  1.614536  0  0.199142  0.56161  0  4.220863  0
C  C178  1  0.10489976  0.89281728  0.40406290  1  1.623291  0  0.199144  0.561598  0  4.220845  0
C  C179  1  0.78791761  0.89510113  0.07072915  1  1.607608  0  0.199127  0.561592  0  4.22096  0
C  C180  1  0.21208179  0.10489827  0.07072913  1  1.607619  0  0.199079  0.561498  0  4.220952  0
C  C181  1  0.89509931  0.10718091  0.40406248  1  1.623298  0  0.199113  0.561555  0  4.220915  0
C  C182  1  0.89281680  0.78791641  0.73739625  1  1.614531  0  0.199141  0.561588  0  4.220891  0
S  S183  1  0.62501783  0.41198802  0.25974025  1  -0.139108  0  -0.191746  -0.120347  0  3.201062  0
S  S184  1  0.37498237  0.58801221  0.25974026  1  -0.139078  0  -0.191752  -0.120353  0  3.201061  0
S  S185  1  0.58801153  0.21303014  0.59307400  1  -0.14213  0  -0.191746  -0.120367  0  3.201083  0
S  S186  1  0.78696991  0.37498254  0.92640614  1  -0.140661  0  -0.191711  -0.120284  0  3.20102  0
S  S187  1  0.21303033  0.62501781  0.92640655  1  -0.140655  0  -0.191728  -0.120302  0  3.201006  0
S  S188  1  0.41198870  0.78697015  0.59307401  1  -0.142138  0  -0.19174  -0.120325  0  3.201112  0
S  S189  1  0.21303011  0.58801157  0.74026022  1  -0.142083  0  -0.191709  -0.120281  0  3.201006  0
S  S190  1  0.37497981  0.78697097  0.40692809  1  -0.140471  0  -0.191758  -0.120287  0  3.20099  0
S  S191  1  0.41198881  0.62501863  0.07359392  1  -0.13907  0  -0.191726  -0.120301  0  3.201006  0
S  S192  1  0.58801059  0.37498077  0.07359392  1  -0.139071  0  -0.191718  -0.120309  0  3.201056  0
S  S193  1  0.62502040  0.21302929  0.40692807  1  -0.140529  0  -0.191754  -0.120307  0  3.20099  0
S  S194  1  0.78697012  0.41198875  0.74026021  1  -0.142091  0  -0.191722  -0.120303  0  3.200996  0
N  N195  1  0.66352450  0.66802947  0.26014615  1  -1.011865  0  -0.613311  -0.431021  0  3.559104  0
N  N196  1  0.33647445  0.33197042  0.26014655  1  -1.011857  0  -0.61336  -0.431222  0  3.559256  0
N  N197  1  0.33196955  0.99549511  0.59347951  1  -1.02227  0  -0.613294  -0.431093  0  3.559177  0
N  N198  1  0.00450276  0.33647376  0.92681244  1  -1.007425  0  -0.613298  -0.431076  0  3.559125  0
N  N199  1  0.99549749  0.66352659  0.92681245  1  -1.007111  0  -0.613309  -0.431096  0  3.559095  0
N  N200  1  0.66803068  0.00450518  0.59347949  1  -1.022274  0  -0.613279  -0.431011  0  3.559172  0
N  N201  1  0.99549429  0.33196880  0.73985512  1  -1.02225  0  -0.613323  -0.431076  0  3.558953  0
N  N202  1  0.33647471  0.00450657  0.40652339  1  -1.007249  0  -0.613336  -0.431015  0  3.558976  0
N  N203  1  0.66803153  0.66352563  0.07318924  1  -1.012038  0  -0.613329  -0.431074  0  3.559  0
N  N204  1  0.33196787  0.33647377  0.07318924  1  -1.012046  0  -0.613335  -0.431085  0  3.559029  0
N  N205  1  0.66352424  0.99549335  0.40652341  1  -1.007181  0  -0.613337  -0.431058  0  3.558927  0
N  N206  1  0.00450515  0.66803072  0.73985513  1  -1.02225  0  -0.613306  -0.43107  0  3.558968  0
O  O207  1  0.86869160  0.85206923  0.29570841  1  -1.170795  0  -0.334242  -0.574565  0  2.350655  0
O  O208  1  0.13130781  0.14793021  0.29570840  1  -1.170787  0  -0.334232  -0.574559  0  2.350667  0
O  O209  1  0.14793036  0.01662147  0.62904255  1  -1.170111  0  -0.334237  -0.574577  0  2.350528  0
O  O210  1  0.98337791  0.13130782  0.96237469  1  -1.169105  0  -0.334195  -0.574512  0  2.350555  0
O  O211  1  0.01662234  0.86869254  0.96237470  1  -1.169099  0  -0.334206  -0.574525  0  2.350603  0
O  O212  1  0.85206987  0.98337882  0.62904257  1  -1.170108  0  -0.334236  -0.574566  0  2.35052  0
O  O213  1  0.01662237  0.14792947  0.70429287  1  -1.170075  0  -0.334163  -0.574526  0  2.350756  0
O  O214  1  0.13130867  0.98337698  0.37095832  1  -1.169044  0  -0.334224  -0.574536  0  2.350616  0
O  O215  1  0.85206921  0.86869159  0.03762537  1  -1.170744  0  -0.334212  -0.574545  0  2.350708  0
O  O216  1  0.14793099  0.13130861  0.03762536  1  -1.170748  0  -0.334178  -0.574493  0  2.350641  0
O  O217  1  0.86869154  0.01662327  0.37095830  1  -1.16908  0  -0.334217  -0.574539  0  2.350697  0
O  O218  1  0.98337706  0.85207004  0.70429329  1  -1.17006  0  -0.334162  -0.574498  0  2.350781  0
O  O219  1  0.99838723  0.81169821  0.24603128  1  -1.15435  0  -0.322662  -0.521206  0  2.082441  0
O  O220  1  0.00161298  0.18830203  0.24603127  1  -1.154368  0  -0.322663  -0.521205  0  2.082486  0
O  O221  1  0.18829758  0.18668499  0.57936543  1  -1.154067  0  -0.32268  -0.521225  0  2.082502  0
O  O222  1  0.81330724  0.00161028  0.91270039  1  -1.164649  0  -0.322718  -0.521237  0  2.082398  0
O  O223  1  0.18669221  0.99838926  0.91270001  1  -1.164653  0  -0.322707  -0.52125  0  2.082434  0
O  O224  1  0.81170265  0.81331530  0.57936544  1  -1.154063  0  -0.322677  -0.521208  0  2.082516  0
O  O225  1  0.18669315  0.18829747  0.75397000  1  -1.154139  0  -0.322787  -0.521305  0  2.082041  0
O  O226  1  0.00160465  0.81331280  0.42063666  1  -1.16521  0  -0.322762  -0.521297  0  2.082161  0
O  O227  1  0.81170428  0.99839238  0.08730291  1  -1.154374  0  -0.322727  -0.521283  0  2.082272  0
O  O228  1  0.18829639  0.00160736  0.08730289  1  -1.154386  0  -0.322733  -0.521259  0  2.082294  0
O  O229  1  0.99839350  0.18668631  0.42063665  1  -1.165166  0  -0.322739  -0.521286  0  2.082161  0
O  O230  1  0.81330709  0.81170285  0.75397001  1  -1.154146  0  -0.322794  -0.521311  0  2.08203  0
