# generated using pymatgen
data_Cd3P2H26C14(NO6)2
_symmetry_space_group_name_H-M   'P 1'
_cell_length_a   9.84876348
_cell_length_b   10.75521277
_cell_length_c   12.54531147
_cell_angle_alpha   115.39670588
_cell_angle_beta   101.11676132
_cell_angle_gamma   90.02504978
_symmetry_Int_Tables_number   1
_chemical_formula_structural   Cd3P2H26C14(NO6)2
_chemical_formula_sum   'Cd6 P4 H52 C28 N4 O24'
_cell_volume   1172.73073800
_cell_formula_units_Z   2
loop_
 _symmetry_equiv_pos_site_id
 _symmetry_equiv_pos_as_xyz
  1  'x, y, z'
loop_
 _atom_site_type_symbol
 _atom_site_label
 _atom_site_symmetry_multiplicity
 _atom_site_fract_x
 _atom_site_fract_y
 _atom_site_fract_z
 _atom_site_occupancy
 _atom_site_hle17_bader_spin_density
 _atom_site_hle17_ddec_charge
 _atom_site_hle17_ddec_spin_density
 _atom_site_hle17_ddec_sum_bond_order
 _atom_site_hle17_magmom
 _atom_site_hse06_10hf_bader_spin_density
 _atom_site_hse06_10hf_ddec_charge
 _atom_site_hse06_10hf_ddec_spin_density
 _atom_site_hse06_10hf_ddec_sum_bond_order
 _atom_site_hse06_10hf_magmom
 _atom_site_hse06_bader_spin_density
 _atom_site_hse06_ddec_charge
 _atom_site_hse06_ddec_spin_density
 _atom_site_hse06_ddec_sum_bond_order
 _atom_site_hse06_magmom
 _atom_site_pbe_bader_spin_density
 _atom_site_pbe_cm5_charge
 _atom_site_pbe_ddec_charge
 _atom_site_pbe_ddec_spin_density
 _atom_site_pbe_ddec_sum_bond_order
 _atom_site_pbe_magmom
Cd  Cd0  1  0.92441655  0.52635726  0.21709623  1  0  1.226764  0  1.588712  0  0  1.045917  0  2.014058  0  0  1.102526  0  1.96046  0  0  0.792683  1.005612  0  2.050652  0
Cd  Cd1  1  0.57561543  0.30914225  0.78303468  1  0  1.226524  0  1.589497  0  0  1.045887  0  2.014843  0  0  1.102464  0  1.961286  0  0  0.792566  1.005345  0  2.051545  0
Cd  Cd2  1  0.07558313  0.47364237  0.78290802  1  0  1.226746  0  1.588742  0  0  1.045886  0  2.014094  0  0  1.102496  0  1.960498  0  0  0.79266  1.00558  0  2.050692  0
Cd  Cd3  1  0.42438387  0.69085334  0.21696398  1  0  1.226443  0  1.58961  0  0  1.045801  0  2.014984  0  0  1.102372  0  1.961429  0  0  0.792519  1.005259  0  2.051686  0
Cd  Cd4  1  0.75008063  0.63357629  0.00006329  1  0  1.314884  0  1.61665  0  0  1.161584  0  2.045123  0  0  1.211448  0  1.988661  0  0  0.788172  1.125442  0  2.084464  0
Cd  Cd5  1  0.24992135  0.36641513  0.99993500  1  0  1.314891  0  1.616627  0  0  1.161602  0  2.045085  0  0  1.211468  0  1.98862  0  0  0.78819  1.125463  0  2.084426  0
P  P6  1  0.59395470  0.40414450  0.08948397  1  0  1.482229  0  4.850476  0  0  1.320923  0  5.349088  0  0  1.371571  0  5.31383  0  0  0.318437  1.28542  0  5.372561  0
P  P7  1  0.90594254  0.31463581  0.91050001  1  0  1.481144  0  4.852082  0  0  1.319532  0  5.35101  0  0  1.370184  0  5.315742  0  0  0.318273  1.284035  0  5.374543  0
P  P8  1  0.40604469  0.59585210  0.91051590  1  0  1.482186  0  4.850589  0  0  1.320893  0  5.349203  0  0  1.371543  0  5.313942  0  0  0.318416  1.285392  0  5.372669  0
P  P9  1  0.09405872  0.68535873  0.08949857  1  0  1.481144  0  4.852029  0  0  1.319553  0  5.350966  0  0  1.370213  0  5.315696  0  0  0.318237  1.284052  0  5.374504  0
H  H10  1  0.91121214  0.71702178  0.90140699  1  0  0.416332  0  0.891711  0  0  0.38666  0  0.953423  0  0  0.39712  0  0.938227  0  0  0.283867  0.379077  0  0.964477  0
H  H11  1  0.58890461  0.81557319  0.09860842  1  0  0.416531  0  0.891706  0  0  0.387092  0  0.953284  0  0  0.397596  0  0.938003  0  0  0.284091  0.379494  0  0.964373  0
H  H12  1  0.08878385  0.28298211  0.09859353  1  0  0.416382  0  0.891619  0  0  0.386708  0  0.953329  0  0  0.397169  0  0.938132  0  0  0.283901  0.379125  0  0.964382  0
H  H13  1  0.41109668  0.18442142  0.90138699  1  0  0.416518  0  0.89172  0  0  0.387081  0  0.953297  0  0  0.397584  0  0.938017  0  0  0.284082  0.379483  0  0.964384  0
H  H14  1  0.79137995  0.64318462  0.79001017  1  0  0.441609  0  0.845647  0  0  0.414524  0  0.90237  0  0  0.424828  0  0.887364  0  0  0.298099  0.407206  0  0.913007  0
H  H15  1  0.70867501  0.85325043  0.21005440  1  0  0.441453  0  0.845861  0  0  0.414586  0  0.902173  0  0  0.424874  0  0.887198  0  0  0.298471  0.407288  0  0.912768  0
H  H16  1  0.20861916  0.35681929  0.20998924  1  0  0.441585  0  0.845674  0  0  0.414517  0  0.902366  0  0  0.424819  0  0.887364  0  0  0.298106  0.407198  0  0.913003  0
H  H17  1  0.29132515  0.14675351  0.78994359  1  0  0.441381  0  0.845958  0  0  0.414504  0  0.902293  0  0  0.424793  0  0.887315  0  0  0.298441  0.407205  0  0.912889  0
H  H18  1  0.72810779  0.22473078  0.09885234  1  0  0.125622  0  0.93412  0  0  0.139544  0  0.99039  0  0  0.141527  0  0.989725  0  0  0.118364  0.137897  0  0.991487  0
H  H19  1  0.77169449  0.12564564  0.90106640  1  0  0.125613  0  0.933586  0  0  0.13971  0  0.989515  0  0  0.141678  0  0.988879  0  0  0.118286  0.138075  0  0.990592  0
H  H20  1  0.27189492  0.77526789  0.90114803  1  0  0.125598  0  0.934197  0  0  0.139549  0  0.990434  0  0  0.141532  0  0.98977  0  0  0.11837  0.137902  0  0.991531  0
H  H21  1  0.22830554  0.87434687  0.09892961  1  0  0.125622  0  0.933662  0  0  0.139738  0  0.989568  0  0  0.141707  0  0.988937  0  0  0.118321  0.138103  0  0.990645  0
H  H22  1  0.59778634  0.25115185  0.18452736  1  0  0.114012  0  0.928508  0  0  0.130491  0  0.980499  0  0  0.132596  0  0.97981  0  0  0.11093  0.12865  0  0.981752  0
H  H23  1  0.90200275  0.06659441  0.81535000  1  0  0.114034  0  0.928368  0  0  0.1301  0  0.980788  0  0  0.132235  0  0.980049  0  0  0.111021  0.128286  0  0.981993  0
H  H24  1  0.40221502  0.74884370  0.81547241  1  0  0.114028  0  0.928452  0  0  0.130503  0  0.980453  0  0  0.132607  0  0.979766  0  0  0.110937  0.128664  0  0.981706  0
H  H25  1  0.09799659  0.93340128  0.18464393  1  0  0.114073  0  0.928426  0  0  0.130114  0  0.980895  0  0  0.132249  0  0.980158  0  0  0.111022  0.128302  0  0.982097  0
H  H26  1  0.66846117  0.54670628  0.34711999  1  0  0.074861  0  0.9625  0  0  0.091097  0  1.025135  0  0  0.091674  0  1.025448  0  0  0.105053  0.090548  0  1.025142  0
H  H27  1  0.83096666  0.19968848  0.65274736  1  0  0.075059  0  0.96249  0  0  0.091177  0  1.025072  0  0  0.091834  0  1.025251  0  0  0.105346  0.090612  0  1.025098  0
H  H28  1  0.33154485  0.45329443  0.65288167  1  0  0.074963  0  0.962419  0  0  0.091121  0  1.025132  0  0  0.091696  0  1.025454  0  0  0.105101  0.090571  0  1.025137  0
H  H29  1  0.16903015  0.80031331  0.34725408  1  0  0.075028  0  0.962492  0  0  0.091172  0  1.025055  0  0  0.09183  0  1.025232  0  0  0.105318  0.090606  0  1.025079  0
H  H30  1  0.82519026  0.54723988  0.44497635  1  0  0.06371  0  0.947615  0  0  0.07677  0  1.017802  0  0  0.077667  0  1.017408  0  0  0.100438  0.076058  0  1.018119  0
H  H31  1  0.67432532  0.10192308  0.55500937  1  0  0.062903  0  0.948003  0  0  0.07616  0  1.017783  0  0  0.07703  0  1.017426  0  0  0.10063  0.075466  0  1.018097  0
H  H32  1  0.17481555  0.45275876  0.55502449  1  0  0.063722  0  0.947606  0  0  0.076816  0  1.017741  0  0  0.077712  0  1.017348  0  0  0.100431  0.076103  0  1.018056  0
H  H33  1  0.32567565  0.89807874  0.44499033  1  0  0.062877  0  0.94803  0  0  0.076128  0  1.017813  0  0  0.077013  0  1.01744  0  0  0.10061  0.075417  0  1.018146  0
H  H34  1  0.55814631  0.35559331  0.36975630  1  0  0.071724  0  0.934677  0  0  0.091402  0  0.992619  0  0  0.092283  0  0.992496  0  0  0.092608  0.090751  0  0.992622  0
H  H35  1  0.94168626  0.98605865  0.63003995  1  0  0.071631  0  0.93433  0  0  0.091837  0  0.991829  0  0  0.092708  0  0.991719  0  0  0.09282  0.091192  0  0.991796  0
H  H36  1  0.44185775  0.64440845  0.63024545  1  0  0.071765  0  0.93459  0  0  0.091414  0  0.992532  0  0  0.092291  0  0.992407  0  0  0.092615  0.090758  0  0.992537  0
H  H37  1  0.05831482  0.01394424  0.36995858  1  0  0.071629  0  0.934276  0  0  0.091844  0  0.991773  0  0  0.09272  0  0.991657  0  0  0.092828  0.091176  0  0.991767  0
H  H38  1  0.62621666  0.49194009  0.51311227  1  0  0.089816  0  0.936349  0  0  0.107129  0  0.997821  0  0  0.108708  0  0.997099  0  0  0.09939  0.106092  0  0.998077  0
H  H39  1  0.87343427  0.97902436  0.48674721  1  0  0.090273  0  0.935658  0  0  0.106982  0  0.997902  0  0  0.108573  0  0.997198  0  0  0.099147  0.105917  0  0.998192  0
H  H40  1  0.37378244  0.50806380  0.48688793  1  0  0.089761  0  0.936439  0  0  0.107094  0  0.997854  0  0  0.108684  0  0.997109  0  0  0.099369  0.106024  0  0.99815  0
H  H41  1  0.12656930  0.02098265  0.51325328  1  0  0.090305  0  0.93563  0  0  0.107005  0  0.997894  0  0  0.1086  0  0.997186  0  0  0.099187  0.10594  0  0.998179  0
H  H42  1  0.67535012  0.25477534  0.49482430  1  0  0.088417  0  0.93725  0  0  0.102145  0  0.994453  0  0  0.103811  0  0.994535  0  0  0.107198  0.100829  0  0.994714  0
H  H43  1  0.82452247  0.75993947  0.50487629  1  0  0.08801  0  0.937037  0  0  0.101557  0  0.994592  0  0  0.103162  0  0.994759  0  0  0.106988  0.100301  0  0.994802  0
H  H44  1  0.32464926  0.74523155  0.50518187  1  0  0.088416  0  0.937236  0  0  0.102138  0  0.994452  0  0  0.103804  0  0.994531  0  0  0.107193  0.100824  0  0.994711  0
H  H45  1  0.17547950  0.24006148  0.49511526  1  0  0.087977  0  0.937025  0  0  0.101536  0  0.994562  0  0  0.103139  0  0.994729  0  0  0.106986  0.100269  0  0.99479  0
H  H46  1  0.71289682  0.14024502  0.28911408  1  0  0.074814  0  0.939617  0  0  0.09281  0  1.000888  0  0  0.093873  0  1.000721  0  0  0.090443  0.091791  0  1.001472  0
H  H47  1  0.78712357  0.85097694  0.71064010  1  0  0.075054  0  0.93973  0  0  0.092485  0  1.001153  0  0  0.093653  0  1.00091  0  0  0.090244  0.091416  0  1.001811  0
H  H48  1  0.28709890  0.85975663  0.71089352  1  0  0.074812  0  0.93962  0  0  0.092797  0  1.000893  0  0  0.093857  0  1.00073  0  0  0.09046  0.091797  0  1.001455  0
H  H49  1  0.21287546  0.14901566  0.28935181  1  0  0.075077  0  0.939744  0  0  0.092482  0  1.001195  0  0  0.093648  0  1.000955  0  0  0.090279  0.091416  0  1.00185  0
H  H50  1  0.86997369  0.14554631  0.38671658  1  0  0.086027  0  0.944068  0  0  0.103574  0  1.004405  0  0  0.10503  0  1.003942  0  0  0.096138  0.1025  0  1.004704  0
H  H51  1  0.63003954  0.75849504  0.61304561  1  0  0.085518  0  0.945224  0  0  0.10338  0  1.004788  0  0  0.104739  0  1.004469  0  0  0.096117  0.102356  0  1.00505  0
H  H52  1  0.13002391  0.85445332  0.61328814  1  0  0.085976  0  0.944063  0  0  0.10354  0  1.004379  0  0  0.104997  0  1.003913  0  0  0.096109  0.102459  0  1.004693  0
H  H53  1  0.36996192  0.24150078  0.38694231  1  0  0.085459  0  0.945215  0  0  0.103325  0  1.004781  0  0  0.104681  0  1.004469  0  0  0.096085  0.102317  0  1.005026  0
H  H54  1  0.96818727  0.35182029  0.37684143  1  0  0.06808  0  0.935924  0  0  0.08078  0  1.005989  0  0  0.081736  0  1.005708  0  0  0.101186  0.079965  0  1.006385  0
H  H55  1  0.53161621  0.97455203  0.62318559  1  0  0.067645  0  0.936073  0  0  0.080648  0  1.006082  0  0  0.08159  0  1.00583  0  0  0.101006  0.079899  0  1.006393  0
H  H56  1  0.03181200  0.64817522  0.62316040  1  0  0.068028  0  0.935893  0  0  0.080772  0  1.005909  0  0  0.081723  0  1.005625  0  0  0.101189  0.079953  0  1.006309  0
H  H57  1  0.46838320  0.02544460  0.37681269  1  0  0.067652  0  0.936099  0  0  0.080693  0  1.006092  0  0  0.081638  0  1.005835  0  0  0.101026  0.079943  0  1.006402  0
H  H58  1  0.91454596  0.21686108  0.22914116  1  0  0.069206  0  0.913656  0  0  0.089848  0  0.967108  0  0  0.090377  0  0.966997  0  0  0.105977  0.089256  0  0.967592  0
H  H59  1  0.58546755  0.98729586  0.77083412  1  0  0.069651  0  0.912935  0  0  0.090472  0  0.966353  0  0  0.091085  0  0.966132  0  0  0.106036  0.089836  0  0.966912  0
H  H60  1  0.08545019  0.78313440  0.77086255  1  0  0.069219  0  0.913541  0  0  0.089845  0  0.967012  0  0  0.090365  0  0.966897  0  0  0.105992  0.089254  0  0.967492  0
H  H61  1  0.41453456  0.01269665  0.22916142  1  0  0.069669  0  0.912916  0  0  0.090509  0  0.966322  0  0  0.091121  0  0.966101  0  0  0.106053  0.089872  0  0.966878  0
C  C62  1  0.67969645  0.30418321  0.16594871  1  0  -0.337791  0  3.663426  0  0  -0.372361  0  3.910404  0  0  -0.377747  0  3.921039  0  0  -0.08098  -0.368724  0  3.903648  0
C  C63  1  0.82009551  0.13815414  0.83402542  1  0  -0.33742  0  3.661767  0  0  -0.371704  0  3.909001  0  0  -0.377035  0  3.919425  0  0  -0.080829  -0.368062  0  3.90221  0
C  C64  1  0.32030511  0.69581439  0.83405267  1  0  -0.337787  0  3.663417  0  0  -0.372396  0  3.910424  0  0  -0.377778  0  3.92106  0  0  -0.081009  -0.368763  0  3.90367  0
C  C65  1  0.17990401  0.86184354  0.16597248  1  0  -0.337427  0  3.662005  0  0  -0.371758  0  3.909321  0  0  -0.377095  0  3.919755  0  0  -0.080861  -0.368118  0  3.902534  0
C  C66  1  0.73495030  0.48119236  0.37708414  1  0  -0.022773  0  3.633638  0  0  -0.078484  0  3.890372  0  0  -0.075615  0  3.90404  0  0  -0.080839  -0.08022  0  3.880712  0
C  C67  1  0.76470438  0.10402010  0.62286064  1  0  -0.022895  0  3.633246  0  0  -0.077668  0  3.888706  0  0  -0.074777  0  3.90227  0  0  -0.081485  -0.079431  0  3.879147  0
C  C68  1  0.26505250  0.51880730  0.62291822  1  0  -0.022959  0  3.633705  0  0  -0.078678  0  3.890461  0  0  -0.075804  0  3.904104  0  0  -0.080869  -0.080406  0  3.880782  0
C  C69  1  0.23529658  0.89598171  0.37713906  1  0  -0.022846  0  3.633274  0  0  -0.07761  0  3.888693  0  0  -0.07473  0  3.902261  0  0  -0.081447  -0.079358  0  3.879125  0
C  C70  1  0.65552795  0.41202503  0.43304395  1  0  -0.131999  0  3.659582  0  0  -0.180137  0  3.918113  0  0  -0.18039  0  3.930552  0  0  -0.16544  -0.179748  0  3.909134  0
C  C71  1  0.84424836  0.97906159  0.56681465  1  0  -0.131661  0  3.659171  0  0  -0.180515  0  3.918588  0  0  -0.180844  0  3.931056  0  0  -0.165043  -0.180068  0  3.909566  0
C  C72  1  0.34447289  0.58797570  0.56695771  1  0  -0.131969  0  3.659598  0  0  -0.180019  0  3.91799  0  0  -0.180256  0  3.930402  0  0  -0.165423  -0.179608  0  3.909015  0
C  C73  1  0.15575325  0.02094648  0.43318514  1  0  -0.131681  0  3.659098  0  0  -0.180573  0  3.918563  0  0  -0.180891  0  3.931001  0  0  -0.165128  -0.180107  0  3.909531  0
C  C74  1  0.74331672  0.31212048  0.46756872  1  0  -0.112435  0  3.628452  0  0  -0.112252  0  3.867638  0  0  -0.118771  0  3.883173  0  0  -0.089172  -0.107805  0  3.857041  0
C  C75  1  0.75654932  0.84447358  0.53225802  1  0  -0.112336  0  3.62834  0  0  -0.111781  0  3.867064  0  0  -0.118214  0  3.882571  0  0  -0.089359  -0.107429  0  3.856608  0
C  C76  1  0.25668245  0.68788436  0.53243584  1  0  -0.112472  0  3.628367  0  0  -0.112307  0  3.867528  0  0  -0.118836  0  3.883069  0  0  -0.089156  -0.107856  0  3.856921  0
C  C77  1  0.24345192  0.15553046  0.46773539  1  0  -0.112415  0  3.628615  0  0  -0.111812  0  3.867277  0  0  -0.118244  0  3.88279  0  0  -0.08939  -0.107465  0  3.856843  0
C  C78  1  0.79923526  0.21040014  0.35943364  1  0  -0.142623  0  3.663637  0  0  -0.190346  0  3.920667  0  0  -0.19093  0  3.933643  0  0  -0.169064  -0.189751  0  3.911494  0
C  C79  1  0.70074761  0.85075891  0.64039140  1  0  -0.142806  0  3.66484  0  0  -0.189344  0  3.920626  0  0  -0.190036  0  3.933794  0  0  -0.168604  -0.188732  0  3.911446  0
C  C80  1  0.20076463  0.78960155  0.64057143  1  0  -0.142598  0  3.663633  0  0  -0.190322  0  3.920619  0  0  -0.190912  0  3.933589  0  0  -0.16909  -0.189737  0  3.911441  0
C  C81  1  0.29925494  0.14923781  0.35960262  1  0  -0.142788  0  3.665046  0  0  -0.189314  0  3.920819  0  0  -0.190014  0  3.933998  0  0  -0.168666  -0.188712  0  3.911636  0
C  C82  1  0.87682023  0.28826198  0.30865420  1  0  -0.004323  0  3.624674  0  0  -0.061872  0  3.889396  0  0  -0.058283  0  3.902127  0  0  -0.074195  -0.064127  0  3.88041  0
C  C83  1  0.62307135  0.97929380  0.69130622  1  0  -0.003931  0  3.624463  0  0  -0.06253  0  3.889972  0  0  -0.058967  0  3.902777  0  0  -0.073793  -0.064761  0  3.880862  0
C  C84  1  0.12317915  0.71173456  0.69134803  1  0  -0.004333  0  3.624463  0  0  -0.061888  0  3.889138  0  0  -0.058269  0  3.901824  0  0  -0.074215  -0.064144  0  3.880159  0
C  C85  1  0.37692963  0.02069771  0.30868796  1  0  -0.003925  0  3.624411  0  0  -0.062586  0  3.889922  0  0  -0.059027  0  3.902737  0  0  -0.073772  -0.064814  0  3.880812  0
C  C86  1  0.85886026  0.38721017  0.58028215  1  0  0.653985  0  3.843158  0  0  0.602753  0  4.14699  0  0  0.636001  0  4.1424  0  0  0.200899  0.580206  0  4.149201  0
C  C87  1  0.64091137  0.80676044  0.41959140  1  0  0.65314  0  3.844256  0  0  0.601701  0  4.148477  0  0  0.634977  0  4.143833  0  0  0.200684  0.579125  0  4.150763  0
C  C88  1  0.14113828  0.61279875  0.41972626  1  0  0.654383  0  3.842762  0  0  0.60314  0  4.146605  0  0  0.636387  0  4.142009  0  0  0.201068  0.580594  0  4.148821  0
C  C89  1  0.35908977  0.19325293  0.58040475  1  0  0.653288  0  3.844011  0  0  0.601775  0  4.148297  0  0  0.63505  0  4.143651  0  0  0.200761  0.579202  0  4.150578  0
N  N90  1  0.79028784  0.38311817  0.27294120  1  0  -0.212314  0  3.290671  0  0  -0.113184  0  3.526007  0  0  -0.132632  0  3.551327  0  0  -0.340545  -0.099739  0  3.508045  0
N  N91  1  0.70949637  0.10999781  0.72702431  1  0  -0.212476  0  3.290065  0  0  -0.113817  0  3.525986  0  0  -0.133272  0  3.551238  0  0  -0.340772  -0.100226  0  3.507953  0
N  N92  1  0.20971362  0.61687839  0.72705977  1  0  -0.212229  0  3.29059  0  0  -0.113096  0  3.525899  0  0  -0.132553  0  3.551216  0  0  -0.340542  -0.099653  0  3.507937  0
N  N93  1  0.29050190  0.88999780  0.27297341  1  0  -0.212475  0  3.290209  0  0  -0.1138  0  3.526171  0  0  -0.133255  0  3.551435  0  0  -0.340737  -0.100208  0  3.508129  0
O  O94  1  0.69722074  0.52793702  0.11869473  1  0  -0.906887  0  2.062819  0  0  -0.808464  0  2.352205  0  0  -0.839994  0  2.330295  0  0  -0.389038  -0.785522  0  2.366515  0
O  O95  1  0.80288024  0.40926937  0.88129607  1  0  -0.906199  0  2.063142  0  0  -0.807592  0  2.351942  0  0  -0.839214  0  2.330276  0  0  -0.38906  -0.784628  0  2.366106  0
O  O96  1  0.30278000  0.47206267  0.88130652  1  0  -0.90686  0  2.062994  0  0  -0.808453  0  2.352387  0  0  -0.83999  0  2.330483  0  0  -0.38904  -0.785511  0  2.366695  0
O  O97  1  0.19712001  0.59072523  0.11869998  1  0  -0.906165  0  2.063118  0  0  -0.807579  0  2.351974  0  0  -0.839184  0  2.330254  0  0  -0.389064  -0.784617  0  2.366138  0
O  O98  1  0.46034723  0.45644899  0.13664872  1  0  -0.893791  0  1.998798  0  0  -0.790811  0  2.276872  0  0  -0.822789  0  2.25452  0  0  -0.393129  -0.76773  0  2.291471  0
O  O99  1  0.03953518  0.31954867  0.86322012  1  0  -0.893627  0  1.998627  0  0  -0.790335  0  2.276396  0  0  -0.822291  0  2.254026  0  0  -0.393191  -0.767336  0  2.291033  0
O  O100  1  0.53965308  0.54354653  0.86335247  1  0  -0.893774  0  1.998836  0  0  -0.790797  0  2.276899  0  0  -0.822773  0  2.254547  0  0  -0.393105  -0.767715  0  2.291498  0
O  O101  1  0.96046421  0.68044793  0.13677974  1  0  -0.893632  0  1.998487  0  0  -0.790348  0  2.276257  0  0  -0.822302  0  2.253881  0  0  -0.39317  -0.76735  0  2.290895  0
O  O102  1  0.55704387  0.29645550  0.95615512  1  0  -0.894284  0  2.02625  0  0  -0.795574  0  2.291986  0  0  -0.825585  0  2.27045  0  0  -0.386976  -0.773938  0  2.306356  0
O  O103  1  0.94284572  0.34045884  0.04384157  1  0  -0.894204  0  2.025696  0  0  -0.795391  0  2.291302  0  0  -0.825362  0  2.269771  0  0  -0.386953  -0.773779  0  2.305633  0
O  O104  1  0.44295653  0.70354104  0.04384727  1  0  -0.894273  0  2.026222  0  0  -0.795565  0  2.291964  0  0  -0.825577  0  2.270429  0  0  -0.386938  -0.773927  0  2.306331  0
O  O105  1  0.05715202  0.65954191  0.95615961  1  0  -0.894189  0  2.025726  0  0  -0.795368  0  2.291296  0  0  -0.825345  0  2.269768  0  0  -0.386906  -0.773755  0  2.305627  0
O  O106  1  0.97028290  0.32690408  0.58955533  1  0  -0.648418  0  1.959997  0  0  -0.577287  0  2.203704  0  0  -0.60764  0  2.194832  0  0  -0.328475  -0.556231  0  2.20904  0
O  O107  1  0.52939981  0.73728881  0.41042663  1  0  -0.647838  0  1.960089  0  0  -0.576679  0  2.203646  0  0  -0.607057  0  2.194856  0  0  -0.328029  -0.555607  0  2.209008  0
O  O108  1  0.02971251  0.67310480  0.41045576  1  0  -0.648543  0  1.959782  0  0  -0.577426  0  2.203516  0  0  -0.607797  0  2.194674  0  0  -0.328467  -0.556364  0  2.208836  0
O  O109  1  0.47060586  0.26269761  0.58956157  1  0  -0.647857  0  1.960179  0  0  -0.576677  0  2.203741  0  0  -0.607053  0  2.194954  0  0  -0.328048  -0.555602  0  2.209095  0
O  O110  1  0.84118321  0.50217583  0.66333167  1  0  -0.667261  0  1.962569  0  0  -0.605047  0  2.19857  0  0  -0.63282  0  2.188482  0  0  -0.327318  -0.585606  0  2.204732  0
O  O111  1  0.65867396  0.83849729  0.33647856  1  0  -0.666793  0  1.963287  0  0  -0.604519  0  2.199328  0  0  -0.632274  0  2.189174  0  0  -0.327483  -0.585049  0  2.205541  0
O  O112  1  0.15881038  0.49783523  0.33667518  1  0  -0.667432  0  1.962452  0  0  -0.605235  0  2.198492  0  0  -0.633006  0  2.188397  0  0  -0.327468  -0.585793  0  2.204654  0
O  O113  1  0.34131747  0.16153345  0.66353466  1  0  -0.666892  0  1.962965  0  0  -0.604572  0  2.199025  0  0  -0.632335  0  2.188871  0  0  -0.327525  -0.585101  0  2.205243  0
O  O114  1  0.81000937  0.72020157  0.87214758  1  0  -0.829457  0  1.789462  0  0  -0.771398  0  1.952736  0  0  -0.793927  0  1.921216  0  0  -0.590607  -0.755477  0  1.9755  0
O  O115  1  0.69011676  0.84813142  0.12793857  1  0  -0.829713  0  1.789305  0  0  -0.772122  0  1.952073  0  0  -0.794657  0  1.920499  0  0  -0.591225  -0.756168  0  1.974798  0
O  O116  1  0.18998837  0.27979917  0.12785361  1  0  -0.829472  0  1.789414  0  0  -0.771425  0  1.952719  0  0  -0.79395  0  1.921183  0  0  -0.590633  -0.755505  0  1.975487  0
O  O117  1  0.30988454  0.15186322  0.87205526  1  0  -0.82963  0  1.789363  0  0  -0.772035  0  1.95213  0  0  -0.794571  0  1.920556  0  0  -0.591196  -0.756081  0  1.974858  0
