# generated using pymatgen
data_ZnSiH12C24Br4(N2F3)2
_symmetry_space_group_name_H-M   'P 1'
_cell_length_a   7.79940295
_cell_length_b   13.99818759
_cell_length_c   13.99790124
_cell_angle_alpha   89.94307169
_cell_angle_beta   91.32780079
_cell_angle_gamma   91.32651720
_symmetry_Int_Tables_number   1
_chemical_formula_structural   ZnSiH12C24Br4(N2F3)2
_chemical_formula_sum   'Zn1 Si1 H12 C24 Br4 N4 F6'
_cell_volume   1527.43596039
_cell_formula_units_Z   1
loop_
 _symmetry_equiv_pos_site_id
 _symmetry_equiv_pos_as_xyz
  1  'x, y, z'
loop_
 _atom_site_type_symbol
 _atom_site_label
 _atom_site_symmetry_multiplicity
 _atom_site_fract_x
 _atom_site_fract_y
 _atom_site_fract_z
 _atom_site_occupancy
 _atom_site_pbe_bader_charge
 _atom_site_pbe_bader_spin_density
 _atom_site_pbe_cm5_charge
 _atom_site_pbe_ddec_charge
 _atom_site_pbe_ddec_spin_density
 _atom_site_pbe_ddec_sum_bond_order
 _atom_site_pbe_magmom
Zn  Zn0  1  0.50002412  0.49999892  0.49999723  1  1.367863  0  0.707418  0.744987  0  2.310215  0
Si  Si1  1  0.00001027  0.50001069  0.50000242  1  3.156073  0  0.259332  1.7159  0  3.950869  0
H  H2  1  0.23833325  0.65990066  0.49986004  1  0.183486  0  0.118526  0.106448  0  1.044574  0
H  H3  1  0.23023416  0.83702971  0.49988814  1  0.116593  0  0.103152  0.11788  0  1.028226  0
H  H4  1  0.77302443  0.66445958  0.50001085  1  0.19116  0  0.119803  0.117485  0  1.03503  0
H  H5  1  0.22700161  0.33553811  0.49996490  1  0.191043  0  0.119796  0.117362  0  1.035319  0
H  H6  1  0.76170258  0.34008136  0.50017008  1  0.183076  0  0.118525  0.106385  0  1.044632  0
H  H7  1  0.76978853  0.16294791  0.50019334  1  0.115958  0  0.103126  0.117796  0  1.028269  0
H  H8  1  0.23832790  0.49987969  0.65989851  1  0.184186  0  0.11857  0.106453  0  1.044606  0
H  H9  1  0.23022041  0.49989064  0.83702183  1  0.116494  0  0.103137  0.117909  0  1.028257  0
H  H10  1  0.77300548  0.50004076  0.66446709  1  0.191054  0  0.119787  0.117386  0  1.035427  0
H  H11  1  0.22704123  0.49997776  0.33555666  1  0.190554  0  0.119774  0.117328  0  1.035413  0
H  H12  1  0.76172286  0.50007030  0.34008028  1  0.184571  0  0.118501  0.106492  0  1.044658  0
H  H13  1  0.76977347  0.50004899  0.16294517  1  0.116432  0  0.103148  0.117775  0  1.02876  0
C  C14  1  0.35675674  0.70254208  0.49989620  1  0.46229  0  0.051461  0.093575  0  3.906637  0
C  C15  1  0.35273698  0.80142061  0.49991137  1  0.023613  0  -0.067948  -0.136114  0  3.884845  0
C  C16  1  0.50686411  0.85589584  0.49995558  1  0.139381  0  0.012786  0.119188  0  4.100658  0
C  C17  1  0.66040792  0.80443148  0.49997440  1  -0.084012  0  -0.002783  0.029026  0  3.898543  0
C  C18  1  0.65524154  0.70487290  0.49998028  1  0.539173  0  0.048219  0.044876  0  3.896485  0
C  C19  1  0.50439100  0.95658467  0.50001925  1  -0.088665  0  -0.030253  -0.075279  0  4.095884  0
C  C20  1  0.49561965  0.04340716  0.50008572  1  -0.329495  0  -0.030331  -0.074995  0  4.095793  0
C  C21  1  0.49316527  0.14409398  0.50012664  1  0.138811  0  0.012966  0.119159  0  4.100418  0
C  C22  1  0.33960669  0.19556182  0.50007273  1  -0.082823  0  -0.002884  0.02903  0  3.898658  0
C  C23  1  0.34478110  0.29511690  0.50002475  1  0.539898  0  0.048258  0.044853  0  3.897323  0
C  C24  1  0.64327248  0.29743847  0.50012601  1  0.462899  0  0.051402  0.093655  0  3.906182  0
C  C25  1  0.64729580  0.19856637  0.50015230  1  0.023447  0  -0.06807  -0.1361  0  3.884627  0
C  C26  1  0.35675233  0.49992015  0.70253938  1  0.4621  0  0.051401  0.093563  0  3.907455  0
C  C27  1  0.35270845  0.49992018  0.80140906  1  0.023086  0  -0.06806  -0.136278  0  3.884995  0
C  C28  1  0.50684629  0.49992709  0.85588999  1  0.140087  0  0.013069  0.119553  0  4.099989  0
C  C29  1  0.66039567  0.49994930  0.80443197  1  -0.083968  0  -0.002911  0.02888  0  3.898191  0
C  C30  1  0.65522946  0.50000309  0.70486986  1  0.539493  0  0.048362  0.044997  0  3.896937  0
C  C31  1  0.50437194  0.49995218  0.95658232  1  -0.088674  0  -0.030429  -0.075334  0  4.095396  0
C  C32  1  0.49560342  0.49999303  0.04341384  1  -0.329175  0  -0.030149  -0.07508  0  4.095478  0
C  C33  1  0.49314335  0.50002964  0.14410269  1  0.13954  0  0.012804  0.11913  0  4.10084  0
C  C34  1  0.33961267  0.50002469  0.19557940  1  -0.08297  0  -0.002942  0.028895  0  3.898878  0
C  C35  1  0.34480113  0.49999891  0.29513521  1  0.539322  0  0.048448  0.045246  0  3.896958  0
C  C36  1  0.64328746  0.50005406  0.29744290  1  0.463191  0  0.051523  0.093496  0  3.907236  0
C  C37  1  0.64728747  0.50004231  0.19857151  1  0.023052  0  -0.068057  -0.136  0  3.885639  0
Br  Br38  1  0.87498114  0.87021416  0.49993929  1  -0.025914  0  0.051939  -0.039487  0  1.449475  0
Br  Br39  1  0.12504152  0.12976204  0.50014218  1  -0.026067  0  0.052021  -0.039444  0  1.449557  0
Br  Br40  1  0.87497343  0.49981720  0.87021879  1  -0.02595  0  0.051968  -0.039473  0  1.449319  0
Br  Br41  1  0.12503347  0.50008605  0.12979403  1  -0.026264  0  0.051974  -0.039485  0  1.449471  0
N  N42  1  0.50547939  0.65500670  0.49995153  1  -1.23586  0  -0.309946  -0.207791  0  3.503403  0
N  N43  1  0.49453300  0.34498518  0.50005200  1  -1.236146  0  -0.309834  -0.207694  0  3.502925  0
N  N44  1  0.50545756  0.49998232  0.65500738  1  -1.236939  0  -0.310004  -0.207753  0  3.50383  0
N  N45  1  0.49458555  0.50001690  0.34498634  1  -1.237785  0  -0.31002  -0.207867  0  3.503682  0
F  F46  1  0.22712310  0.49908215  0.49906451  1  -0.8177  0  -0.196282  -0.496644  0  1.331548  0
F  F47  1  0.77290227  0.50093268  0.50092337  1  -0.817638  0  -0.196147  -0.496575  0  1.331613  0
F  F48  1  0.99999437  0.58575413  0.41424772  1  -0.822712  0  -0.238638  -0.537014  0  1.100718  0
F  F49  1  0.00001061  0.41425842  0.58574860  1  -0.82272  0  -0.238643  -0.537027  0  1.100627  0
F  F50  1  0.00837711  0.58573177  0.58572389  1  -0.82334  0  -0.2384  -0.536602  0  1.100406  0
F  F51  1  0.99166928  0.41428962  0.41428199  1  -0.823107  0  -0.238467  -0.536666  0  1.100296  0
