# generated using pymatgen
data_Ag2Mo4H21C18N9O13
_symmetry_space_group_name_H-M   'P 1'
_cell_length_a   11.36148925
_cell_length_b   11.73120160
_cell_length_c   12.17722287
_cell_angle_alpha   115.02903443
_cell_angle_beta   94.07373436
_cell_angle_gamma   100.54720344
_symmetry_Int_Tables_number   1
_chemical_formula_structural   Ag2Mo4H21C18N9O13
_chemical_formula_sum   'Ag4 Mo8 H42 C36 N18 O26'
_cell_volume   1425.54166116
_cell_formula_units_Z   2
loop_
 _symmetry_equiv_pos_site_id
 _symmetry_equiv_pos_as_xyz
  1  'x, y, z'
loop_
 _atom_site_type_symbol
 _atom_site_label
 _atom_site_symmetry_multiplicity
 _atom_site_fract_x
 _atom_site_fract_y
 _atom_site_fract_z
 _atom_site_occupancy
 _atom_site_hle17_bader_spin_density
 _atom_site_hle17_ddec_charge
 _atom_site_hle17_ddec_spin_density
 _atom_site_hle17_ddec_sum_bond_order
 _atom_site_hle17_magmom
 _atom_site_hse06_10hf_bader_spin_density
 _atom_site_hse06_10hf_ddec_charge
 _atom_site_hse06_10hf_ddec_spin_density
 _atom_site_hse06_10hf_ddec_sum_bond_order
 _atom_site_hse06_10hf_magmom
 _atom_site_hse06_bader_spin_density
 _atom_site_hse06_ddec_charge
 _atom_site_hse06_ddec_spin_density
 _atom_site_hse06_ddec_sum_bond_order
 _atom_site_hse06_magmom
 _atom_site_pbe_bader_spin_density
 _atom_site_pbe_cm5_charge
 _atom_site_pbe_ddec_charge
 _atom_site_pbe_ddec_spin_density
 _atom_site_pbe_ddec_sum_bond_order
 _atom_site_pbe_magmom
Ag  Ag0  1  0.17563830  0.98386557  0.69098189  1  0  0.570181  0  1.410819  0  0  0.441481  0  1.826068  0  0  0.466549  0  1.785539  0  0  0.500841  0.42409  0  1.853611  0
Ag  Ag1  1  0.82436061  0.01613352  0.30901632  1  0  0.570194  0  1.410874  0  0  0.441476  0  1.826155  0  0  0.466542  0  1.785624  0  0  0.500854  0.424087  0  1.853691  0
Ag  Ag2  1  0.62097485  0.94598946  0.73147337  1  0  0.533746  0  1.447127  0  0  0.390578  0  1.883367  0  0  0.414676  0  1.847373  0  0  0.492935  0.373862  0  1.907818  0
Ag  Ag3  1  0.37902339  0.05401060  0.26852601  1  0  0.533687  0  1.44717  0  0  0.39053  0  1.883412  0  0  0.414634  0  1.847418  0  0  0.492922  0.373813  0  1.907857  0
Mo  Mo4  1  0.02096975  0.66428321  0.34141541  1  0  2.183037  0  4.076367  0  0  2.183219  0  4.618906  0  0  2.282168  0  4.582447  0  0  1.497631  2.11088  0  4.651098  0
Mo  Mo5  1  0.97903203  0.33570910  0.65857117  1  0  2.182612  0  4.075241  0  0  2.182678  0  4.617914  0  0  2.281672  0  4.581416  0  0  1.497087  2.110343  0  4.65006  0
Mo  Mo6  1  0.18873441  0.37989066  0.88843859  1  0  2.175941  0  4.079886  0  0  2.169605  0  4.618939  0  0  2.269989  0  4.583167  0  0  1.487795  2.097246  0  4.648328  0
Mo  Mo7  1  0.81126473  0.62010936  0.11157643  1  0  2.176132  0  4.079622  0  0  2.169804  0  4.61862  0  0  2.270158  0  4.582882  0  0  1.487856  2.097458  0  4.648021  0
Mo  Mo8  1  0.98552304  0.37906477  0.05858729  1  0  2.221903  0  4.063518  0  0  2.219776  0  4.590618  0  0  2.322315  0  4.552406  0  0  1.491759  2.144404  0  4.623837  0
Mo  Mo9  1  0.01447918  0.62093332  0.94141646  1  0  2.221845  0  4.063468  0  0  2.219729  0  4.59054  0  0  2.322264  0  4.552345  0  0  1.49175  2.144362  0  4.62375  0
Mo  Mo10  1  0.22310310  0.66713376  0.15807700  1  0  2.173053  0  4.114677  0  0  2.168466  0  4.653763  0  0  2.269539  0  4.616902  0  0  1.486146  2.095374  0  4.684211  0
Mo  Mo11  1  0.77690022  0.33286914  0.84193866  1  0  2.173276  0  4.114693  0  0  2.168719  0  4.653708  0  0  2.26976  0  4.616896  0  0  1.486244  2.095632  0  4.684145  0
H  H12  1  0.73323010  0.09432594  0.57591472  1  0  0.114417  0  0.956429  0  0  0.123547  0  1.019727  0  0  0.1257  0  1.016906  0  0  0.139502  0.121819  0  1.02196  0
H  H13  1  0.26676925  0.90567508  0.42408513  1  0  0.114365  0  0.956416  0  0  0.123504  0  1.019719  0  0  0.125659  0  1.016896  0  0  0.139481  0.121776  0  1.021951  0
H  H14  1  0.59332462  0.75205816  0.24685459  1  0  0.132944  0  0.922543  0  0  0.14248  0  0.983796  0  0  0.145268  0  0.979703  0  0  0.152597  0.140446  0  0.986717  0
H  H15  1  0.40667649  0.24794285  0.75314536  1  0  0.132961  0  0.922533  0  0  0.142492  0  0.98378  0  0  0.145281  0  0.979686  0  0  0.152588  0.140454  0  0.986708  0
H  H16  1  0.38819186  0.70430013  0.40843633  1  0  0.104021  0  0.95163  0  0  0.118831  0  1.012583  0  0  0.119532  0  1.012323  0  0  0.117375  0.118251  0  1.012775  0
H  H17  1  0.61180858  0.29570186  0.59156398  1  0  0.104024  0  0.951638  0  0  0.118823  0  1.0126  0  0  0.119524  0  1.012337  0  0  0.117371  0.118241  0  1.012793  0
H  H18  1  0.49354289  0.61373083  0.34158440  1  0  0.103559  0  0.924784  0  0  0.120112  0  0.983733  0  0  0.120042  0  0.984708  0  0  0.124149  0.120074  0  0.9832  0
H  H19  1  0.50645646  0.38627019  0.65841627  1  0  0.103551  0  0.924765  0  0  0.120085  0  0.983734  0  0  0.120016  0  0.984708  0  0  0.124139  0.120047  0  0.983204  0
H  H20  1  0.73959359  0.35551003  0.52260308  1  0  0.117984  0  0.988142  0  0  0.137998  0  1.04791  0  0  0.139932  0  1.047528  0  0  0.08953  0.136414  0  1.048491  0
H  H21  1  0.26040664  0.64449098  0.47739847  1  0  0.117987  0  0.988141  0  0  0.138009  0  1.04789  0  0  0.139944  0  1.047508  0  0  0.089545  0.136427  0  1.04847  0
H  H22  1  0.77795270  0.33441141  0.37929921  1  0  0.119452  0  0.965061  0  0  0.140871  0  1.021199  0  0  0.142552  0  1.020525  0  0  0.095263  0.139641  0  1.021787  0
H  H23  1  0.22204753  0.66558961  0.62070069  1  0  0.11945  0  0.965058  0  0  0.140872  0  1.021184  0  0  0.142552  0  1.020515  0  0  0.095257  0.139644  0  1.021772  0
H  H24  1  0.70217408  0.20028068  0.39604246  1  0  0.091701  0  0.985372  0  0  0.104985  0  1.07622  0  0  0.107727  0  1.072223  0  0  0.079552  0.103418  0  1.078232  0
H  H25  1  0.29782681  0.79971936  0.60395791  1  0  0.091693  0  0.985379  0  0  0.104978  0  1.076226  0  0  0.107722  0  1.072227  0  0  0.079558  0.103414  0  1.078235  0
H  H26  1  0.66681331  0.72139096  0.93572088  1  0  0.110779  0  0.955926  0  0  0.132607  0  1.018883  0  0  0.133569  0  1.018793  0  0  0.093263  0.13182  0  1.018982  0
H  H27  1  0.33318780  0.27861005  0.06427662  1  0  0.110827  0  0.955884  0  0  0.132667  0  1.018815  0  0  0.13363  0  1.018722  0  0  0.093301  0.131876  0  1.018922  0
H  H28  1  0.51536009  0.64349713  0.92632850  1  0  0.116027  0  0.977297  0  0  0.137522  0  1.035454  0  0  0.139064  0  1.034797  0  0  0.092815  0.136344  0  1.036051  0
H  H29  1  0.48464233  0.35650581  0.07367315  1  0  0.116044  0  0.977288  0  0  0.137533  0  1.03545  0  0  0.139074  0  1.034796  0  0  0.092816  0.136357  0  1.036047  0
H  H30  1  0.61706749  0.55199595  0.85714048  1  0  0.136628  0  0.95868  0  0  0.156988  0  1.019352  0  0  0.158753  0  1.018645  0  0  0.096082  0.155447  0  1.020451  0
H  H31  1  0.38293450  0.44800505  0.14286281  1  0  0.136631  0  0.958692  0  0  0.156986  0  1.019372  0  0  0.158752  0  1.018663  0  0  0.096078  0.155441  0  1.02048  0
H  H32  1  0.19382734  0.43085032  0.34220673  1  0  0.105142  0  0.914899  0  0  0.12253  0  0.972127  0  0  0.12284  0  0.971236  0  0  0.123169  0.122108  0  0.972359  0
H  H33  1  0.80617070  0.56914489  0.65779147  1  0  0.105161  0  0.914944  0  0  0.122557  0  0.972154  0  0  0.122865  0  0.971259  0  0  0.123158  0.122133  0  0.972386  0
H  H34  1  0.21730464  0.35615337  0.18935199  1  0  0.107005  0  0.96307  0  0  0.119164  0  1.027447  0  0  0.120069  0  1.025913  0  0  0.115648  0.118214  0  1.028105  0
H  H35  1  0.78269339  0.64384184  0.81064457  1  0  0.107034  0  0.963023  0  0  0.119197  0  1.027403  0  0  0.120101  0  1.025868  0  0  0.115659  0.118244  0  1.028073  0
H  H36  1  0.22788411  0.25262912  0.48680390  1  0  0.118785  0  0.933112  0  0  0.138799  0  0.995905  0  0  0.139954  0  0.996364  0  0  0.098424  0.138069  0  0.995454  0
H  H37  1  0.77211524  0.74737190  0.51319759  1  0  0.118792  0  0.933106  0  0  0.138812  0  0.995886  0  0  0.139968  0  0.996344  0  0  0.098425  0.13808  0  0.995438  0
H  H38  1  0.22408562  0.40888659  0.50556721  1  0  0.118483  0  0.949585  0  0  0.142956  0  1.006641  0  0  0.143661  0  1.007432  0  0  0.097646  0.142322  0  1.006274  0
H  H39  1  0.77591548  0.59111442  0.49443275  1  0  0.118494  0  0.949558  0  0  0.142971  0  1.006605  0  0  0.143677  0  1.007393  0  0  0.09764  0.142335  0  1.006239  0
H  H40  1  0.32561715  0.38945738  0.60873694  1  0  0.113419  0  0.960315  0  0  0.135821  0  1.020628  0  0  0.136822  0  1.021207  0  0  0.092776  0.135048  0  1.02034  0
H  H41  1  0.67438396  0.61054363  0.39126301  1  0  0.113396  0  0.960342  0  0  0.135792  0  1.020662  0  0  0.136794  0  1.021239  0  0  0.092759  0.135019  0  1.020372  0
H  H42  1  0.35502340  0.60535110  0.84856777  1  0  0.108192  0  0.956081  0  0  0.11911  0  1.020352  0  0  0.120772  0  1.018677  0  0  0.118486  0.11782  0  1.021703  0
H  H43  1  0.64497683  0.39464992  0.15143377  1  0  0.108185  0  0.956095  0  0  0.11908  0  1.020367  0  0  0.120742  0  1.018692  0  0  0.118475  0.117794  0  1.021714  0
H  H44  1  0.25303475  0.62612411  0.74846643  1  0  0.109461  0  0.924177  0  0  0.124886  0  0.979723  0  0  0.126089  0  0.97867  0  0  0.123389  0.123862  0  0.980746  0
H  H45  1  0.74696657  0.37387786  0.25153558  1  0  0.109415  0  0.924141  0  0  0.124824  0  0.979688  0  0  0.126027  0  0.978636  0  0  0.123367  0.1238  0  0.98071  0
H  H46  1  0.02176657  0.70364400  0.69196204  1  0  0.128969  0  0.924985  0  0  0.141556  0  0.982585  0  0  0.143892  0  0.978133  0  0  0.148496  0.139412  0  0.985696  0
H  H47  1  0.97823278  0.29635315  0.30803621  1  0  0.128984  0  0.925086  0  0  0.141555  0  0.982684  0  0  0.143893  0  0.978232  0  0  0.148483  0.139413  0  0.985795  0
H  H48  1  0.06848838  0.93523312  0.20173865  1  0  0.122159  0  0.934009  0  0  0.133495  0  0.990101  0  0  0.135095  0  0.987689  0  0  0.138394  0.131993  0  0.992257  0
H  H49  1  0.93150789  0.06476210  0.79825698  1  0  0.122111  0  0.934131  0  0  0.133447  0  0.990217  0  0  0.135044  0  0.987808  0  0  0.138379  0.131949  0  0.992374  0
H  H50  1  0.71743320  0.93337992  0.00429582  1  0  0.095402  0  0.930016  0  0  0.106636  0  0.989859  0  0  0.108513  0  0.987465  0  0  0.136235  0.105164  0  0.991781  0
H  H51  1  0.28256989  0.06662205  0.99570466  1  0  0.095374  0  0.930049  0  0  0.106609  0  0.989891  0  0  0.108487  0  0.987497  0  0  0.136218  0.105139  0  0.991813  0
H  H52  1  0.44271469  0.79826985  0.05739093  1  0  0.1084  0  0.934807  0  0  0.120761  0  0.996222  0  0  0.122972  0  0.992932  0  0  0.145483  0.119133  0  0.998524  0
H  H53  1  0.55728752  0.20173213  0.94260949  1  0  0.10841  0  0.934794  0  0  0.120766  0  0.996216  0  0  0.122978  0  0.992925  0  0  0.145482  0.119139  0  0.998521  0
C  C54  1  0.68034151  0.99958236  0.50942708  1  0  0.219155  0  3.652482  0  0  0.162974  0  3.920594  0  0  0.176782  0  3.933987  0  0  0.155521  0.153883  0  3.911389  0
C  C55  1  0.31965784  0.00041866  0.49057359  1  0  0.219036  0  3.652336  0  0  0.162864  0  3.920465  0  0  0.176672  0  3.933864  0  0  0.155448  0.153772  0  3.911251  0
C  C56  1  0.61249059  0.82652196  0.34144866  1  0  0.187457  0  3.586439  0  0  0.108533  0  3.845882  0  0  0.123995  0  3.856441  0  0  0.1795  0.098671  0  3.838528  0
C  C57  1  0.38750854  0.17347809  0.65855160  1  0  0.187356  0  3.586635  0  0  0.108485  0  3.846043  0  0  0.123947  0  3.856603  0  0  0.179478  0.098616  0  3.838698  0
C  C58  1  0.48083105  0.69435103  0.42492520  1  0  -0.042145  0  3.615979  0  0  -0.117428  0  3.853763  0  0  -0.113123  0  3.865259  0  0  -0.043042  -0.120033  0  3.845857  0
C  C59  1  0.51917006  0.30564998  0.57507722  1  0  -0.042128  0  3.615927  0  0  -0.117387  0  3.853699  0  0  -0.113085  0  3.865193  0  0  -0.043045  -0.119993  0  3.845801  0
C  C60  1  0.50491219  0.67392454  0.53779555  1  0  -0.068624  0  3.72802  0  0  -0.05884  0  3.97423  0  0  -0.063145  0  3.997834  0  0  -0.030568  -0.055871  0  3.958102  0
C  C61  1  0.49508782  0.32607551  0.46220394  1  0  -0.068553  0  3.72803  0  0  -0.058788  0  3.974222  0  0  -0.063082  0  3.997822  0  0  -0.030551  -0.055823  0  3.958099  0
C  C62  1  0.61974225  0.65644638  0.56943445  1  0  0.06815  0  3.739186  0  0  0.07437  0  3.996593  0  0  0.077154  0  4.018419  0  0  -0.012584  0.072746  0  3.981502  0
C  C63  1  0.38025622  0.34355077  0.43056457  1  0  0.068103  0  3.739186  0  0  0.074347  0  3.996564  0  0  0.07713  0  4.018386  0  0  -0.01259  0.072721  0  3.981474  0
C  C64  1  0.64640772  0.65015854  0.68109097  1  0  -0.043695  0  3.696552  0  0  -0.037259  0  3.945052  0  0  -0.04122  0  3.966976  0  0  -0.021002  -0.035052  0  3.929309  0
C  C65  1  0.35359141  0.34983763  0.31890688  1  0  -0.043659  0  3.696528  0  0  -0.037198  0  3.944979  0  0  -0.041159  0  3.966906  0  0  -0.020967  -0.034993  0  3.929233  0
C  C66  1  0.44243194  0.34829740  0.24333981  1  0  0.078147  0  3.70358  0  0  0.087345  0  3.95696  0  0  0.089152  0  3.980745  0  0  -0.006719  0.086153  0  3.940807  0
C  C67  1  0.55756653  0.65169975  0.75665839  1  0  0.078123  0  3.703642  0  0  0.087345  0  3.956982  0  0  0.089152  0  3.980768  0  0  -0.006716  0.086146  0  3.940842  0
C  C68  1  0.55907415  0.33753849  0.27989843  1  0  -0.047156  0  3.681304  0  0  -0.042113  0  3.9297  0  0  -0.046767  0  3.954965  0  0  -0.020663  -0.03923  0  3.912711  0
C  C69  1  0.44092366  0.66245963  0.72010177  1  0  -0.047177  0  3.681335  0  0  -0.042105  0  3.929728  0  0  -0.046764  0  3.954992  0  0  -0.020658  -0.039223  0  3.912747  0
C  C70  1  0.58551992  0.32339783  0.38792709  1  0  0.081548  0  3.711156  0  0  0.095514  0  3.957051  0  0  0.097685  0  3.979834  0  0  -0.006886  0.094248  0  3.941418  0
C  C71  1  0.41447833  0.67660223  0.61207475  1  0  0.081636  0  3.711044  0  0  0.095577  0  3.956961  0  0  0.097759  0  3.979735  0  0  -0.006856  0.094311  0  3.941332  0
C  C72  1  0.70694223  0.30375944  0.42354610  1  0  -0.344944  0  3.739308  0  0  -0.430222  0  3.985216  0  0  -0.432871  0  3.993714  0  0  -0.251002  -0.428102  0  3.978798  0
C  C73  1  0.29305778  0.69624061  0.57645421  1  0  -0.344949  0  3.739298  0  0  -0.430216  0  3.985198  0  0  -0.432864  0  3.993684  0  0  -0.250997  -0.428091  0  3.978767  0
C  C74  1  0.58974772  0.64236006  0.87433826  1  0  -0.349468  0  3.707943  0  0  -0.434122  0  3.949301  0  0  -0.436417  0  3.959106  0  0  -0.249871  -0.432224  0  3.942708  0
C  C75  1  0.41025317  0.35763999  0.12566211  1  0  -0.349556  0  3.707918  0  0  -0.434195  0  3.949266  0  0  -0.436489  0  3.959073  0  0  -0.249902  -0.432305  0  3.942685  0
C  C76  1  0.77441550  0.65057995  0.72367491  1  0  -0.045392  0  3.60722  0  0  -0.120339  0  3.845618  0  0  -0.109092  0  3.856404  0  0  -0.044944  -0.122866  0  3.838059  0
C  C77  1  0.22558320  0.34941429  0.27632212  1  0  -0.045388  0  3.607161  0  0  -0.120367  0  3.845711  0  0  -0.109141  0  3.856497  0  0  -0.044975  -0.122898  0  3.838165  0
C  C78  1  0.28553807  0.34917094  0.51179358  1  0  -0.333733  0  3.711722  0  0  -0.422374  0  3.964376  0  0  -0.424246  0  3.974296  0  0  -0.246751  -0.42066  0  3.957106  0
C  C79  1  0.71446172  0.65082815  0.48820549  1  0  -0.333718  0  3.711657  0  0  -0.422362  0  3.964335  0  0  -0.424229  0  3.974245  0  0  -0.24674  -0.420652  0  3.957067  0
C  C80  1  0.65474234  0.33549095  0.19933760  1  0  -0.052478  0  3.625011  0  0  -0.125437  0  3.862975  0  0  -0.121299  0  3.873063  0  0  -0.048202  -0.128076  0  3.856416  0
C  C81  1  0.34525700  0.66451006  0.80066306  1  0  -0.052501  0  3.625056  0  0  -0.12556  0  3.863091  0  0  -0.121423  0  3.873179  0  0  -0.048228  -0.128192  0  3.856533  0
C  C82  1  0.97553738  0.78183606  0.72050804  1  0  0.196389  0  3.61026  0  0  0.113886  0  3.87622  0  0  0.136764  0  3.887949  0  0  0.172875  0.103836  0  3.868494  0
C  C83  1  0.02446087  0.21816400  0.27949298  1  0  0.196223  0  3.61026  0  0  0.113794  0  3.876165  0  0  0.136648  0  3.887896  0  0  0.172864  0.103738  0  3.868446  0
C  C84  1  0.07343427  0.03617039  0.22509212  1  0  0.224501  0  3.651557  0  0  0.173043  0  3.917611  0  0  0.186391  0  3.928521  0  0  0.153246  0.164274  0  3.908991  0
C  C85  1  0.92656288  0.96382483  0.77490356  1  0  0.224625  0  3.651547  0  0  0.173161  0  3.917611  0  0  0.18651  0  3.928513  0  0  0.153326  0.164393  0  3.908991  0
C  C86  1  0.68323444  0.01830623  0.01909802  1  0  0.200594  0  3.709931  0  0  0.144729  0  4.002337  0  0  0.156138  0  4.016257  0  0  0.14521  0.137254  0  3.992811  0
C  C87  1  0.31676644  0.98169381  0.98090153  1  0  0.200641  0  3.710005  0  0  0.144796  0  4.002416  0  0  0.156206  0  4.016335  0  0  0.14525  0.137319  0  3.992893  0
C  C88  1  0.39898795  0.84779837  0.01496124  1  0  0.165783  0  3.641592  0  0  0.08763  0  3.904142  0  0  0.101228  0  3.91682  0  0  0.159181  0.078973  0  3.895197  0
C  C89  1  0.60101382  0.15220167  0.98503754  1  0  0.165765  0  3.641596  0  0  0.087611  0  3.904164  0  0  0.10121  0  3.916842  0  0  0.159193  0.07895  0  3.895225  0
N  N90  1  0.56478840  0.81041243  0.43288530  1  0  0.056993  0  3.510519  0  0  0.177216  0  3.684259  0  0  0.166641  0  3.709741  0  0  -0.125734  0.182965  0  3.668943  0
N  N91  1  0.43521182  0.18958858  0.56711543  1  0  0.057009  0  3.510493  0  0  0.177222  0  3.684225  0  0  0.16665  0  3.709701  0  0  -0.125724  0.182971  0  3.668912  0
N  N92  1  0.60708484  0.91995392  0.54065754  1  0  -0.270002  0  3.135547  0  0  -0.225819  0  3.42809  0  0  -0.240927  0  3.441755  0  0  -0.249542  -0.215538  0  3.418842  0
N  N93  1  0.39291451  0.08004710  0.45934148  1  0  -0.269863  0  3.135292  0  0  -0.225677  0  3.427827  0  0  -0.240788  0  3.441497  0  0  -0.249465  -0.215395  0  3.418574  0
N  N94  1  0.68594923  0.94543640  0.38724804  1  0  -0.375607  0  3.323533  0  0  -0.291422  0  3.6374  0  0  -0.313704  0  3.647221  0  0  -0.366184  -0.276323  0  3.630072  0
N  N95  1  0.31404923  0.05456463  0.61275011  1  0  -0.375469  0  3.323657  0  0  -0.291355  0  3.637553  0  0  -0.313645  0  3.647385  0  0  -0.366136  -0.276248  0  3.630217  0
N  N96  1  0.65001845  0.20498701  0.10420059  1  0  0.061948  0  3.531417  0  0  0.184951  0  3.710513  0  0  0.174965  0  3.734149  0  0  -0.127967  0.190726  0  3.695812  0
N  N97  1  0.34998354  0.79501400  0.89579778  1  0  0.061853  0  3.531469  0  0  0.184939  0  3.710506  0  0  0.174961  0  3.734131  0  0  -0.12798  0.190711  0  3.695808  0
N  N98  1  0.70232191  0.12040362  0.12806917  1  0  -0.282416  0  2.871039  0  0  -0.278543  0  3.149436  0  0  -0.288739  0  3.1636  0  0  -0.21686  -0.271568  0  3.139925  0
N  N99  1  0.29767919  0.87959740  0.87192915  1  0  -0.28238  0  2.871004  0  0  -0.278528  0  3.149376  0  0  -0.288725  0  3.163537  0  0  -0.216832  -0.271557  0  3.139874  0
N  N100  1  0.62021932  0.03317002  0.92786328  1  0  -0.37796  0  3.283795  0  0  -0.300236  0  3.598097  0  0  -0.321439  0  3.611055  0  0  -0.367806  -0.285792  0  3.588715  0
N  N101  1  0.37978201  0.96683196  0.07213544  1  0  -0.377925  0  3.283827  0  0  -0.300261  0  3.598179  0  0  -0.321465  0  3.611138  0  0  -0.367825  -0.285815  0  3.58879  0
N  N102  1  0.86019379  0.76860234  0.73936527  1  0  0.045582  0  3.535326  0  0  0.168743  0  3.711807  0  0  0.138422  0  3.758821  0  0  -0.131384  0.176031  0  3.694745  0
N  N103  1  0.13980403  0.23139190  0.26063088  1  0  0.045663  0  3.535267  0  0  0.168752  0  3.711832  0  0  0.138491  0  3.75878  0  0  -0.131462  0.176038  0  3.694774  0
N  N104  1  0.17257894  0.11610918  0.22517028  1  0  -0.291587  0  2.951157  0  0  -0.267006  0  3.220553  0  0  -0.27302  0  3.23722  0  0  -0.228555  -0.258414  0  3.21053  0
N  N105  1  0.82741976  0.88388506  0.77482675  1  0  -0.29168  0  2.951068  0  0  -0.267134  0  3.220468  0  0  -0.273125  0  3.237137  0  0  -0.22866  -0.258538  0  3.210443  0
N  N106  1  0.02001561  0.90457495  0.74185126  1  0  -0.37498  0  3.310714  0  0  -0.287803  0  3.61983  0  0  -0.311753  0  3.629993  0  0  -0.370154  -0.272132  0  3.611129  0
N  N107  1  0.97998045  0.09541930  0.25814478  1  0  -0.374837  0  3.310674  0  0  -0.287693  0  3.619772  0  0  -0.311642  0  3.629947  0  0  -0.370111  -0.272021  0  3.611073  0
O  O108  1  0.01123332  0.61218562  0.11061552  1  0  -1.217689  0  1.867792  0  0  -1.195552  0  2.143655  0  0  -1.243244  0  2.141805  0  0  -0.622383  -1.159231  0  2.143933  0
O  O109  1  0.98876801  0.38782021  0.88939710  1  0  -1.217564  0  1.867664  0  0  -1.195432  0  2.143536  0  0  -1.243126  0  2.141683  0  0  -0.622376  -1.15912  0  2.143824  0
O  O110  1  0.18025839  0.60985540  0.97936116  1  0  -0.95433  0  1.822991  0  0  -0.950892  0  2.125558  0  0  -0.994213  0  2.122206  0  0  -0.597924  -0.918564  0  2.127366  0
O  O111  1  0.81974426  0.39014464  0.02063685  1  0  -0.954351  0  1.823183  0  0  -0.950892  0  2.125734  0  0  -0.994204  0  2.122381  0  0  -0.597912  -0.91855  0  2.127534  0
O  O112  1  0.22988602  0.82975786  0.20860983  1  0  -0.719466  0  1.574347  0  0  -0.711841  0  1.866669  0  0  -0.739525  0  1.855009  0  0  -0.521732  -0.692247  0  1.875192  0
O  O113  1  0.77011839  0.17024605  0.79139152  1  0  -0.719586  0  1.574485  0  0  -0.711962  0  1.866778  0  0  -0.739638  0  1.855121  0  0  -0.521833  -0.692368  0  1.875302  0
O  O114  1  0.62749440  0.34285006  0.83239835  1  0  -0.694497  0  1.441386  0  0  -0.689764  0  1.692067  0  0  -0.715752  0  1.681317  0  0  -0.519527  -0.671621  0  1.700706  0
O  O115  1  0.37250428  0.65715193  0.16760103  1  0  -0.694438  0  1.441496  0  0  -0.689701  0  1.692211  0  0  -0.71569  0  1.681442  0  0  -0.519528  -0.671572  0  1.700861  0
O  O116  1  0.18141926  0.64789135  0.29906288  1  0  -0.895567  0  1.748167  0  0  -0.886588  0  2.040803  0  0  -0.928493  0  2.034931  0  0  -0.593146  -0.855845  0  2.044818  0
O  O117  1  0.81856377  0.35211556  0.70094407  1  0  -0.895692  0  1.74766  0  0  -0.886688  0  2.040224  0  0  -0.928594  0  2.03435  0  0  -0.593113  -0.855916  0  2.04419  0
O  O118  1  0.98320515  0.36306122  0.53142309  1  0  -0.679138  0  1.414898  0  0  -0.671839  0  1.656105  0  0  -0.698409  0  1.645472  0  0  -0.516607  -0.652963  0  1.664553  0
O  O119  1  0.01680075  0.63695341  0.46855729  1  0  -0.679235  0  1.415278  0  0  -0.672012  0  1.656496  0  0  -0.698581  0  1.645889  0  0  -0.516875  -0.653141  0  1.664958  0
O  O120  1  0.95159639  0.17016388  0.60330047  1  0  -0.70739  0  1.399844  0  0  -0.712247  0  1.652554  0  0  -0.73776  0  1.640208  0  0  -0.524431  -0.693973  0  1.662074  0
O  O121  1  0.04839881  0.82981876  0.39668993  1  0  -0.707593  0  1.399913  0  0  -0.712474  0  1.652576  0  0  -0.737974  0  1.640227  0  0  -0.524696  -0.694199  0  1.662112  0
O  O122  1  0.14521546  0.38075385  0.73468729  1  0  -0.873575  0  1.736654  0  0  -0.868678  0  2.031644  0  0  -0.910943  0  2.02593  0  0  -0.591111  -0.837637  0  2.035676  0
O  O123  1  0.85480349  0.61925190  0.26532397  1  0  -0.873731  0  1.737134  0  0  -0.868828  0  2.032099  0  0  -0.911088  0  2.026403  0  0  -0.591141  -0.837771  0  2.03611  0
O  O124  1  0.65756800  0.55963257  0.09121640  1  0  -0.659173  0  1.406198  0  0  -0.644666  0  1.635811  0  0  -0.670702  0  1.626884  0  0  -0.510259  -0.626601  0  1.643428  0
O  O125  1  0.34243399  0.44036844  0.90878361  1  0  -0.65913  0  1.406139  0  0  -0.644634  0  1.635748  0  0  -0.670678  0  1.626814  0  0  -0.510208  -0.626524  0  1.643319  0
O  O126  1  0.82787959  0.78242044  0.15212353  1  0  -0.721979  0  1.506535  0  0  -0.714738  0  1.790417  0  0  -0.742244  0  1.775742  0  0  -0.528169  -0.695048  0  1.801187  0
O  O127  1  0.17211954  0.21757961  0.84787755  1  0  -0.721923  0  1.50657  0  0  -0.714665  0  1.790443  0  0  -0.742178  0  1.775765  0  0  -0.52816  -0.69498  0  1.801215  0
O  O128  1  0.16047382  0.43700849  0.06175429  1  0  -0.969064  0  1.840698  0  0  -0.95863  0  2.135736  0  0  -1.001591  0  2.130839  0  0  -0.59799  -0.926338  0  2.138241  0
O  O129  1  0.83952200  0.56298868  0.93824046  1  0  -0.969073  0  1.840332  0  0  -0.958619  0  2.135314  0  0  -1.001557  0  2.130405  0  0  -0.597981  -0.926414  0  2.138013  0
O  O130  1  0.00749844  0.55189130  0.77985082  1  0  -0.79781  0  1.632262  0  0  -0.796962  0  1.917167  0  0  -0.829195  0  1.907217  0  0  -0.549774  -0.773669  0  1.924839  0
O  O131  1  0.99250441  0.44812133  0.22015647  1  0  -0.797823  0  1.632203  0  0  -0.797006  0  1.917145  0  0  -0.82923  0  1.90719  0  0  -0.549758  -0.77372  0  1.924832  0
O  O132  1  0.97009582  0.21813076  0.01565697  1  0  -0.636962  0  1.404501  0  0  -0.631996  0  1.635965  0  0  -0.653225  0  1.626162  0  0  -0.500928  -0.616449  0  1.643679  0
O  O133  1  0.02990175  0.78187415  0.98434353  1  0  -0.63696  0  1.404263  0  0  -0.632006  0  1.635718  0  0  -0.653243  0  1.625933  0  0  -0.500965  -0.616449  0  1.643421  0
