# generated using pymatgen
data_Zn4H26C40I8N4O21
_symmetry_space_group_name_H-M   'P 1'
_cell_length_a   10.72656374
_cell_length_b   19.10031020
_cell_length_c   19.29217107
_cell_angle_alpha   93.79853513
_cell_angle_beta   92.75286861
_cell_angle_gamma   96.41676642
_symmetry_Int_Tables_number   1
_chemical_formula_structural   Zn4H26C40I8N4O21
_chemical_formula_sum   'Zn4 H26 C40 I8 N4 O21'
_cell_volume   3913.07351026
_cell_formula_units_Z   1
loop_
 _symmetry_equiv_pos_site_id
 _symmetry_equiv_pos_as_xyz
  1  'x, y, z'
loop_
 _atom_site_type_symbol
 _atom_site_label
 _atom_site_symmetry_multiplicity
 _atom_site_fract_x
 _atom_site_fract_y
 _atom_site_fract_z
 _atom_site_occupancy
 _atom_site_pbe_bader_charge
 _atom_site_pbe_bader_spin_density
 _atom_site_pbe_cm5_charge
 _atom_site_pbe_ddec_charge
 _atom_site_pbe_ddec_spin_density
 _atom_site_pbe_ddec_sum_bond_order
 _atom_site_pbe_magmom
Zn  Zn0  1  0.39335042  0.45007098  0.43572205  1  1.313682  0  0.672284  0.974015  0  2.352204  0
Zn  Zn1  1  0.61863555  0.57477378  0.45352035  1  1.31561  0  0.6795  0.970836  0  2.35246  0
Zn  Zn2  1  0.60621990  0.44808014  0.55754020  1  1.31682  0  0.675332  0.98232  0  2.349546  0
Zn  Zn3  1  0.41736335  0.56225232  0.56993703  1  1.311886  0  0.67364  0.970875  0  2.375961  0
H  H4  1  0.33822721  0.46635858  0.22759518  1  0.099471  0  0.109513  0.127425  0  1.024783  0
H  H5  1  0.14777948  0.48507833  0.68904413  1  0.111421  0  0.10659  0.126871  0  0.972502  0
H  H6  1  0.26264204  0.55434301  0.72587823  1  0.105484  0  0.096637  0.107818  0  0.992596  0
H  H7  1  0.84490759  0.45846684  0.23127044  1  0.01158  0  0.088558  0.080178  0  0.996684  0
H  H8  1  0.76025243  0.46920389  0.30901741  1  0.06416  0  0.08882  0.088127  0  1.027239  0
H  H9  1  0.90391830  0.52363576  0.30009557  1  0.073084  0  0.109579  0.122168  0  0.967122  0
H  H10  1  0.87996879  0.62679442  0.63796520  1  0.059791  0  0.089501  0.091176  0  1.033173  0
H  H11  1  0.94538345  0.68260607  0.57379552  1  0.07661  0  0.101072  0.107394  0  1.00622  0
H  H12  1  0.02821985  0.67986973  0.65658925  1  0.061569  0  0.115054  0.13013  0  0.959293  0
H  H13  1  0.26378695  0.86947961  0.33187556  1  0.058301  0  0.096521  0.095429  0  0.987603  0
H  H14  1  0.27332542  0.95737582  0.37393435  1  0.080671  0  0.095347  0.095624  0  1.025655  0
H  H15  1  0.71832218  0.55048036  0.10846158  1  0.113046  0  0.107906  0.131671  0  1.00927  0
H  H16  1  0.12422569  0.90415538  0.36002085  1  0.074915  0  0.112116  0.122932  0  0.961249  0
H  H17  1  0.71298502  0.71137477  0.58193074  1  0.05702  0  0.096159  0.099818  0  1.01255  0
H  H18  1  0.62356545  0.76745314  0.63332103  1  0.076222  0  0.103592  0.109193  0  0.984491  0
H  H19  1  0.79126046  0.78691904  0.63249452  1  0.052886  0  0.106765  0.109658  0  0.974939  0
H  H20  1  0.81613823  0.92395665  0.58035914  1  0.055754  0  0.102593  0.10674  0  0.997549  0
H  H21  1  0.67552114  0.93854499  0.62415811  1  0.050886  0  0.098037  0.094784  0  0.997503  0
H  H22  1  0.76869333  0.01131878  0.59082779  1  0.071223  0  0.109797  0.118278  0  0.966969  0
H  H23  1  0.90805309  0.37353152  0.51226112  1  0.083119  0  0.093872  0.100055  0  0.993438  0
H  H24  1  0.04509747  0.36332703  0.46319729  1  0.078457  0  0.09582  0.103354  0  0.997806  0
H  H25  1  0.89202913  0.35646555  0.41948740  1  0.056596  0  0.094154  0.100222  0  1.012229  0
H  H26  1  0.17478548  0.49420294  0.15706041  1  0.057376  0  0.103122  0.103707  0  0.979274  0
H  H27  1  0.11841643  0.43940382  0.08003906  1  0.056846  0  0.104902  0.113231  0  0.984283  0
H  H28  1  0.19479065  0.40176206  0.15107015  1  0.059067  0  0.104623  0.106506  0  0.974281  0
H  H29  1  0.15181071  0.51008964  0.78093239  1  0.061646  0  0.076071  0.073302  0  1.060219  0
C  C30  1  0.49777968  0.69586585  0.51161168  1  1.607939  0  0.223098  0.620858  0  4.201233  0
C  C31  1  0.47880699  0.77197355  0.50502779  1  0.045928  0  -0.028279  -0.133334  0  3.997241  0
C  C32  1  0.58086654  0.82448200  0.51980229  1  0.530785  0  0.070586  0.110255  0  4.056388  0
C  C33  1  0.50276610  0.32211949  0.47333928  1  1.625549  0  0.209675  0.600216  0  4.244329  0
C  C34  1  0.57000112  0.89467994  0.50369114  1  0.550354  0  0.090643  0.114523  0  4.020108  0
C  C35  1  0.51004577  0.48776516  0.76618047  1  -0.035362  0  -0.022564  -0.136248  0  3.948718  0
C  C36  1  0.61850269  0.50059997  0.81067515  1  -0.176745  0  -0.051743  0.020728  0  3.893692  0
C  C37  1  0.61041038  0.49668639  0.88280375  1  -0.11977  0  -0.052502  -0.040776  0  3.842187  0
C  C38  1  0.49107509  0.47881448  0.90972832  1  0.392328  0  0.07835  0.125308  0  4.021235  0
C  C39  1  0.38375912  0.46263710  0.86380362  1  -0.183188  0  -0.04809  -0.096643  0  3.855457  0
C  C40  1  0.39214055  0.46842403  0.79222179  1  0.621029  0  0.079906  0.212624  0  4.052164  0
C  C41  1  0.44802904  0.20302882  0.51892017  1  -0.202965  0  -0.052785  0.008014  0  3.881024  0
C  C42  1  0.41385182  0.48337093  0.12741184  1  0.532061  0  0.093883  0.197299  0  4.013936  0
C  C43  1  0.42071762  0.48354768  0.19981173  1  -0.041566  0  -0.104407  -0.221125  0  3.994286  0
C  C44  1  0.52465077  0.50778839  0.09403939  1  0.44474  0  0.087688  0.098698  0  4.020784  0
C  C45  1  0.52434213  0.50769305  0.31727969  1  1.528813  0  0.227036  0.614401  0  4.161599  0
C  C46  1  0.53244191  0.50564665  0.24020123  1  0.020001  0  -0.021842  -0.116156  0  3.957934  0
C  C47  1  0.64276834  0.52854125  0.20667762  1  0.594457  0  0.083508  0.23844  0  4.041291  0
C  C48  1  0.63500568  0.53121116  0.13475376  1  -0.093897  0  -0.090638  -0.24514  0  3.957308  0
C  C49  1  0.51283726  0.49360534  0.68883153  1  1.61931  0  0.224591  0.627946  0  4.190425  0
C  C50  1  0.84021021  0.53734677  0.53089280  1  1.64559  0  0.22622  0.575259  0  4.22281  0
C  C51  1  0.17684876  0.49647020  0.50315446  1  1.560599  0  0.209262  0.564119  0  4.246672  0
C  C52  1  0.44740755  0.12933081  0.51481294  1  -0.116919  0  -0.052365  -0.034875  0  3.853517  0
C  C53  1  0.04071321  0.49932138  0.50173532  1  0.522174  0  0.038199  -0.046708  0  4.044272  0
C  C54  1  0.98162728  0.54498434  0.54230200  1  0.56894  0  0.091006  0.066518  0  3.975942  0
C  C55  1  0.49766851  0.24280431  0.46580020  1  0.03445  0  -0.024538  -0.065812  0  3.949406  0
C  C56  1  0.95259327  0.38304255  0.46298666  1  0.335327  0  -0.143533  -0.169933  0  3.886312  0
C  C57  1  0.19263470  0.44915551  0.12169165  1  0.386224  0  -0.131227  -0.169768  0  3.911409  0
C  C58  1  0.20836517  0.50395372  0.73531697  1  0.266614  0  -0.146583  -0.168406  0  3.868881  0
C  C59  1  0.81902012  0.49684327  0.27186664  1  0.406996  0  -0.138939  -0.161634  0  3.924967  0
C  C60  1  0.96725597  0.64902227  0.61575460  1  0.364343  0  -0.137866  -0.194588  0  3.883968  0
C  C61  1  0.22498521  0.90342551  0.37178759  1  0.348541  0  -0.135451  -0.164685  0  3.89169  0
C  C62  1  0.70527612  0.76611518  0.60120034  1  0.374753  0  -0.136192  -0.173536  0  3.889306  0
C  C63  1  0.49799583  0.09586649  0.45667296  1  0.38276  0  0.07878  0.119282  0  4.033555  0
C  C64  1  0.73597307  0.95480003  0.58225174  1  0.383284  0  -0.133726  -0.173222  0  3.894398  0
C  C65  1  0.54524436  0.13613471  0.40293259  1  -0.142163  0  -0.053454  -0.035228  0  3.886302  0
C  C66  1  0.54501929  0.20936466  0.40737005  1  -0.179821  0  -0.052564  0.013554  0  3.898785  0
C  C67  1  0.34951313  0.85832175  0.46180863  1  0.526123  0  0.078246  0.161344  0  4.069243  0
C  C68  1  0.36350360  0.78905353  0.47712173  1  -0.159562  0  -0.063941  -0.078227  0  3.933726  0
C  C69  1  0.45377668  0.91134500  0.47390722  1  0.46668  0  0.076635  -0.018077  0  4.033212  0
I  I70  1  0.37646013  0.25870031  0.60362275  1  0.159148  0  0.087313  0.017632  0  1.505385  0
I  I71  1  0.20918700  0.42916082  0.90292893  1  0.166313  0  0.094553  -0.001379  0  1.493985  0
I  I72  1  0.77812924  0.51043190  0.94664000  1  0.148712  0  0.072304  -0.027005  0  1.581248  0
I  I73  1  0.79048944  0.52693957  0.76408296  1  0.124072  0  0.073787  -0.009992  0  1.55808  0
I  I74  1  0.21075336  0.71065319  0.45188195  1  0.140377  0  0.077067  0.004135  0  1.448944  0
I  I75  1  0.60693097  0.07939442  0.31673019  1  0.168025  0  0.077309  -0.011015  0  1.463579  0
I  I76  1  0.61866532  0.27216135  0.32989528  1  0.139264  0  0.087311  0.004048  0  1.485576  0
I  I77  1  0.38038649  0.07068599  0.59685690  1  0.163272  0  0.080789  -0.009213  0  1.531648  0
N  N78  1  0.51859311  0.02413890  0.45140518  1  -0.436194  0  -0.143127  -0.088072  0  3.33587  0
N  N79  1  0.42796727  0.98049926  0.46625666  1  -0.483459  0  -0.143032  -0.076615  0  3.395623  0
N  N80  1  0.46957288  0.47015227  0.98087148  1  -0.408401  0  -0.142862  -0.095491  0  3.278612  0
N  N81  1  0.53659234  0.51413694  0.02264613  1  -0.497621  0  -0.139271  -0.082294  0  3.351037  0
O  O82  1  0.50976862  0.50879026  0.50354745  1  -1.23378  0  -0.574658  -1.031641  0  2.533512  0
O  O83  1  0.79401406  0.58002553  0.49184555  1  -1.166926  0  -0.301291  -0.518792  0  2.324513  0
O  O84  1  0.24068210  0.52766914  0.55639050  1  -1.171578  0  -0.320431  -0.554165  0  2.418105  0
O  O85  1  0.78339020  0.48881070  0.56337449  1  -1.167041  0  -0.304154  -0.531843  0  2.377095  0
O  O86  1  0.21922851  0.46275672  0.45142940  1  -1.155765  0  -0.317929  -0.535979  0  2.347331  0
O  O87  1  0.96400014  0.45746219  0.45189099  1  -1.063583  0  -0.208398  -0.164147  0  2.559397  0
O  O88  1  0.30672629  0.46422974  0.08723388  1  -1.055167  0  -0.179629  -0.151043  0  2.644624  0
O  O89  1  0.29229247  0.45047882  0.74484040  1  -1.064504  0  -0.207883  -0.187413  0  2.528421  0
O  O90  1  0.75738287  0.55079444  0.24039212  1  -1.068174  0  -0.210829  -0.189243  0  2.52888  0
O  O91  1  0.03895903  0.59400589  0.59037053  1  -1.047668  0  -0.165619  -0.099778  0  2.603365  0
O  O92  1  0.23456317  0.87385259  0.43848122  1  -1.071241  0  -0.199566  -0.174258  0  2.60191  0
O  O93  1  0.43021910  0.47077050  0.34008654  1  -1.169396  0  -0.316592  -0.548812  0  2.343046  0
O  O94  1  0.69702896  0.81077661  0.54444234  1  -1.069259  0  -0.19232  -0.152623  0  2.574103  0
O  O95  1  0.66508934  0.94760011  0.51608976  1  -1.043082  0  -0.177225  -0.13412  0  2.615417  0
O  O96  1  0.47535476  0.54937483  0.66661443  1  -1.163007  0  -0.307323  -0.536763  0  2.322341  0
O  O97  1  0.56766001  0.67045198  0.46734050  1  -1.158909  0  -0.303291  -0.526719  0  2.319427  0
O  O98  1  0.59744889  0.35406045  0.50928890  1  -1.163193  0  -0.31378  -0.540169  0  2.347469  0
O  O99  1  0.44383593  0.66457816  0.56011763  1  -1.167915  0  -0.311095  -0.546497  0  2.361188  0
O  O100  1  0.41281278  0.34876014  0.44395220  1  -1.161451  0  -0.305861  -0.534178  0  2.351204  0
O  O101  1  0.60972253  0.54711903  0.35437823  1  -1.159303  0  -0.305804  -0.53123  0  2.367203  0
O  O102  1  0.55075923  0.44266467  0.65304057  1  -1.1625  0  -0.310025  -0.544426  0  2.361474  0
