# generated using pymatgen
data_BaH24C20N2(OF2)2
_symmetry_space_group_name_H-M   'P 1'
_cell_length_a   8.35515935
_cell_length_b   10.99199573
_cell_length_c   11.97582441
_cell_angle_alpha   103.65004504
_cell_angle_beta   93.72380849
_cell_angle_gamma   95.08395524
_symmetry_Int_Tables_number   1
_chemical_formula_structural   BaH24C20N2(OF2)2
_chemical_formula_sum   'Ba2 H48 C40 N4 O4 F8'
_cell_volume   1060.39171580
_cell_formula_units_Z   2
loop_
 _symmetry_equiv_pos_site_id
 _symmetry_equiv_pos_as_xyz
  1  'x, y, z'
loop_
 _atom_site_type_symbol
 _atom_site_label
 _atom_site_symmetry_multiplicity
 _atom_site_fract_x
 _atom_site_fract_y
 _atom_site_fract_z
 _atom_site_occupancy
 _atom_site_hle17_bader_spin_density
 _atom_site_hle17_ddec_charge
 _atom_site_hle17_ddec_spin_density
 _atom_site_hle17_ddec_sum_bond_order
 _atom_site_hle17_magmom
 _atom_site_hse06_10hf_bader_spin_density
 _atom_site_hse06_10hf_ddec_charge
 _atom_site_hse06_10hf_ddec_spin_density
 _atom_site_hse06_10hf_ddec_sum_bond_order
 _atom_site_hse06_10hf_magmom
 _atom_site_hse06_bader_spin_density
 _atom_site_hse06_ddec_charge
 _atom_site_hse06_ddec_spin_density
 _atom_site_hse06_ddec_sum_bond_order
 _atom_site_hse06_magmom
 _atom_site_pbe_bader_spin_density
 _atom_site_pbe_cm5_charge
 _atom_site_pbe_ddec_charge
 _atom_site_pbe_ddec_spin_density
 _atom_site_pbe_ddec_sum_bond_order
 _atom_site_pbe_magmom
Ba  Ba0  1  0.25680413  0.56642933  0.51193560  1  0  1.532424  0  1.218755  0  0  1.362504  0  1.614305  0  0  1.401059  0  1.578206  0  0  0.953252  1.335571  0  1.638888  0
Ba  Ba1  1  0.74319640  0.43356964  0.48806432  1  0  1.532412  0  1.218771  0  0  1.362474  0  1.614346  0  0  1.401038  0  1.57823  0  0  0.953246  1.33554  0  1.63893  0
H  H2  1  0.10516545  0.52615793  0.92954142  1  0  0.117095  0  0.951321  0  0  0.128758  0  1.013376  0  0  0.131767  0  1.011309  0  0  0.103812  0.126655  0  1.014696  0
H  H3  1  0.89483520  0.47384200  0.07045872  1  0  0.117101  0  0.951316  0  0  0.128745  0  1.013393  0  0  0.131753  0  1.011328  0  0  0.103812  0.126657  0  1.014695  0
H  H4  1  0.96056487  0.69366849  0.05419946  1  0  0.087822  0  0.98324  0  0  0.099049  0  1.0448  0  0  0.100882  0  1.045794  0  0  0.09445  0.097782  0  1.044156  0
H  H5  1  0.03943579  0.30633143  0.94580151  1  0  0.087792  0  0.983192  0  0  0.099017  0  1.044757  0  0  0.100851  0  1.045747  0  0  0.094415  0.09775  0  1.044114  0
H  H6  1  0.82403994  0.84487616  0.96062503  1  0  0.109245  0  0.955582  0  0  0.121644  0  1.016923  0  0  0.124893  0  1.014494  0  0  0.101052  0.119298  0  1.018731  0
H  H7  1  0.17595845  0.15512471  0.03937521  1  0  0.109262  0  0.955555  0  0  0.121656  0  1.0169  0  0  0.124907  0  1.014468  0  0  0.101047  0.119303  0  1.018718  0
H  H8  1  0.80168277  0.84398065  0.20600996  1  0  0.110441  0  0.953325  0  0  0.124554  0  1.011262  0  0  0.127305  0  1.009748  0  0  0.103676  0.122561  0  1.012466  0
H  H9  1  0.19831575  0.15602116  0.79399132  1  0  0.110423  0  0.953347  0  0  0.124517  0  1.01131  0  0  0.127263  0  1.0098  0  0  0.103678  0.122526  0  1.012514  0
H  H10  1  0.62438017  0.70042091  0.03973541  1  0  0.08698  0  0.980888  0  0  0.098139  0  1.042542  0  0  0.100106  0  1.043284  0  0  0.092984  0.096746  0  1.04213  0
H  H11  1  0.37562049  0.29957901  0.96026639  1  0  0.086951  0  0.980898  0  0  0.09811  0  1.042554  0  0  0.100077  0  1.043297  0  0  0.092978  0.096718  0  1.042142  0
H  H12  1  0.41750415  0.53874835  0.08272202  1  0  0.116114  0  0.947934  0  0  0.129373  0  1.006731  0  0  0.132367  0  1.004731  0  0  0.104431  0.127224  0  1.008225  0
H  H13  1  0.58249890  0.46125157  0.91727906  1  0  0.116173  0  0.947968  0  0  0.129441  0  1.006746  0  0  0.132436  0  1.004744  0  0  0.104472  0.127291  0  1.00824  0
H  H14  1  0.40731596  0.86216698  0.48627016  1  0  0.054757  0  0.940769  0  0  0.070334  0  1.004882  0  0  0.070464  0  1.005277  0  0  0.106133  0.070154  0  1.004722  0
H  H15  1  0.59268602  0.13783388  0.51373107  1  0  0.054763  0  0.940801  0  0  0.070339  0  1.004915  0  0  0.070469  0  1.005309  0  0  0.106127  0.070157  0  1.004754  0
H  H16  1  0.22110985  0.93285197  0.49412279  1  0  0.050885  0  0.930965  0  0  0.060096  0  1.000192  0  0  0.061865  0  0.997775  0  0  0.094385  0.05873  0  1.002024  0
H  H17  1  0.77888721  0.06714795  0.50587802  1  0  0.050875  0  0.931033  0  0  0.06011  0  1.000229  0  0  0.06188  0  0.997812  0  0  0.094391  0.058743  0  1.002059  0
H  H18  1  0.34606044  0.02842163  0.35296980  1  0  0.086755  0  0.943155  0  0  0.101346  0  1.006654  0  0  0.102947  0  1.005486  0  0  0.093522  0.100128  0  1.007579  0
H  H19  1  0.65393782  0.97157830  0.64703022  1  0  0.08674  0  0.943168  0  0  0.101326  0  1.006678  0  0  0.102928  0  1.005511  0  0  0.093518  0.100108  0  1.007603  0
H  H20  1  0.43416996  0.88781112  0.29220028  1  0  0.0669  0  0.968068  0  0  0.083639  0  1.034182  0  0  0.082928  0  1.037334  0  0  0.086446  0.083992  0  1.032178  0
H  H21  1  0.56582963  0.11218975  0.70779917  1  0  0.066881  0  0.968089  0  0  0.083627  0  1.03419  0  0  0.082914  0  1.037349  0  0  0.086431  0.083983  0  1.032182  0
H  H22  1  0.18859935  0.86738654  0.16103531  1  0  0.075366  0  0.939562  0  0  0.097564  0  0.994559  0  0  0.097917  0  0.995623  0  0  0.09276  0.097277  0  0.993854  0
H  H23  1  0.81140011  0.13261338  0.83896477  1  0  0.075428  0  0.939482  0  0  0.09757  0  0.994529  0  0  0.097922  0  0.995593  0  0  0.092777  0.097283  0  0.993824  0
H  H24  1  0.07516548  0.92829758  0.27851170  1  0  0.071392  0  0.936085  0  0  0.086763  0  0.99861  0  0  0.088193  0  0.997961  0  0  0.088099  0.085657  0  0.999201  0
H  H25  1  0.92483145  0.07170141  0.72148807  1  0  0.071382  0  0.936136  0  0  0.086756  0  0.998634  0  0  0.088186  0  0.997985  0  0  0.08811  0.08565  0  0.999226  0
H  H26  1  0.01200982  0.70769587  0.26870529  1  0  0.051795  0  0.967213  0  0  0.058866  0  1.044217  0  0  0.06008  0  1.04237  0  0  0.094255  0.058199  0  1.04517  0
H  H27  1  0.98798951  0.29230311  0.73129541  1  0  0.051872  0  0.967126  0  0  0.058882  0  1.044217  0  0  0.060095  0  1.042373  0  0  0.094263  0.058215  0  1.045172  0
H  H28  1  0.20082668  0.66997189  0.21444168  1  0  0.042657  0  0.953136  0  0  0.054648  0  1.023727  0  0  0.054657  0  1.023996  0  0  0.092058  0.054549  0  1.023633  0
H  H29  1  0.79917411  0.33002897  0.78555949  1  0  0.042636  0  0.953148  0  0  0.054648  0  1.023723  0  0  0.054657  0  1.023993  0  0  0.092064  0.054549  0  1.02363  0
H  H30  1  0.55156856  0.70443528  0.79435630  1  0  0.058298  0  0.959116  0  0  0.065042  0  1.032765  0  0  0.066278  0  1.031164  0  0  0.098212  0.064025  0  1.034069  0
H  H31  1  0.44843329  0.29556464  0.20564222  1  0  0.058364  0  0.959094  0  0  0.065064  0  1.032772  0  0  0.066298  0  1.031172  0  0  0.098214  0.064048  0  1.034073  0
H  H32  1  0.36077630  0.65926714  0.84123044  1  0  0.043765  0  0.949741  0  0  0.054896  0  1.020418  0  0  0.05522  0  1.020205  0  0  0.09347  0.054665  0  1.020428  0
H  H33  1  0.63922542  0.34073184  0.15876787  1  0  0.043753  0  0.94978  0  0  0.054885  0  1.020445  0  0  0.055209  0  1.020231  0  0  0.093455  0.054654  0  1.020456  0
H  H34  1  0.44391523  0.84558619  0.99332187  1  0  0.075836  0  0.946792  0  0  0.096137  0  1.004975  0  0  0.096363  0  1.006302  0  0  0.094142  0.095939  0  1.004085  0
H  H35  1  0.55608529  0.15441279  0.00667721  1  0  0.075839  0  0.946781  0  0  0.096142  0  1.004974  0  0  0.096368  0  1.006301  0  0  0.094141  0.095944  0  1.004084  0
H  H36  1  0.55323438  0.91911328  0.89950394  1  0  0.073376  0  0.935455  0  0  0.092909  0  0.992589  0  0  0.093601  0  0.993299  0  0  0.092196  0.092313  0  0.992257  0
H  H37  1  0.44676508  0.08088664  0.10049531  1  0  0.073385  0  0.935422  0  0  0.092936  0  0.992547  0  0  0.093628  0  0.993255  0  0  0.092192  0.092339  0  0.992218  0
H  H38  1  0.30282999  0.01890307  0.90190144  1  0  0.068213  0  0.96556  0  0  0.087661  0  1.028836  0  0  0.087609  0  1.029682  0  0  0.090728  0.087624  0  1.028296  0
H  H39  1  0.69716827  0.98109685  0.09809942  1  0  0.068228  0  0.96561  0  0  0.087679  0  1.028877  0  0  0.087618  0  1.029732  0  0  0.090729  0.087641  0  1.028337  0
H  H40  1  0.18450446  0.87456446  0.89897429  1  0  0.073693  0  0.968397  0  0  0.088685  0  1.033627  0  0  0.088314  0  1.03639  0  0  0.087397  0.088849  0  1.031802  0
H  H41  1  0.81549448  0.12543170  0.10102495  1  0  0.073729  0  0.968378  0  0  0.08872  0  1.033608  0  0  0.088351  0  1.036367  0  0  0.087414  0.088886  0  1.031784  0
H  H42  1  0.16704980  0.86629310  0.69385869  1  0  0.059997  0  0.938358  0  0  0.071159  0  1.005531  0  0  0.071895  0  1.004892  0  0  0.104989  0.070537  0  1.006107  0
H  H43  1  0.83294819  0.13370494  0.30614092  1  0  0.059982  0  0.938403  0  0  0.07116  0  1.005554  0  0  0.071896  0  1.004918  0  0  0.10501  0.070535  0  1.006128  0
H  H44  1  0.36691329  0.94497447  0.70532305  1  0  0.040845  0  0.949309  0  0  0.051968  0  1.022197  0  0  0.052459  0  1.021895  0  0  0.094238  0.051518  0  1.022506  0
H  H45  1  0.63308775  0.05502827  0.29467521  1  0  0.040842  0  0.949344  0  0  0.05195  0  1.02224  0  0  0.052438  0  1.021944  0  0  0.094237  0.051499  0  1.022543  0
H  H46  1  0.64541576  0.71822145  0.52773203  1  0  0.271129  0  0.971301  0  0  0.260233  0  1.041132  0  0  0.267309  0  1.03507  0  0  0.2659  0.255158  0  1.045571  0
H  H47  1  0.35458490  0.28177847  0.47226977  1  0  0.27113  0  0.971305  0  0  0.260231  0  1.041138  0  0  0.267306  0  1.035079  0  0  0.265909  0.255156  0  1.045578  0
H  H48  1  0.91565547  0.72049713  0.57598926  1  0  0.273346  0  0.969738  0  0  0.261833  0  1.039608  0  0  0.269187  0  1.033018  0  0  0.265984  0.256574  0  1.044351  0
H  H49  1  0.08434506  0.27950185  0.42401067  1  0  0.273325  0  0.969746  0  0  0.261812  0  1.039618  0  0  0.269166  0  1.033027  0  0  0.265978  0.256554  0  1.044359  0
C  C50  1  0.96255816  0.66402384  0.71650436  1  0  0.112568  0  4.04878  0  0  0.091395  0  4.316202  0  0  0.100602  0  4.336707  0  0  0.068697  0.085568  0  4.30132  0
C  C51  1  0.03744130  0.33597608  0.28349572  1  0  0.112635  0  4.048772  0  0  0.091425  0  4.316239  0  0  0.100634  0  4.336741  0  0  0.068699  0.085598  0  4.301358  0
C  C52  1  0.03888731  0.58495813  0.77665035  1  0  0.192022  0  3.719563  0  0  0.177955  0  4.007632  0  0  0.185899  0  4.017272  0  0  0.081682  0.173538  0  4.000371  0
C  C53  1  0.96111202  0.41504085  0.22334952  1  0  0.191999  0  3.719631  0  0  0.177953  0  4.007687  0  0  0.185895  0  4.017328  0  0  0.081692  0.173534  0  4.000432  0
C  C54  1  0.04123578  0.59231765  0.89341590  1  0  -0.193051  0  3.841551  0  0  -0.226504  0  4.110411  0  0  -0.225818  0  4.126573  0  0  -0.11681  -0.226306  0  4.098396  0
C  C55  1  0.95876754  0.40768415  0.10658476  1  0  -0.193024  0  3.841606  0  0  -0.226469  0  4.110464  0  0  -0.225783  0  4.126626  0  0  -0.116803  -0.226283  0  4.098443  0
C  C56  1  0.96246337  0.68610713  0.96215868  1  0  -0.105627  0  3.853272  0  0  -0.116967  0  4.117791  0  0  -0.121841  0  4.141803  0  0  -0.125782  -0.1137  0  4.101436  0
C  C57  1  0.03753595  0.31389185  0.03784202  1  0  -0.105652  0  3.853295  0  0  -0.116982  0  4.117821  0  0  -0.121853  0  4.141831  0  0  -0.125749  -0.113716  0  4.101467  0
C  C58  1  0.88506578  0.76947752  0.91035511  1  0  -0.197083  0  3.857501  0  0  -0.2319  0  4.129038  0  0  -0.231621  0  4.146012  0  0  -0.12021  -0.231859  0  4.117663  0
C  C59  1  0.11493501  0.23052334  0.08964524  1  0  -0.196979  0  3.857415  0  0  -0.231785  0  4.128936  0  0  -0.231507  0  4.14591  0  0  -0.120157  -0.231738  0  4.117563  0
C  C60  1  0.88696364  0.75664770  0.79273524  1  0  0.183976  0  3.75199  0  0  0.17239  0  4.040888  0  0  0.178122  0  4.051552  0  0  0.073455  0.168046  0  4.034051  0
C  C61  1  0.11303702  0.24335222  0.20726490  1  0  0.18388  0  3.751939  0  0  0.172305  0  4.040849  0  0  0.178034  0  4.051519  0  0  0.073428  0.167962  0  4.034009  0
C  C62  1  0.58872661  0.66718910  0.36146696  1  0  0.116753  0  4.035866  0  0  0.095056  0  4.303149  0  0  0.10432  0  4.323901  0  0  0.070534  0.089105  0  4.288493  0
C  C63  1  0.41127298  0.33281176  0.63853417  1  0  0.116592  0  4.035959  0  0  0.094944  0  4.303158  0  0  0.104208  0  4.32391  0  0  0.070493  0.088993  0  4.288504  0
C  C64  1  0.69792732  0.75806103  0.33070358  1  0  0.190457  0  3.735374  0  0  0.179486  0  4.024638  0  0  0.186015  0  4.03351  0  0  0.074985  0.174795  0  4.01848  0
C  C65  1  0.30207120  0.24194078  0.66929770  1  0  0.190462  0  3.735462  0  0  0.179494  0  4.024674  0  0  0.186024  0  4.033544  0  0  0.074971  0.174799  0  4.018522  0
C  C66  1  0.71196233  0.77199779  0.21980032  1  0  -0.200541  0  3.860872  0  0  -0.23736  0  4.138115  0  0  -0.23688  0  4.154978  0  0  -0.121583  -0.2374  0  4.12657  0
C  C67  1  0.28803833  0.22800213  0.78020065  1  0  -0.200496  0  3.860889  0  0  -0.237308  0  4.138129  0  0  -0.236823  0  4.154989  0  0  -0.121569  -0.237349  0  4.126588  0
C  C68  1  0.61247707  0.69264554  0.12773646  1  0  -0.108784  0  3.85793  0  0  -0.121045  0  4.126793  0  0  -0.125908  0  4.15051  0  0  -0.127421  -0.117763  0  4.110569  0
C  C69  1  0.38752132  0.30735532  0.87226461  1  0  -0.108756  0  3.857935  0  0  -0.121011  0  4.126792  0  0  -0.125875  0  4.150511  0  0  -0.127432  -0.117729  0  4.11057  0
C  C70  1  0.49956863  0.60163534  0.15072115  1  0  -0.194089  0  3.84976  0  0  -0.226868  0  4.117139  0  0  -0.226669  0  4.134666  0  0  -0.116824  -0.226733  0  4.105229  0
C  C71  1  0.50043430  0.39836364  0.84927972  1  0  -0.194162  0  3.849845  0  0  -0.226963  0  4.117241  0  0  -0.226766  0  4.134769  0  0  -0.11687  -0.226826  0  4.105332  0
C  C72  1  0.49154328  0.59262908  0.26329602  1  0  0.191773  0  3.718688  0  0  0.17938  0  4.0062  0  0  0.185308  0  4.017066  0  0  0.081628  0.175  0  3.998962  0
C  C73  1  0.50845738  0.40737084  0.73670495  1  0  0.191844  0  3.718598  0  0  0.179436  0  4.00609  0  0  0.185365  0  4.016956  0  0  0.081652  0.175058  0  3.998851  0
C  C74  1  0.29688929  0.87391974  0.43654124  1  0  0.093185  0  3.602481  0  0  0.037777  0  3.87417  0  0  0.044381  0  3.880553  0  0  -0.069571  0.033356  0  3.86978  0
C  C75  1  0.70311004  0.12607924  0.56345780  1  0  0.093141  0  3.602469  0  0  0.037718  0  3.874166  0  0  0.044322  0  3.880548  0  0  -0.069587  0.033303  0  3.86977  0
C  C76  1  0.32783600  0.92525979  0.33169780  1  0  -0.150835  0  3.683734  0  0  -0.191741  0  3.945149  0  0  -0.193579  0  3.959051  0  0  -0.170709  -0.190299  0  3.935591  0
C  C77  1  0.67216466  0.07474013  0.66830400  1  0  -0.150768  0  3.683649  0  0  -0.191681  0  3.945059  0  0  -0.193521  0  3.958964  0  0  -0.170685  -0.190239  0  3.9355  0
C  C78  1  0.17404373  0.87116420  0.25215279  1  0  -0.140963  0  3.690455  0  0  -0.182893  0  3.952651  0  0  -0.185036  0  3.966472  0  0  -0.169161  -0.181275  0  3.943095  0
C  C79  1  0.82595731  0.12883855  0.74784798  1  0  -0.141052  0  3.690417  0  0  -0.182896  0  3.952579  0  0  -0.185038  0  3.966399  0  0  -0.169208  -0.181278  0  3.943025  0
C  C80  1  0.14074164  0.74032189  0.27372492  1  0  0.087827  0  3.595417  0  0  0.031987  0  3.866503  0  0  0.039506  0  3.871876  0  0  -0.074183  0.027098  0  3.862406  0
C  C81  1  0.85925807  0.25967992  0.72627141  1  0  0.08781  0  3.595331  0  0  0.031954  0  3.866493  0  0  0.039476  0  3.87186  0  0  -0.07422  0.027065  0  3.862399  0
C  C82  1  0.43333060  0.73486584  0.81518977  1  0  0.088706  0  3.592575  0  0  0.034344  0  3.861148  0  0  0.041772  0  3.866185  0  0  -0.071725  0.029459  0  3.85753  0
C  C83  1  0.56667125  0.26513408  0.18480958  1  0  0.088644  0  3.592651  0  0  0.034333  0  3.861205  0  0  0.041762  0  3.86624  0  0  -0.071719  0.029448  0  3.857588  0
C  C84  1  0.44303644  0.85923588  0.90543548  1  0  -0.145861  0  3.692047  0  0  -0.186042  0  3.949574  0  0  -0.188317  0  3.963597  0  0  -0.168702  -0.18434  0  3.939849  0
C  C85  1  0.55696289  0.14076310  0.09456439  1  0  -0.145875  0  3.692041  0  0  -0.186093  0  3.949589  0  0  -0.188368  0  3.96361  0  0  -0.168709  -0.18439  0  3.939865  0
C  C86  1  0.29313453  0.91632721  0.86919068  1  0  -0.151066  0  3.693032  0  0  -0.192038  0  3.948079  0  0  -0.19372  0  3.962568  0  0  -0.170836  -0.190691  0  3.938059  0
C  C87  1  0.70686466  0.08367083  0.13080731  1  0  -0.151129  0  3.693091  0  0  -0.192093  0  3.948121  0  0  -0.193769  0  3.962609  0  0  -0.170845  -0.190751  0  3.938101  0
C  C88  1  0.28864561  0.87785280  0.73829837  1  0  0.093417  0  3.60642  0  0  0.038092  0  3.878493  0  0  0.04485  0  3.884774  0  0  -0.068539  0.033575  0  3.874186  0
C  C89  1  0.71135371  0.12214618  0.26169983  1  0  0.093442  0  3.606458  0  0  0.038128  0  3.878521  0  0  0.044886  0  3.884796  0  0  -0.068588  0.033622  0  3.874201  0
N  N90  1  0.96657613  0.64847897  0.60066518  1  0  -0.884681  0  2.929808  0  0  -0.841981  0  3.206598  0  0  -0.866579  0  3.207754  0  0  -0.701657  -0.824272  0  3.204677  0
N  N91  1  0.03342453  0.35152095  0.39933579  1  0  -0.884711  0  2.929813  0  0  -0.842009  0  3.20664  0  0  -0.866607  0  3.207794  0  0  -0.701674  -0.8243  0  3.204719  0
N  N92  1  0.57361646  0.64885704  0.46886016  1  0  -0.884063  0  2.921988  0  0  -0.84068  0  3.196972  0  0  -0.865655  0  3.199125  0  0  -0.695591  -0.823023  0  3.194932  0
N  N93  1  0.42638420  0.35114288  0.53114164  1  0  -0.883983  0  2.921991  0  0  -0.840623  0  3.196959  0  0  -0.865597  0  3.199108  0  0  -0.695586  -0.822965  0  3.194921  0
O  O94  1  0.20996485  0.74958899  0.39071549  1  0  -0.381818  0  2.191569  0  0  -0.300484  0  2.441566  0  0  -0.317527  0  2.441499  0  0  -0.280513  -0.288398  0  2.441114  0
O  O95  1  0.79003592  0.25041187  0.60928068  1  0  -0.381784  0  2.191515  0  0  -0.300435  0  2.44151  0  0  -0.317479  0  2.441444  0  0  -0.280458  -0.288351  0  2.441057  0
O  O96  1  0.35170246  0.75620694  0.71125939  1  0  -0.378916  0  2.193416  0  0  -0.298981  0  2.44452  0  0  -0.315926  0  2.444591  0  0  -0.279177  -0.286952  0  2.443921  0
O  O97  1  0.64829806  0.24379204  0.28873886  1  0  -0.378896  0  2.193412  0  0  -0.298966  0  2.444493  0  0  -0.315917  0  2.444577  0  0  -0.279143  -0.286941  0  2.443893  0
F  F98  1  0.12104577  0.49354476  0.70921857  1  0  -0.243121  0  1.23611  0  0  -0.165759  0  1.397338  0  0  -0.184879  0  1.398332  0  0  -0.093075  -0.157044  0  1.401905  0
F  F99  1  0.87895475  0.50645422  0.29078135  1  0  -0.243118  0  1.236109  0  0  -0.165763  0  1.397341  0  0  -0.184884  0  1.398334  0  0  -0.093079  -0.157048  0  1.401909  0
F  F100  1  0.81002674  0.83940531  0.74269243  1  0  -0.222079  0  1.211297  0  0  -0.152976  0  1.363167  0  0  -0.162793  0  1.353715  0  0  -0.098084  -0.145823  0  1.369645  0
F  F101  1  0.18997259  0.16059367  0.25730827  1  0  -0.222094  0  1.211292  0  0  -0.152994  0  1.363161  0  0  -0.162808  0  1.353716  0  0  -0.0981  -0.145841  0  1.36964  0
F  F102  1  0.79822270  0.83612981  0.42036795  1  0  -0.221172  0  1.185126  0  0  -0.160793  0  1.341013  0  0  -0.170891  0  1.331717  0  0  -0.101477  -0.15348  0  1.34735  0
F  F103  1  0.20177582  0.16387200  0.57963417  1  0  -0.221175  0  1.185178  0  0  -0.160785  0  1.341039  0  0  -0.170883  0  1.331741  0  0  -0.101468  -0.153468  0  1.347376  0
F  F104  1  0.37623271  0.50353011  0.28532331  1  0  -0.246058  0  1.237768  0  0  -0.170642  0  1.401639  0  0  -0.18279  0  1.39467  0  0  -0.097915  -0.161903  0  1.406415  0
F  F105  1  0.62376794  0.49646981  0.71467515  1  0  -0.246069  0  1.237741  0  0  -0.170641  0  1.401606  0  0  -0.182792  0  1.394636  0  0  -0.097901  -0.161902  0  1.406382  0
