# generated using pymatgen
data_CoH13C20N7O4
_symmetry_space_group_name_H-M   'P 1'
_cell_length_a   10.06720924
_cell_length_b   10.10621388
_cell_length_c   14.09446624
_cell_angle_alpha   80.34342882
_cell_angle_beta   78.26586627
_cell_angle_gamma   69.35725097
_symmetry_Int_Tables_number   1
_chemical_formula_structural   CoH13C20N7O4
_chemical_formula_sum   'Co2 H26 C40 N14 O8'
_cell_volume   1306.64099736
_cell_formula_units_Z   2
loop_
 _symmetry_equiv_pos_site_id
 _symmetry_equiv_pos_as_xyz
  1  'x, y, z'
loop_
 _atom_site_type_symbol
 _atom_site_label
 _atom_site_symmetry_multiplicity
 _atom_site_fract_x
 _atom_site_fract_y
 _atom_site_fract_z
 _atom_site_occupancy
 _atom_site_pbe_cm5_charge
 _atom_site_pbe_ddec_charge
 _atom_site_pbe_ddec_spin_density
 _atom_site_pbe_ddec_sum_bond_order
 _atom_site_pbe_magmom
Co  Co0  1  0.86834475  0.39521534  0.97551965  1  0.696781  0.9005  2.885846  2.52272  2.612
Co  Co1  1  0.13165221  0.60478728  0.02447600  1  0.696857  0.900524  2.885979  2.52289  2.611
H  H2  1  0.53160575  0.25050159  0.86679024  1  0.110113  0.122868  0.000113  1.018267  0.0
H  H3  1  0.46839066  0.74949042  0.13321031  1  0.110075  0.122871  0.000113  1.018186  0.0
H  H4  1  0.57300139  0.80632159  0.88714839  1  0.107931  0.120185  7.9e-05  1.012916  0.0
H  H5  1  0.42699397  0.19367360  0.11285264  1  0.107909  0.120082  7.9e-05  1.013028  0.0
H  H6  1  0.90283022  0.92746949  0.96646667  1  0.111788  0.138884  0.00022  1.029016  0.0
H  H7  1  0.09716164  0.07253634  0.03353999  1  0.111825  0.13888  0.00022  1.029012  0.0
H  H8  1  0.56111721  0.50648591  0.06716879  1  0.122918  0.107639  0.000457  1.007188  0.001
H  H9  1  0.43889475  0.49350816  0.93282925  1  0.122962  0.107733  0.000458  1.007055  0.001
H  H10  1  0.41115721  0.51080375  0.23025521  1  0.109378  0.119118  0.000381  1.022574  0.0
H  H11  1  0.58885023  0.48920096  0.76974079  1  0.109358  0.119122  0.000382  1.022591  0.0
H  H12  1  0.80066557  0.26923292  0.35009441  1  0.107381  0.111605  0.000424  0.991278  0.0
H  H13  1  0.19933307  0.73077077  0.64989874  1  0.107369  0.111592  0.000424  0.991115  0.0
H  H14  1  0.93472310  0.27477081  0.18035133  1  0.117811  0.09297  0.000316  1.005035  0.001
H  H15  1  0.06527471  0.72521695  0.81964173  1  0.117826  0.092969  0.000316  1.00508  0.001
H  H16  1  0.57746505  0.32452590  0.46233464  1  0.113976  0.077302  -2.8e-05  0.980305  0.0
H  H17  1  0.42256200  0.67545323  0.53768358  1  0.114009  0.077362  -2.9e-05  0.98089  0.0
H  H18  1  0.12940316  0.55234385  0.49088027  1  0.111395  0.074918  -2.9e-05  0.998723  0.0
H  H19  1  0.87057420  0.44768435  0.50910169  1  0.11158  0.0752  -2.9e-05  0.999231  0.0
H  H20  1  0.30092757  0.29273160  0.69901699  1  0.106063  0.108627  0.000363  1.035423  0.0
H  H21  1  0.69906502  0.70726892  0.30098452  1  0.106036  0.108522  0.000363  1.035452  0.0
H  H22  1  0.16354872  0.26733204  0.86515553  1  0.116803  0.082477  9.2e-05  1.037817  0.001
H  H23  1  0.83643655  0.73265683  0.13484205  1  0.116811  0.082477  9.2e-05  1.037834  0.001
H  H24  1  0.79079723  0.56945130  0.78625404  1  0.120586  0.094296  0.000343  0.998469  0.001
H  H25  1  0.20920269  0.43053008  0.21374373  1  0.12065  0.094383  0.000342  0.998293  0.001
H  H26  1  0.91091248  0.60775582  0.61572983  1  0.107214  0.114587  0.000453  1.003707  0.0
H  H27  1  0.08909136  0.39223828  0.38427223  1  0.107162  0.114552  0.000453  1.00371  0.0
C  C28  1  0.72324545  0.10014962  0.91745991  1  -0.018017  -0.011844  0.00255  3.989752  0.004
C  C29  1  0.27674006  0.89984773  0.08254372  1  -0.018055  -0.011999  0.00255  3.989921  0.004
C  C30  1  0.59290764  0.13880734  0.88252223  1  -0.077674  -0.160062  -0.004176  3.909164  -0.002
C  C31  1  0.40708221  0.86119531  0.11748084  1  -0.077599  -0.159972  -0.004179  3.90883  -0.002
C  C32  1  0.54035819  0.03334556  0.86930861  1  0.092101  0.187122  0.000698  4.122461  0.002
C  C33  1  0.45963878  0.96665706  0.13069343  1  0.092165  0.18717  0.000698  4.122316  0.002
C  C34  1  0.61497433  0.88979722  0.89342988  1  -0.089905  -0.191855  -0.004824  3.952917  -0.003
C  C35  1  0.38502029  0.11020329  0.10656921  1  -0.089899  -0.191753  -0.004826  3.953007  -0.003
C  C36  1  0.74560212  0.85173949  0.92821014  1  -0.022098  -0.027589  0.004989  4.011866  0.008
C  C37  1  0.25439555  0.14826101  0.07179063  1  -0.022078  -0.027582  0.004987  4.011988  0.008
C  C38  1  0.80130403  0.95639808  0.93913862  1  -0.082322  -0.128365  -0.002334  3.897444  -0.001
C  C39  1  0.19868716  0.04360669  0.06086613  1  -0.082343  -0.128319  -0.002335  3.89738  -0.001
C  C40  1  0.77724992  0.21309173  0.93423769  1  0.192632  0.538494  -0.007397  4.218982  -0.007
C  C41  1  0.22275627  0.78690448  0.06576591  1  0.19262  0.538556  -0.007401  4.218966  -0.007
C  C42  1  0.82369535  0.69772145  0.95464048  1  0.216545  0.574436  -0.005578  4.184509  -0.001
C  C43  1  0.17631497  0.30226838  0.04536044  1  0.216462  0.574372  -0.005573  4.184625  -0.001
C  C44  1  0.61013115  0.45439017  0.13161454  1  0.047365  0.094895  -0.00761  3.920488  -0.004
C  C45  1  0.38987117  0.54561774  0.86838396  1  0.047316  0.094834  -0.007607  3.920375  -0.004
C  C46  1  0.52669682  0.45638160  0.22303655  1  -0.076544  -0.151404  0.000484  3.901431  0.002
C  C47  1  0.47330784  0.54362843  0.77695851  1  -0.076603  -0.151652  0.000481  3.901338  0.002
C  C48  1  0.59348863  0.38826186  0.30495794  1  0.001162  0.092318  -0.012142  4.037673  -0.007
C  C49  1  0.40652689  0.61174602  0.69502658  1  0.001271  0.092558  -0.012142  4.037577  -0.006
C  C50  1  0.74332892  0.32339097  0.28926380  1  -0.082611  -0.172202  -0.000364  3.971475  0.002
C  C51  1  0.25668637  0.67660840  0.71073241  1  -0.082595  -0.172121  -0.000368  3.97113  0.002
C  C52  1  0.81879827  0.32583983  0.19530115  1  0.047482  0.104062  -0.009621  3.950706  -0.005
C  C53  1  0.18120721  0.67415851  0.80469945  1  0.047466  0.103944  -0.009627  3.950566  -0.005
C  C54  1  0.51511154  0.37838367  0.40294971  1  0.075436  0.059788  -0.01569  3.923173  -0.008
C  C55  1  0.48487843  0.62163704  0.59704125  1  0.075359  0.059628  -0.015702  3.924319  -0.008
C  C56  1  0.19033680  0.47335875  0.54386090  1  0.063888  0.029421  -0.012527  3.947872  -0.006
C  C57  1  0.80968467  0.52663420  0.45615008  1  0.063588  0.028976  -0.012535  3.949045  -0.006
C  C58  1  0.11743115  0.45286504  0.64256276  1  -0.000646  0.097183  -0.016566  4.041661  -0.009
C  C59  1  0.88256082  0.54713121  0.35745709  1  -0.000598  0.097162  -0.016566  4.041761  -0.009
C  C60  1  0.18776698  0.35538100  0.71507016  1  -0.079668  -0.156589  -0.000116  3.922612  0.002
C  C61  1  0.81223311  0.64461524  0.28493432  1  -0.079546  -0.156269  -0.000118  3.922052  0.002
C  C62  1  0.11183763  0.34142795  0.80762265  1  0.045239  0.1031  -0.009748  3.927832  -0.005
C  C63  1  0.88816456  0.65856192  0.19237378  1  0.045155  0.102912  -0.009747  3.927726  -0.005
C  C64  1  0.90362785  0.51043604  0.76348939  1  0.047008  0.097077  -0.012304  3.942698  -0.007
C  C65  1  0.09636750  0.48955916  0.23650668  1  0.046939  0.097065  -0.012308  3.942592  -0.007
C  C66  1  0.97163725  0.53119339  0.66875688  1  -0.084672  -0.179591  0.000567  3.95611  0.003
C  C67  1  0.02835464  0.46880925  0.33124518  1  -0.08473  -0.17974  0.000564  3.956058  0.003
N  N68  1  0.40868330  0.08123709  0.83263818  1  -0.153669  -0.231206  9.8e-05  3.283339  0.0
N  N69  1  0.59130995  0.91876449  0.16736239  1  -0.153724  -0.231229  9.8e-05  3.283308  0.0
N  N70  1  0.35331555  0.99419544  0.82294498  1  0.142742  0.36281  -8e-06  4.285122  0.0
N  N71  1  0.64667805  0.00580507  0.17705497  1  0.142644  0.362647  -8e-06  4.285182  0.0
N  N72  1  0.28845294  0.92701366  0.81033388  1  -0.065187  -0.186228  5.1e-05  2.555535  0.0
N  N73  1  0.71153691  0.07298900  0.18966493  1  -0.065076  -0.18608  5.1e-05  2.555653  0.0
N  N74  1  0.75433621  0.38970588  0.11709898  1  -0.320615  -0.244294  0.027102  3.566961  0.047
N  N75  1  0.24566275  0.61029992  0.88290522  1  -0.320674  -0.244249  0.027106  3.56695  0.047
N  N76  1  0.37580896  0.42826890  0.42155020  1  -0.216897  -0.179639  -0.007492  3.321859  -0.005
N  N77  1  0.62416994  0.57177309  0.57844336  1  -0.216856  -0.179594  -0.007499  3.322759  -0.005
N  N78  1  0.32431334  0.40016585  0.51851739  1  -0.214013  -0.168074  -0.012933  3.3507  -0.009
N  N79  1  0.67572330  0.59983341  0.48149702  1  -0.21394  -0.167888  -0.012944  3.351241  -0.009
N  N80  1  0.97207776  0.41793391  0.83280467  1  -0.322238  -0.238034  0.02516  3.565916  0.044
N  N81  1  0.02792713  0.58205701  0.16718911  1  -0.32218  -0.237924  0.025162  3.565943  0.044
O  O82  1  0.90264000  0.17853953  0.95644334  1  -0.302702  -0.525609  0.04935  2.247694  0.084
O  O83  1  0.09736668  0.82144288  0.04355900  1  -0.302739  -0.525696  0.049375  2.247508  0.084
O  O84  1  0.69737449  0.34375493  0.92820633  1  -0.308273  -0.542238  0.045191  2.202376  0.076
O  O85  1  0.30262485  0.65624662  0.07178981  1  -0.308264  -0.542163  0.045188  2.202437  0.076
O  O86  1  0.95288395  0.66166323  0.96892564  1  -0.309346  -0.572666  0.050836  2.547897  0.082
O  O87  1  0.04712622  0.33833934  0.03107236  1  -0.309317  -0.57271  0.050827  2.547785  0.082
O  O88  1  0.75703271  0.60942453  0.96001193  1  -0.304646  -0.539214  0.04528  2.351127  0.071
O  O89  1  0.24295785  0.39057599  0.03999129  1  -0.304592  -0.539128  0.045285  2.35128  0.071
