# generated using pymatgen
data_LaH6(CO)8
_symmetry_space_group_name_H-M   'P 1'
_cell_length_a   9.08616661
_cell_length_b   9.08616135
_cell_length_c   12.89918644
_cell_angle_alpha   83.78277468
_cell_angle_beta   83.78273181
_cell_angle_gamma   86.61054592
_symmetry_Int_Tables_number   1
_chemical_formula_structural   LaH6(CO)8
_chemical_formula_sum   'La4 H24 C32 O32'
_cell_volume   1051.23477173
_cell_formula_units_Z   4
loop_
 _symmetry_equiv_pos_site_id
 _symmetry_equiv_pos_as_xyz
  1  'x, y, z'
loop_
 _atom_site_type_symbol
 _atom_site_label
 _atom_site_symmetry_multiplicity
 _atom_site_fract_x
 _atom_site_fract_y
 _atom_site_fract_z
 _atom_site_occupancy
 _atom_site_pbe_bader_spin_density
 _atom_site_pbe_cm5_charge
 _atom_site_pbe_ddec_charge
 _atom_site_pbe_ddec_spin_density
 _atom_site_pbe_ddec_sum_bond_order
 _atom_site_pbe_magmom
La  La0  1  0.73985780  0.80891800  0.77642992  1  0  1.43149  1.852908  0  2.520919  0
La  La1  1  0.19108071  0.26014663  0.72357038  1  0  1.431503  1.852827  0  2.521186  0
La  La2  1  0.26014400  0.19107518  0.22356784  1  0  1.431504  1.852802  0  2.521186  0
La  La3  1  0.80892704  0.73986095  0.27642659  1  0  1.431531  1.852891  0  2.520942  0
H  H4  1  0.44838873  0.82139126  0.02222957  1  0  0.110214  0.075043  0  0.97395  0
H  H5  1  0.17861782  0.55161283  0.47777634  1  0  0.110274  0.075128  0  0.973929  0
H  H6  1  0.55161697  0.17861300  0.97777479  1  0  0.110257  0.075114  0  0.973893  0
H  H7  1  0.82138921  0.44838700  0.52222903  1  0  0.110205  0.075032  0  0.973871  0
H  H8  1  0.40458078  0.62908564  0.03461099  1  0  0.101961  0.070093  0  1.000562  0
H  H9  1  0.37092403  0.59542168  0.46539243  1  0  0.101954  0.070142  0  1.000588  0
H  H10  1  0.59542713  0.37091862  0.96539087  1  0  0.101968  0.070136  0  1.000573  0
H  H11  1  0.62908188  0.40457815  0.53461302  1  0  0.101946  0.070112  0  1.000551  0
H  H12  1  0.26561953  0.78607179  0.90086650  1  0  0.108587  0.083457  0  0.988278  0
H  H13  1  0.21393461  0.73438029  0.59913756  1  0  0.108558  0.083429  0  0.988291  0
H  H14  1  0.73438627  0.21393025  0.09913724  1  0  0.108562  0.083412  0  0.98824  0
H  H15  1  0.78607142  0.26561733  0.40086806  1  0  0.10859  0.083441  0  0.988274  0
H  H16  1  0.38179210  0.64186273  0.84541946  1  0  0.10725  0.07101  0  0.984323  0
H  H17  1  0.35814536  0.61820992  0.65458656  1  0  0.107233  0.070982  0  0.984304  0
H  H18  1  0.61821255  0.35814042  0.15458429  1  0  0.107242  0.071009  0  0.98426  0
H  H19  1  0.64185856  0.38178548  0.34542095  1  0  0.107258  0.071025  0  0.984262  0
H  H20  1  0.67071861  0.67969740  0.01336658  1  0  0.310379  0.34856  0  0.972895  0
H  H21  1  0.32030347  0.32928463  0.48663430  1  0  0.310349  0.348473  0  0.972958  0
H  H22  1  0.32928824  0.32030575  0.98663157  1  0  0.310354  0.348498  0  0.972958  0
H  H23  1  0.67969685  0.67071631  0.51336762  1  0  0.310372  0.348536  0  0.972932  0
H  H24  1  0.40141962  0.91606011  0.76389240  1  0  0.315797  0.35956  0  0.964577  0
H  H25  1  0.08394586  0.59857906  0.73610869  1  0  0.315782  0.359505  0  0.964647  0
H  H26  1  0.59858065  0.08394193  0.23610713  1  0  0.315813  0.359575  0  0.964621  0
H  H27  1  0.91605916  0.40141634  0.26389641  1  0  0.315823  0.35961  0  0.964569  0
C  C28  1  0.56366077  0.91925955  0.54167195  1  0  0.116208  0.175198  0  4.120987  0
C  C29  1  0.08074238  0.43632873  0.95832003  1  0  0.116322  0.175361  0  4.121219  0
C  C30  1  0.43632937  0.08074581  0.45831957  1  0  0.116245  0.175231  0  4.121309  0
C  C31  1  0.91926248  0.56364669  0.04166723  1  0  0.116207  0.175288  0  4.120556  0
C  C32  1  0.43538930  0.02027428  0.56960493  1  0  0.117094  0.180891  0  4.105816  0
C  C33  1  0.97971962  0.56459129  0.93040365  1  0  0.117041  0.180888  0  4.105544  0
C  C34  1  0.56459663  0.97972666  0.43040121  1  0  0.11696  0.180612  0  4.105699  0
C  C35  1  0.02026584  0.43539634  0.06959502  1  0  0.11704  0.180658  0  4.105777  0
C  C36  1  0.91059837  0.97490468  0.96153887  1  0  0.120055  0.193307  0  4.134417  0
C  C37  1  0.02509308  0.08940766  0.53845518  1  0  0.119951  0.193202  0  4.134334  0
C  C38  1  0.08940643  0.02509514  0.03845970  1  0  0.11998  0.193297  0  4.134354  0
C  C39  1  0.97490222  0.91060546  0.46153147  1  0  0.120024  0.193307  0  4.134258  0
C  C40  1  0.06455446  0.01691424  0.92821646  1  0  0.118833  0.178045  0  4.141837  0
C  C41  1  0.98308507  0.93544784  0.57178393  1  0  0.118864  0.178089  0  4.141886  0
C  C42  1  0.93543697  0.98308782  0.07179925  1  0  0.11903  0.178094  0  4.142146  0
C  C43  1  0.01691012  0.06456750  0.42820721  1  0  0.118829  0.178  0  4.142212  0
C  C44  1  0.69269325  0.19985842  0.73953948  1  0  0.124759  0.194407  0  4.116841  0
C  C45  1  0.80014273  0.30730150  0.76046278  1  0  0.124776  0.194619  0  4.116607  0
C  C46  1  0.30729743  0.80013586  0.26046137  1  0  0.124697  0.194496  0  4.116746  0
C  C47  1  0.19985122  0.69269389  0.23953309  1  0  0.124859  0.194515  0  4.116733  0
C  C48  1  0.57329025  0.31638140  0.74815515  1  0  0.117  0.185988  0  4.15463  0
C  C49  1  0.68361455  0.42670717  0.75184737  1  0  0.117035  0.185962  0  4.154767  0
C  C50  1  0.42670149  0.68361399  0.25184554  1  0  0.116952  0.18597  0  4.154482  0
C  C51  1  0.31638134  0.57329376  0.24815025  1  0  0.116948  0.185926  0  4.154627  0
C  C52  1  0.45711870  0.71949305  0.98230279  1  0  -0.069946  0.046646  0  3.897915  0
C  C53  1  0.28051726  0.54288149  0.51770087  1  0  -0.070071  0.046373  0  3.898151  0
C  C54  1  0.54288695  0.28051232  0.01769916  1  0  -0.070037  0.046407  0  3.898093  0
C  C55  1  0.71948760  0.45711723  0.48230165  1  0  -0.070004  0.04656  0  3.897991  0
C  C56  1  0.38090193  0.74555828  0.88291501  1  0  -0.070139  0.051961  0  3.889539  0
C  C57  1  0.25445023  0.61909904  0.61708876  1  0  -0.070069  0.052065  0  3.889323  0
C  C58  1  0.61910261  0.25444709  0.11708625  1  0  -0.070143  0.052035  0  3.889327  0
C  C59  1  0.74555458  0.38090079  0.38291911  1  0  -0.070161  0.051969  0  3.889624  0
O  O60  1  0.64057959  0.82079167  0.59130988  1  0  -0.324771  -0.488108  0  2.389654  0
O  O61  1  0.17920536  0.35942415  0.90868753  1  0  -0.324609  -0.487925  0  2.390242  0
O  O62  1  0.35941446  0.17920150  0.40869157  1  0  -0.324647  -0.487936  0  2.390284  0
O  O63  1  0.82077930  0.64058011  0.09131612  1  0  -0.324853  -0.48825  0  2.388796  0
O  O64  1  0.35590279  0.04247802  0.65368529  1  0  -0.326711  -0.478963  0  2.372393  0
O  O65  1  0.95751915  0.64409179  0.84630261  1  0  -0.326687  -0.479089  0  2.371679  0
O  O66  1  0.64409651  0.95752069  0.34630294  1  0  -0.32671  -0.478995  0  2.371715  0
O  O67  1  0.04247617  0.35589805  0.15369358  1  0  -0.326711  -0.478951  0  2.371804  0
O  O68  1  0.80145653  0.94444820  0.91709239  1  0  -0.377712  -0.504218  0  2.398241  0
O  O69  1  0.05555727  0.19855284  0.58291014  1  0  -0.377601  -0.504147  0  2.397914  0
O  O70  1  0.19855139  0.05555606  0.08290948  1  0  -0.377656  -0.504206  0  2.398053  0
O  O71  1  0.94444594  0.80145696  0.41708236  1  0  -0.37764  -0.504128  0  2.397868  0
O  O72  1  0.14434599  0.03764115  0.84212014  1  0  -0.378833  -0.507175  0  2.394797  0
O  O73  1  0.96236166  0.85566201  0.65786867  1  0  -0.3787  -0.506966  0  2.394967  0
O  O74  1  0.85566724  0.96236754  0.15787244  1  0  -0.378682  -0.506792  0  2.395547  0
O  O75  1  0.03763153  0.14434888  0.34211599  1  0  -0.378677  -0.506921  0  2.395162  0
O  O76  1  0.69800598  0.06819653  0.71782447  1  0  -0.379287  -0.500865  0  2.431857  0
O  O77  1  0.93180010  0.30199157  0.78217943  1  0  -0.379311  -0.500943  0  2.43192  0
O  O78  1  0.30198238  0.93179997  0.28217949  1  0  -0.37928  -0.500821  0  2.431802  0
O  O79  1  0.06819279  0.69800270  0.21781738  1  0  -0.379308  -0.500872  0  2.431888  0
O  O80  1  0.43423169  0.32103679  0.75475849  1  0  -0.389443  -0.507086  0  2.435368  0
O  O81  1  0.67895168  0.56575969  0.74524821  1  0  -0.389399  -0.507027  0  2.435597  0
O  O82  1  0.56576780  0.67895861  0.24524936  1  0  -0.389369  -0.507072  0  2.434987  0
O  O83  1  0.32104363  0.43423015  0.25474798  1  0  -0.389366  -0.507067  0  2.435218  0
O  O84  1  0.61070923  0.67877214  0.95330450  1  0  -0.434839  -0.530392  0  2.370092  0
O  O85  1  0.32124162  0.38929172  0.54669724  1  0  -0.434705  -0.53021  0  2.370191  0
O  O86  1  0.38929852  0.32123545  0.04669635  1  0  -0.434691  -0.530209  0  2.370239  0
O  O87  1  0.67876234  0.61070256  0.45330802  1  0  -0.43474  -0.53033  0  2.370163  0
O  O88  1  0.46196648  0.85479756  0.81391800  1  0  -0.448218  -0.55048  0  2.424911  0
O  O89  1  0.14520889  0.53802991  0.68608629  1  0  -0.448257  -0.550451  0  2.424885  0
O  O90  1  0.53803390  0.14520226  0.18608324  1  0  -0.448253  -0.550533  0  2.424903  0
O  O91  1  0.85479292  0.46196327  0.31391767  1  0  -0.448237  -0.550547  0  2.425014  0
