# generated using pymatgen
data_MnH46C42(NO)10
_symmetry_space_group_name_H-M   'P 1'
_cell_length_a   9.30398040
_cell_length_b   10.32052819
_cell_length_c   10.30232939
_cell_angle_alpha   93.73682117
_cell_angle_beta   100.95597331
_cell_angle_gamma   107.38473886
_symmetry_Int_Tables_number   1
_chemical_formula_structural   MnH46C42(NO)10
_chemical_formula_sum   'Mn1 H46 C42 N10 O10'
_cell_volume   918.96834156
_cell_formula_units_Z   1
loop_
 _symmetry_equiv_pos_site_id
 _symmetry_equiv_pos_as_xyz
  1  'x, y, z'
loop_
 _atom_site_type_symbol
 _atom_site_label
 _atom_site_symmetry_multiplicity
 _atom_site_fract_x
 _atom_site_fract_y
 _atom_site_fract_z
 _atom_site_occupancy
 _atom_site_pbe_cm5_charge
 _atom_site_pbe_ddec_charge
 _atom_site_pbe_ddec_spin_density
 _atom_site_pbe_ddec_sum_bond_order
 _atom_site_pbe_magmom
Mn  Mn0  1  0.00000533  0.99999893  0.00000429  1  0.590841  1.048041  4.621582  2.35056  4.429
H  H1  1  0.27880561  0.91741209  0.40389040  1  0.088149  0.081738  4.6e-05  1.076168  0.0
H  H2  1  0.72119485  0.08259749  0.59610439  1  0.088221  0.081868  4.6e-05  1.075983  0.0
H  H3  1  0.89429232  0.27727523  0.42802470  1  0.115805  0.096438  -2.1e-05  1.034277  0.0
H  H4  1  0.10572236  0.72274302  0.57197849  1  0.115774  0.096402  -2.1e-05  1.034137  0.0
H  H5  1  0.05394886  0.24569790  0.75249795  1  0.112253  0.088407  -0.000511  1.035558  0.0
H  H6  1  0.94605954  0.75431313  0.24750824  1  0.112262  0.088425  -0.000512  1.035552  0.0
H  H7  1  0.93708679  0.31296437  0.64078274  1  0.10867  0.079758  -1.7e-05  0.992887  0.0
H  H8  1  0.06293034  0.68706074  0.35923028  1  0.108688  0.079714  -1.7e-05  0.992961  0.0
H  H9  1  0.15721399  0.50110431  0.78176868  1  0.094335  0.143008  0.00015  1.025928  0.0
H  H10  1  0.84281352  0.49890579  0.21824894  1  0.094291  0.143009  0.00015  1.025969  0.0
H  H11  1  0.16911934  0.49980037  0.61181299  1  0.08447  0.116181  1.4e-05  1.026107  0.0
H  H12  1  0.83091992  0.50021152  0.38820419  1  0.084553  0.11626  1.4e-05  1.026005  0.0
H  H13  1  0.29188114  0.43360487  0.72288841  1  0.082815  0.114862  1.5e-05  1.031254  0.0
H  H14  1  0.70812891  0.56639439  0.27712581  1  0.082791  0.114923  1.5e-05  1.031101  0.0
H  H15  1  0.48647637  0.15042839  0.02556234  1  0.117732  0.100671  -3e-05  0.987871  0.0
H  H16  1  0.51353442  0.84956916  0.97444119  1  0.117802  0.100671  -3e-05  0.987949  0.0
H  H17  1  0.34291626  0.20544785  0.93178946  1  0.119569  0.11007  -0.000538  1.053377  0.0
H  H18  1  0.65708428  0.79454890  0.06821490  1  0.11956  0.110061  -0.000538  1.053383  0.0
H  H19  1  0.55372510  0.38714667  0.85670678  1  0.107975  0.087335  1.3e-05  1.003682  0.0
H  H20  1  0.44627264  0.61285425  0.14329935  1  0.108004  0.087302  1.3e-05  1.003691  0.0
H  H21  1  0.58116849  0.40329156  0.03431784  1  0.118428  0.104565  2.1e-05  0.964858  0.0
H  H22  1  0.41883518  0.59670429  0.96568026  1  0.118442  0.104569  2.1e-05  0.964963  0.0
H  H23  1  0.85301343  0.20895653  0.86830463  1  0.123293  0.114979  -0.000134  1.013633  0.0
H  H24  1  0.14698665  0.79103616  0.13169734  1  0.123241  0.114881  -0.000134  1.01375  0.0
H  H25  1  0.71980589  0.26446200  0.75445120  1  0.103438  0.073587  4.1e-05  1.010292  0.0
H  H26  1  0.28019261  0.73552891  0.24554351  1  0.103449  0.07362  4.1e-05  1.010269  0.0
H  H27  1  0.62088033  0.01028356  0.76386089  1  0.110552  0.088306  -3.5e-05  1.064281  0.0
H  H28  1  0.37911562  0.98971541  0.23614276  1  0.110541  0.088247  -3.5e-05  1.064285  0.0
H  H29  1  0.63667098  0.04430549  0.93714048  1  0.115946  0.106141  -0.000258  1.020877  0.0
H  H30  1  0.36332775  0.95568631  0.06285824  1  0.115948  0.106088  -0.000258  1.020891  0.0
H  H31  1  0.12414185  0.50322307  0.23136828  1  0.105293  0.108502  -3.6e-05  1.014705  0.0
H  H32  1  0.87583547  0.49674472  0.76862023  1  0.105296  0.108541  -3.6e-05  1.014853  0.0
H  H33  1  0.29812401  0.59595121  0.45156681  1  0.093719  0.087591  1.3e-05  1.043858  0.0
H  H34  1  0.70182635  0.40400534  0.54843583  1  0.093843  0.087904  1.3e-05  1.043631  0.0
H  H35  1  0.55312458  0.31882402  0.38360474  1  0.097329  0.095595  -4e-06  1.029907  0.0
H  H36  1  0.44688310  0.68119124  0.61637156  1  0.09733  0.095612  -4e-06  1.029741  0.0
H  H37  1  0.37661865  0.22800979  0.16781175  1  0.105054  0.103304  -0.0002  1.03126  0.0
H  H38  1  0.62339509  0.77201180  0.83215755  1  0.105054  0.103365  -0.0002  1.031179  0.0
H  H39  1  0.76130328  0.28359372  0.05285546  1  0.298374  0.269759  -4.8e-05  0.991282  0.0
H  H40  1  0.23870602  0.71640813  0.94714524  1  0.298377  0.26961  -4.8e-05  0.991529  0.0
H  H41  1  0.81680445  0.41844747  0.96415439  1  0.302511  0.272984  0.00012  0.977379  0.0
H  H42  1  0.18319331  0.58154676  0.03583560  1  0.302534  0.273049  0.00012  0.977291  0.0
H  H43  1  0.48806432  0.98996370  0.60510740  1  0.28132  0.222791  1.8e-05  1.052469  0.0
H  H44  1  0.51193521  0.01003844  0.39489238  1  0.28134  0.222795  1.8e-05  1.052411  0.0
H  H45  1  0.20579777  0.15373089  0.76388275  1  0.324216  0.289165  -0.000311  0.957902  0.0
H  H46  1  0.79421145  0.84627690  0.23612623  1  0.324155  0.289077  -0.000311  0.957826  0.0
C  C47  1  0.87175715  0.15581817  0.19114878  1  0.204076  0.595828  0.012942  4.20146  0.012
C  C48  1  0.12823484  0.84418794  0.80886153  1  0.203922  0.595382  0.012942  4.201549  0.012
C  C49  1  0.98313295  0.14972816  0.31323137  1  -0.054913  -0.256346  0.001091  4.066609  0.001
C  C50  1  0.01685719  0.85027297  0.68677425  1  -0.055085  -0.256504  0.00109  4.066835  0.001
C  C51  1  0.09465447  0.07841614  0.31563635  1  0.102317  0.320093  0.004395  4.099926  0.004
C  C52  1  0.90533186  0.92157565  0.68437159  1  0.102529  0.320228  0.004393  4.099749  0.004
C  C53  1  0.19429422  0.08392991  0.44520370  1  -0.034819  -0.123738  0.001668  4.108392  0.001
C  C54  1  0.80570612  0.91608028  0.55480278  1  -0.034847  -0.123874  0.001667  4.108995  0.001
C  C55  1  0.31252250  0.02002660  0.45894982  1  -0.122103  -0.262902  0.000456  3.913937  0.0
C  C56  1  0.68746741  0.97997665  0.54105497  1  -0.122188  -0.263079  0.000458  3.914247  0.0
C  C57  1  0.37319561  0.09199738  0.70035227  1  0.363801  0.469801  9.2e-05  4.02206  0.0
C  C58  1  0.62680379  0.90800466  0.29965039  1  0.363731  0.469723  9.2e-05  4.022264  0.0
C  C59  1  0.17098590  0.15140056  0.55703136  1  0.201822  0.251177  0.002385  3.935477  0.002
C  C60  1  0.82901621  0.84861454  0.44298172  1  0.201718  0.251169  0.002382  3.935533  0.002
C  C61  1  0.97591055  0.22085570  0.42940284  1  0.019458  -0.024143  0.001271  3.980491  0.001
C  C62  1  0.02409111  0.77915534  0.57060786  1  0.019604  -0.023909  0.001271  3.980609  0.001
C  C63  1  0.05288681  0.30303609  0.66635063  1  -0.056767  -0.016641  0.000169  3.879754  0.0
C  C64  1  0.94712451  0.69697387  0.33365410  1  -0.05683  -0.016584  0.000169  3.879504  0.0
C  C65  1  0.17555386  0.44264525  0.69763453  1  -0.25078  -0.385958  0.00033  3.927064  0.0
C  C66  1  0.82446103  0.55736027  0.30237537  1  -0.250788  -0.386089  0.00033  3.926923  0.0
C  C67  1  0.45808447  0.19719197  0.93535896  1  -0.061397  -0.102045  -0.000114  3.896804  0.0
C  C68  1  0.54191539  0.80280283  0.06464218  1  -0.061471  -0.102082  -0.000115  3.896944  0.0
C  C69  1  0.57816895  0.33707061  0.94540624  1  -0.060939  -0.0488  8.2e-05  3.803517  0.0
C  C70  1  0.42183364  0.66292528  0.05459165  1  -0.060925  -0.048687  8.3e-05  3.803527  0.0
C  C71  1  0.73846656  0.22106241  0.84843520  1  -0.062788  -0.04864  3e-06  3.785082  0.0
C  C72  1  0.26153747  0.77893443  0.15156403  1  -0.062738  -0.048635  3e-06  3.784944  0.0
C  C73  1  0.61390573  0.08419258  0.84196541  1  -0.063848  -0.099352  3.7e-05  3.870936  0.0
C  C74  1  0.38609515  0.91580744  0.15803445  1  -0.063834  -0.099156  3.7e-05  3.870947  0.0
C  C75  1  0.24423720  0.36531291  0.18077648  1  -0.026509  -0.056146  0.000459  4.002146  0.0
C  C76  1  0.75574581  0.63468053  0.81921734  1  -0.026685  -0.056395  0.000457  4.001577  0.0
C  C77  1  0.22134144  0.46618147  0.26520914  1  -0.094154  -0.112558  0.002533  4.028262  0.002
C  C78  1  0.77865387  0.53379601  0.73478570  1  -0.094066  -0.112457  0.002536  4.027915  0.002
C  C79  1  0.31939681  0.51714374  0.38930316  1  -0.098966  -0.141915  0.000111  3.997069  0.0
C  C80  1  0.68058078  0.48283098  0.61069476  1  -0.09913  -0.142387  0.000109  3.997228  0.0
C  C81  1  0.44563493  0.47019762  0.43542033  1  -0.009994  0.067274  0.003017  3.970791  0.002
C  C82  1  0.55435324  0.52978714  0.56457958  1  -0.009955  0.067417  0.00302  3.971017  0.002
C  C83  1  0.46201473  0.36353095  0.35235481  1  -0.091973  -0.129397  0.000307  3.98273  0.0
C  C84  1  0.53798903  0.63646957  0.64762915  1  -0.091986  -0.129438  0.000305  3.982966  0.0
C  C85  1  0.36311205  0.31195304  0.22853879  1  -0.086527  -0.092471  0.001942  3.996085  0.002
C  C86  1  0.63688162  0.68805972  0.77143066  1  -0.08644  -0.092342  0.001944  3.996043  0.002
C  C87  1  0.14966174  0.32396192  0.04080691  1  0.204013  0.563815  0.017759  4.207257  0.015
C  C88  1  0.85032365  0.67603923  0.95917349  1  0.204071  0.56385  0.017761  4.207406  0.015
N  N89  1  0.73367315  0.32066867  0.95786224  1  -0.481153  -0.23124  0.000214  3.506321  0.0
N  N90  1  0.26632885  0.67932834  0.04213369  1  -0.4812  -0.23123  0.000214  3.506284  0.0
N  N91  1  0.46293247  0.10529360  0.82338220  1  -0.282113  -0.130576  -5.4e-05  3.602928  0.0
N  N92  1  0.53706606  0.89470864  0.17661545  1  -0.28209  -0.130622  -5.3e-05  3.602846  0.0
N  N93  1  0.39356923  0.02582516  0.59485023  1  -0.397953  -0.281126  4.8e-05  3.68839  0.0
N  N94  1  0.60642976  0.97417585  0.40515227  1  -0.397965  -0.281084  4.8e-05  3.68851  0.0
N  N95  1  0.25973828  0.15475434  0.68599490  1  -0.409194  -0.425019  0.000524  3.502841  0.0
N  N96  1  0.74025820  0.84525176  0.31401240  1  -0.409063  -0.424881  0.000524  3.502694  0.0
N  N97  1  0.06719169  0.22190000  0.54892063  1  -0.238257  -0.005322  0.0014  3.761427  0.001
N  N98  1  0.93282144  0.77811491  0.45108974  1  -0.238152  -0.005287  0.0014  3.761153  0.001
O  O99  1  0.79786550  0.24141477  0.19657095  1  -0.336486  -0.554766  0.009726  2.152889  0.011
O  O100  1  0.20212708  0.75858582  0.80341956  1  -0.336483  -0.554537  0.009728  2.152679  0.011
O  O101  1  0.85100318  0.07465130  0.08462084  1  -0.327458  -0.574242  0.042233  2.355221  0.024
O  O102  1  0.14899560  0.92533204  0.91541017  1  -0.327294  -0.573938  0.04224  2.355286  0.024
O  O103  1  0.11206859  0.01079565  0.21345236  1  -0.308133  -0.507697  0.039032  2.289597  0.027
O  O104  1  0.88791867  0.98919830  0.78655304  1  -0.308214  -0.507667  0.039029  2.289484  0.027
O  O105  1  0.13861081  0.20757570  0.97933555  1  -0.326528  -0.598819  0.033215  2.342731  0.015
O  O106  1  0.86138310  0.79241076  0.02064232  1  -0.326484  -0.598658  0.033203  2.343093  0.015
O  O107  1  0.08913730  0.40846951  0.98853539  1  -0.318427  -0.537957  0.013629  2.189849  0.015
O  O108  1  0.91087054  0.59152398  0.01143903  1  -0.318553  -0.538188  0.013634  2.189511  0.015
