# generated using pymatgen
data_CdH8(CO)8
_symmetry_space_group_name_H-M   'P 1'
_cell_length_a   5.43704984
_cell_length_b   8.38107980
_cell_length_c   12.14498731
_cell_angle_alpha   109.24029884
_cell_angle_beta   89.98066274
_cell_angle_gamma   108.95372816
_symmetry_Int_Tables_number   1
_chemical_formula_structural   CdH8(CO)8
_chemical_formula_sum   'Cd2 H16 C16 O16'
_cell_volume   490.64470230
_cell_formula_units_Z   2
loop_
 _symmetry_equiv_pos_site_id
 _symmetry_equiv_pos_as_xyz
  1  'x, y, z'
loop_
 _atom_site_type_symbol
 _atom_site_label
 _atom_site_symmetry_multiplicity
 _atom_site_fract_x
 _atom_site_fract_y
 _atom_site_fract_z
 _atom_site_occupancy
 _atom_site_hle17_bader_spin_density
 _atom_site_hle17_ddec_charge
 _atom_site_hle17_ddec_spin_density
 _atom_site_hle17_ddec_sum_bond_order
 _atom_site_hle17_magmom
 _atom_site_hse06_10hf_bader_spin_density
 _atom_site_hse06_10hf_ddec_charge
 _atom_site_hse06_10hf_ddec_spin_density
 _atom_site_hse06_10hf_ddec_sum_bond_order
 _atom_site_hse06_10hf_magmom
 _atom_site_hse06_bader_spin_density
 _atom_site_hse06_ddec_charge
 _atom_site_hse06_ddec_spin_density
 _atom_site_hse06_ddec_sum_bond_order
 _atom_site_hse06_magmom
 _atom_site_pbe_bader_spin_density
 _atom_site_pbe_cm5_charge
 _atom_site_pbe_ddec_charge
 _atom_site_pbe_ddec_spin_density
 _atom_site_pbe_ddec_sum_bond_order
 _atom_site_pbe_magmom
Cd  Cd0  1  0.52953893  0.99994729  0.24989970  1  0  1.273378  0  1.517331  0  0  1.09667  0  1.956798  0  0  1.155061  0  1.897478  0  0  0.787793  1.054788  0  1.997823  0
Cd  Cd1  1  0.47046888  0.00006227  0.75009752  1  0  1.273522  0  1.517238  0  0  1.096796  0  1.956717  0  0  1.155189  0  1.897397  0  0  0.787887  1.054914  0  1.997744  0
H  H2  1  0.97035161  0.53832240  0.67595027  1  0  0.398803  0  0.886714  0  0  0.366628  0  0.965423  0  0  0.379032  0  0.952131  0  0  0.305242  0.357945  0  0.974555  0
H  H3  1  0.43150760  0.46150090  0.82374440  1  0  0.39822  0  0.887408  0  0  0.365326  0  0.967087  0  0  0.377662  0  0.954002  0  0  0.305169  0.35667  0  0.976149  0
H  H4  1  0.02963035  0.46167224  0.32406412  1  0  0.398835  0  0.886509  0  0  0.366631  0  0.965286  0  0  0.379039  0  0.951993  0  0  0.30519  0.357948  0  0.974418  0
H  H5  1  0.56847092  0.53849791  0.17624624  1  0  0.39824  0  0.887438  0  0  0.365375  0  0.96707  0  0  0.377722  0  0.953965  0  0  0.305186  0.356705  0  0.976146  0
H  H6  1  0.40920630  0.22960701  0.15147223  1  0  0.438237  0  0.857371  0  0  0.404379  0  0.923954  0  0  0.41553  0  0.907953  0  0  0.297569  0.3965  0  0.935238  0
H  H7  1  0.17959458  0.77076656  0.34881991  1  0  0.438709  0  0.856941  0  0  0.405337  0  0.922591  0  0  0.416455  0  0.906612  0  0  0.297777  0.397461  0  0.933876  0
H  H8  1  0.59079246  0.77040651  0.84853826  1  0  0.43817  0  0.857468  0  0  0.404342  0  0.924001  0  0  0.415488  0  0.908005  0  0  0.29757  0.396471  0  0.935273  0
H  H9  1  0.82041470  0.22923491  0.65117710  1  0  0.438722  0  0.856908  0  0  0.405398  0  0.922473  0  0  0.416506  0  0.906509  0  0  0.297838  0.397531  0  0.93375  0
H  H10  1  0.13743586  0.05670711  0.12550623  1  0  0.440181  0  0.8568  0  0  0.407365  0  0.923466  0  0  0.418049  0  0.908052  0  0  0.294771  0.399787  0  0.934382  0
H  H11  1  0.08073116  0.94362784  0.37442874  1  0  0.441125  0  0.856025  0  0  0.407653  0  0.9236  0  0  0.41839  0  0.908122  0  0  0.294626  0.400035  0  0.93456  0
H  H12  1  0.86257928  0.94330240  0.87450086  1  0  0.44017  0  0.856807  0  0  0.407354  0  0.923475  0  0  0.418035  0  0.908063  0  0  0.294773  0.399775  0  0.934393  0
H  H13  1  0.91927846  0.05638168  0.62557506  1  0  0.441131  0  0.856017  0  0  0.407655  0  0.923601  0  0  0.41839  0  0.908124  0  0  0.294656  0.400039  0  0.934558  0
H  H14  1  0.33311860  0.21743136  0.54557813  1  0  0.126851  0  0.941778  0  0  0.136861  0  1.002899  0  0  0.140815  0  0.999869  0  0  0.111751  0.13399  0  1.005227  0
H  H15  1  0.11498144  0.78221330  0.95409701  1  0  0.12774  0  0.942244  0  0  0.137608  0  1.003293  0  0  0.141632  0  1.000178  0  0  0.112026  0.134687  0  1.005681  0
H  H16  1  0.66686421  0.78256867  0.45443750  1  0  0.126734  0  0.94183  0  0  0.136752  0  1.002981  0  0  0.140703  0  0.999937  0  0  0.111724  0.133882  0  1.005309  0
H  H17  1  0.88502126  0.21777869  0.04590936  1  0  0.127639  0  0.942102  0  0  0.137546  0  1.003149  0  0  0.141539  0  1.000068  0  0  0.111985  0.134624  0  1.005538  0
C  C18  1  0.99130705  0.23823242  0.39383160  1  0  0.650892  0  3.90101  0  0  0.595409  0  4.194463  0  0  0.630979  0  4.187245  0  0  0.20153  0.571302  0  4.198499  0
C  C19  1  0.75287654  0.76150606  0.10604597  1  0  0.651277  0  3.900897  0  0  0.595316  0  4.194831  0  0  0.630874  0  4.187543  0  0  0.201551  0.571213  0  4.19891  0
C  C20  1  0.00868529  0.76174622  0.60615195  1  0  0.650751  0  3.900976  0  0  0.595276  0  4.194373  0  0  0.630841  0  4.187152  0  0  0.201551  0.571172  0  4.198405  0
C  C21  1  0.24713039  0.23848335  0.89393757  1  0  0.652003  0  3.901273  0  0  0.595825  0  4.195483  0  0  0.631367  0  4.188189  0  0  0.201776  0.571731  0  4.199561  0
C  C22  1  0.25118536  0.37355323  0.44954675  1  0  -0.161272  0  3.764481  0  0  -0.147289  0  4.014356  0  0  -0.155755  0  4.034331  0  0  -0.0287  -0.141649  0  4.000929  0
C  C23  1  0.87749274  0.62628679  0.05038813  1  0  -0.16165  0  3.763712  0  0  -0.14676  0  4.013827  0  0  -0.155244  0  4.033757  0  0  -0.028121  -0.141133  0  4.000449  0
C  C24  1  0.74882838  0.62643877  0.55045797  1  0  -0.161275  0  3.764647  0  0  -0.147179  0  4.014447  0  0  -0.15565  0  4.034415  0  0  -0.028704  -0.141534  0  4.001018  0
C  C25  1  0.12249534  0.37367965  0.94960827  1  0  -0.161886  0  3.763678  0  0  -0.147058  0  4.013963  0  0  -0.155499  0  4.033852  0  0  -0.028255  -0.141437  0  4.00058  0
C  C26  1  0.65378658  0.46534504  0.57629464  1  0  0.321306  0  3.777207  0  0  0.299725  0  4.045664  0  0  0.310863  0  4.061458  0  0  0.081856  0.291976  0  4.034962  0
C  C27  1  0.18823344  0.53459473  0.92355763  1  0  0.323355  0  3.771865  0  0  0.300253  0  4.042077  0  0  0.311362  0  4.057839  0  0  0.08194  0.292531  0  4.031387  0
C  C28  1  0.34621401  0.53466848  0.42371749  1  0  0.320981  0  3.7772  0  0  0.299587  0  4.045486  0  0  0.31072  0  4.061285  0  0  0.081813  0.291845  0  4.034779  0
C  C29  1  0.81172949  0.46539865  0.07644000  1  0  0.323447  0  3.772664  0  0  0.300183  0  4.043012  0  0  0.311331  0  4.058737  0  0  0.081709  0.292433  0  4.032335  0
C  C30  1  0.40635922  0.34119830  0.52583172  1  0  -0.162311  0  3.689231  0  0  -0.196563  0  3.95131  0  0  -0.197736  0  3.967156  0  0  -0.096301  -0.195713  0  3.940732  0
C  C31  1  0.06478531  0.65859495  0.97394744  1  0  -0.164232  0  3.687231  0  0  -0.198193  0  3.949757  0  0  -0.199411  0  3.965601  0  0  -0.097422  -0.197285  0  3.939193  0
C  C32  1  0.59365567  0.65879234  0.47417681  1  0  -0.162269  0  3.689259  0  0  -0.196588  0  3.951256  0  0  -0.197743  0  3.967088  0  0  -0.09639  -0.19574  0  3.940675  0
C  C33  1  0.93521482  0.34142130  0.02605709  1  0  -0.164075  0  3.687095  0  0  -0.198007  0  3.949674  0  0  -0.199208  0  3.965506  0  0  -0.097305  -0.197103  0  3.939119  0
O  O34  1  0.90323025  0.08905021  0.41074251  1  0  -0.649665  0  1.9851  0  0  -0.583778  0  2.220836  0  0  -0.610393  0  2.208309  0  0  -0.315625  -0.565082  0  2.22874  0
O  O35  1  0.81380908  0.91063872  0.08903526  1  0  -0.649812  0  1.983968  0  0  -0.583443  0  2.219103  0  0  -0.610159  0  2.206771  0  0  -0.315435  -0.564722  0  2.226994  0
O  O36  1  0.09678066  0.91094717  0.58926592  1  0  -0.649673  0  1.9851  0  0  -0.583713  0  2.220662  0  0  -0.61038  0  2.208254  0  0  -0.315668  -0.565023  0  2.228567  0
O  O37  1  0.18621385  0.08937900  0.91094572  1  0  -0.650229  0  1.984539  0  0  -0.58373  0  2.219711  0  0  -0.61044  0  2.207381  0  0  -0.315664  -0.565002  0  2.227573  0
O  O38  1  0.85468839  0.27620299  0.32504785  1  0  -0.646234  0  2.050509  0  0  -0.574309  0  2.297357  0  0  -0.605277  0  2.287968  0  0  -0.31568  -0.552734  0  2.303034  0
O  O39  1  0.57852918  0.72366511  0.17501843  1  0  -0.647413  0  2.052686  0  0  -0.574635  0  2.298915  0  0  -0.6057  0  2.289897  0  0  -0.315881  -0.553019  0  2.304444  0
O  O40  1  0.14533343  0.72379045  0.67493909  1  0  -0.646285  0  2.050207  0  0  -0.57435  0  2.296987  0  0  -0.605312  0  2.287604  0  0  -0.315771  -0.552765  0  2.302629  0
O  O41  1  0.42145098  0.27632962  0.82497787  1  0  -0.647535  0  2.053022  0  0  -0.574685  0  2.299383  0  0  -0.605745  0  2.290371  0  0  -0.315868  -0.553073  0  2.304907  0
O  O42  1  0.80036771  0.42979808  0.64996727  1  0  -0.532345  0  2.14201  0  0  -0.465466  0  2.350519  0  0  -0.487173  0  2.341241  0  0  -0.341365  -0.450166  0  2.356696  0
O  O43  1  0.37006641  0.57003265  0.84962912  1  0  -0.532734  0  2.140516  0  0  -0.464349  0  2.35017  0  0  -0.485898  0  2.340762  0  0  -0.341157  -0.449144  0  2.356413  0
O  O44  1  0.19962505  0.57021816  0.35003889  1  0  -0.532254  0  2.141332  0  0  -0.465389  0  2.349813  0  0  -0.487107  0  2.340541  0  0  -0.341345  -0.450095  0  2.355993  0
O  O45  1  0.62995064  0.42997698  0.15035329  1  0  -0.532736  0  2.141272  0  0  -0.464318  0  2.350896  0  0  -0.485889  0  2.341487  0  0  -0.341019  -0.449057  0  2.35711  0
O  O46  1  0.30373637  0.13099691  0.17789793  1  0  -0.860152  0  1.893383  0  0  -0.791208  0  2.104943  0  0  -0.816294  0  2.070361  0  0  -0.588707  -0.773489  0  2.128901  0
O  O47  1  0.17301030  0.86925738  0.32227119  1  0  -0.862142  0  1.892781  0  0  -0.792508  0  2.104755  0  0  -0.81763  0  2.070235  0  0  -0.589041  -0.774734  0  2.128775  0
O  O48  1  0.69627491  0.86900855  0.82210906  1  0  -0.86008  0  1.893369  0  0  -0.791185  0  2.104945  0  0  -0.816267  0  2.070374  0  0  -0.588712  -0.773462  0  2.128885  0
O  O49  1  0.82699096  0.13074275  0.67772470  1  0  -0.86216  0  1.892801  0  0  -0.792549  0  2.104753  0  0  -0.817661  0  2.070241  0  0  -0.589124  -0.774794  0  2.128744  0
