# generated using pymatgen
data_ZnCuH26C16N4O9
_symmetry_space_group_name_H-M   'P 1'
_cell_length_a   6.43789610
_cell_length_b   10.91001276
_cell_length_c   13.70167019
_cell_angle_alpha   92.66453047
_cell_angle_beta   90.00037160
_cell_angle_gamma   89.99969882
_symmetry_Int_Tables_number   1
_chemical_formula_structural   ZnCuH26C16N4O9
_chemical_formula_sum   'Zn2 Cu2 H52 C32 N8 O18'
_cell_volume   961.33097944
_cell_formula_units_Z   2
loop_
 _symmetry_equiv_pos_site_id
 _symmetry_equiv_pos_as_xyz
  1  'x, y, z'
loop_
 _atom_site_type_symbol
 _atom_site_label
 _atom_site_symmetry_multiplicity
 _atom_site_fract_x
 _atom_site_fract_y
 _atom_site_fract_z
 _atom_site_occupancy
 _atom_site_pbe_bader_charge
 _atom_site_pbe_bader_spin_density
 _atom_site_pbe_cm5_charge
 _atom_site_pbe_ddec_charge
 _atom_site_pbe_ddec_spin_density
 _atom_site_pbe_ddec_sum_bond_order
 _atom_site_pbe_magmom
Zn  Zn0  1  0.19803072  0.75001022  0.25000390  1  1.380849  -0.001917  0.694604  1.020996  -0.001526  2.188837  -0.002
Zn  Zn1  1  0.80196798  0.24998541  0.74999746  1  1.380776  0.001916  0.694586  1.021072  0.001526  2.188741  0.002
Cu  Cu2  1  0.90079652  0.25000384  0.24999860  1  0.997191  -0.568563  0.731971  0.587063  -0.75144  2.331812  -0.567
Cu  Cu3  1  0.09920683  0.74999087  0.75000346  1  0.997166  0.568573  0.73194  0.587068  0.751449  2.331831  0.567
H  H4  1  0.56164021  0.37520884  0.02823979  1  0.059385  0.000199  0.103987  0.093524  0.000104  0.978412  0.0
H  H5  1  0.56163652  0.12478432  0.47175365  1  0.059545  0.000199  0.103999  0.093534  0.000105  0.978298  0.0
H  H6  1  0.43836160  0.62478863  0.97175945  1  0.059408  -0.000199  0.104008  0.093617  -0.000104  0.97845  0.0
H  H7  1  0.43836062  0.87520856  0.52824469  1  0.059534  -0.000199  0.104008  0.093504  -0.000104  0.978392  0.0
H  H8  1  0.76989605  0.46688584  0.07162797  1  0.044104  1.9e-05  0.103662  0.083564  1.8e-05  1.007144  0.0
H  H9  1  0.76990029  0.03311216  0.42836409  1  0.044015  2e-05  0.103661  0.083601  1.9e-05  1.007228  0.0
H  H10  1  0.23010109  0.53311805  0.92837442  1  0.044127  -1.9e-05  0.103661  0.083575  -1.8e-05  1.007203  0.0
H  H11  1  0.23010462  0.96688622  0.57163664  1  0.044077  -2e-05  0.103643  0.083551  -1.9e-05  1.007198  0.0
H  H12  1  0.79121338  0.57784296  0.33632653  1  0.113576  -0.001492  0.114293  0.122873  -0.000799  1.014336  -0.001
H  H13  1  0.79123097  0.92216182  0.16366500  1  0.113751  -0.00149  0.11433  0.122852  -0.000798  1.014317  -0.001
H  H14  1  0.20877755  0.42215267  0.66367994  1  0.113737  0.001492  0.114291  0.122839  0.000799  1.014255  0.001
H  H15  1  0.20876462  0.07783656  0.83633427  1  0.113731  0.00149  0.114333  0.122895  0.000798  1.01431  0.001
H  H16  1  0.82525785  0.56541983  0.20975409  1  0.105936  -0.0004  0.117287  0.117474  -0.000143  1.043438  0.0
H  H17  1  0.82527086  0.93458668  0.29023760  1  0.106354  -0.000399  0.11731  0.117537  -0.000143  1.043285  0.0
H  H18  1  0.17472687  0.43458498  0.79025271  1  0.106341  0.000401  0.117276  0.117501  0.000143  1.043407  0.0
H  H19  1  0.17473871  0.06541538  0.70976034  1  0.106157  0.000399  0.117305  0.117498  0.000143  1.043303  0.0
H  H20  1  0.13177395  0.22960999  0.06961324  1  0.091042  7.7e-05  0.109268  0.109796  8.5e-05  1.015642  0.0
H  H21  1  0.13175917  0.27039279  0.43039966  1  0.091268  7.8e-05  0.109231  0.109728  8.5e-05  1.015612  0.0
H  H22  1  0.86824339  0.77040216  0.93039383  1  0.091159  -7.6e-05  0.109243  0.109732  -8.4e-05  1.015478  0.0
H  H23  1  0.86823020  0.72961477  0.56960505  1  0.091216  -7.9e-05  0.109247  0.10974  -8.6e-05  1.015592  0.0
H  H24  1  0.08614039  0.38837182  0.07250999  1  0.07971  4.2e-05  0.114349  0.12011  3.4e-05  0.973772  0.0
H  H25  1  0.08614397  0.11163018  0.42748815  1  0.079712  4.2e-05  0.114354  0.120078  3.4e-05  0.973792  0.0
H  H26  1  0.91385830  0.61163757  0.92749042  1  0.079825  -4.2e-05  0.114393  0.120132  -3.4e-05  0.97378  0.0
H  H27  1  0.91386094  0.88837371  0.57251059  1  0.079663  -4.2e-05  0.11435  0.120109  -3.4e-05  0.97384  0.0
H  H28  1  0.48235867  0.49634144  0.18386070  1  0.046384  -0.006296  0.108699  0.107834  -0.003256  0.975584  -0.004
H  H29  1  0.48236782  0.00365564  0.31613118  1  0.046424  -0.006297  0.108707  0.107888  -0.003256  0.975583  -0.004
H  H30  1  0.51763537  0.50365602  0.81613635  1  0.046392  0.006296  0.108703  0.10787  0.003255  0.975557  0.004
H  H31  1  0.51764641  0.99633999  0.68386142  1  0.046376  0.006295  0.108711  0.107842  0.003255  0.97557  0.004
H  H32  1  0.44212264  0.33836129  0.19397773  1  0.066226  -0.000273  0.10795  0.093644  -4.5e-05  1.029498  0.0
H  H33  1  0.44210394  0.16163041  0.30601528  1  0.066068  -0.000273  0.107892  0.093641  -4.5e-05  1.029532  0.0
H  H34  1  0.55787917  0.66163617  0.80601932  1  0.066224  0.000273  0.107949  0.093655  4.5e-05  1.029482  0.0
H  H35  1  0.55789786  0.83836522  0.69398170  1  0.066  0.000272  0.10789  0.093657  4.5e-05  1.029393  0.0
H  H36  1  0.52704089  0.48055526  0.38960345  1  0.094967  -0.005659  0.106449  0.099741  -0.002975  0.978676  -0.004
H  H37  1  0.52707349  0.01943432  0.11037953  1  0.095307  -0.005656  0.106445  0.099877  -0.002975  0.978491  -0.004
H  H38  1  0.47293295  0.51943486  0.61039771  1  0.095306  0.005657  0.106451  0.099803  0.002975  0.978566  0.004
H  H39  1  0.47294385  0.98056681  0.88961911  1  0.095209  0.005655  0.106445  0.099843  0.002974  0.978571  0.004
H  H40  1  0.45527399  0.33233684  0.34883019  1  0.073571  -0.000146  0.109363  0.097965  -5.7e-05  1.026959  0.0
H  H41  1  0.45525777  0.16764930  0.15114807  1  0.073379  -0.000146  0.109396  0.098014  -5.7e-05  1.026951  0.0
H  H42  1  0.54471539  0.66765329  0.65116586  1  0.073749  0.000146  0.10933  0.097831  5.7e-05  1.027066  0.0
H  H43  1  0.54475490  0.83235275  0.84884988  1  0.073086  0.000146  0.109382  0.097985  5.8e-05  1.026999  0.0
H  H44  1  0.85504629  0.09631326  0.03881941  1  0.022867  6.4e-05  0.106575  0.090772  4.2e-05  0.970002  0.0
H  H45  1  0.85503550  0.40368814  0.46117450  1  0.022806  6.3e-05  0.106545  0.090732  4.2e-05  0.97  0.0
H  H46  1  0.14496483  0.90369247  0.96117867  1  0.022773  -6.3e-05  0.106595  0.090778  -4.2e-05  0.96993  0.0
H  H47  1  0.14494922  0.59631391  0.53882199  1  0.02306  -6.4e-05  0.106533  0.0907  -4.2e-05  0.969974  0.0
H  H48  1  0.63338073  0.16614673  0.98965176  1  0.081511  -4.3e-05  0.10278  0.090607  -1e-05  0.986064  0.0
H  H49  1  0.63336588  0.33385583  0.51033869  1  0.081868  -4.3e-05  0.102777  0.09059  -1e-05  0.98598  0.0
H  H50  1  0.36662884  0.83385808  0.01034774  1  0.081902  4.4e-05  0.102842  0.090726  1.1e-05  0.98597  0.0
H  H51  1  0.36662505  0.66614072  0.48966343  1  0.081694  4.2e-05  0.102792  0.090622  1e-05  0.98594  0.0
H  H52  1  0.60474779  0.76016326  0.30784821  1  0.664575  1e-06  0.298132  0.406556  -7e-06  0.928099  0.0
H  H53  1  0.60473621  0.73984304  0.19215375  1  0.664591  1e-06  0.298141  0.406579  -7e-06  0.928076  0.0
H  H54  1  0.39525090  0.23983513  0.69215544  1  0.664551  -1e-06  0.298125  0.406549  7e-06  0.928127  0.0
H  H55  1  0.39526093  0.26015902  0.80784931  1  0.664609  -1e-06  0.298155  0.406604  7e-06  0.928031  0.0
C  C56  1  0.67831067  0.38513910  0.08712501  1  0.291852  -0.001704  -0.069795  -0.080471  -0.0011  3.88931  -0.001
C  C57  1  0.67831558  0.11485736  0.41287037  1  0.29176  -0.001702  -0.069818  -0.080512  -0.001099  3.889287  -0.001
C  C58  1  0.32169268  0.61486204  0.91287583  1  0.29196  0.001704  -0.069832  -0.080635  0.0011  3.889579  0.001
C  C59  1  0.32168933  0.88513919  0.58712884  1  0.29157  0.001702  -0.069835  -0.080477  0.001099  3.88921  0.001
C  C60  1  0.84009877  0.51379499  0.27637470  1  0.191118  -0.001772  -0.082822  -0.260912  -0.002068  3.886094  0.0
C  C61  1  0.84011510  0.98621239  0.22361707  1  0.190636  -0.001773  -0.082775  -0.260753  -0.002068  3.886255  0.0
C  C62  1  0.15988284  0.48620615  0.72362905  1  0.190746  0.001773  -0.082866  -0.261013  0.002069  3.886305  0.0
C  C63  1  0.15989291  0.01378783  0.77638008  1  0.190844  0.001773  -0.082825  -0.260911  0.002068  3.886399  0.0
C  C64  1  0.72732274  0.16061340  0.05674022  1  0.271464  -0.002235  -0.069411  -0.081252  -0.001422  3.899986  -0.002
C  C65  1  0.72731379  0.33938565  0.44325321  1  0.271618  -0.002234  -0.069456  -0.081365  -0.001422  3.899863  -0.002
C  C66  1  0.27268993  0.83938590  0.94325982  1  0.271267  0.002234  -0.069565  -0.081452  0.001422  3.900018  0.002
C  C67  1  0.27267403  0.66061090  0.55674672  1  0.271469  0.002235  -0.06944  -0.081311  0.001422  3.899865  0.002
C  C68  1  0.02471366  0.29956092  0.04376100  1  0.258977  0.000255  -0.07691  -0.240738  0.000246  3.957717  0.0
C  C69  1  0.02470292  0.20043577  0.45623968  1  0.258841  0.000256  -0.076811  -0.240373  0.000246  3.957535  0.0
C  C70  1  0.97529591  0.70044205  0.95624209  1  0.258908  -0.000254  -0.076845  -0.240434  -0.000245  3.957474  0.0
C  C71  1  0.97529267  0.79956720  0.54376122  1  0.258881  -0.000255  -0.076864  -0.240514  -0.000246  3.957697  0.0
C  C72  1  0.04482417  0.29726743  0.93238047  1  1.565276  0.00056  0.206889  0.614029  0.00047  4.178289  0.0
C  C73  1  0.04478322  0.20271865  0.56762218  1  1.565497  0.00056  0.206549  0.613269  0.00047  4.178884  0.0
C  C74  1  0.95518695  0.70273463  0.06762331  1  1.56525  -0.00056  0.206678  0.613505  -0.000471  4.178624  0.0
C  C75  1  0.95522014  0.79728433  0.43237945  1  1.565141  -0.000562  0.206662  0.613479  -0.000472  4.17882  0.0
C  C76  1  0.59041272  0.39096235  0.36374828  1  0.230786  -0.000148  -0.07537  -0.105991  -0.000701  3.868468  0.001
C  C77  1  0.59041853  0.10903163  0.13624162  1  0.230678  -0.000148  -0.075391  -0.106219  -0.0007  3.868547  0.001
C  C78  1  0.40957045  0.60903328  0.63624943  1  0.230548  0.000148  -0.075381  -0.105987  0.0007  3.868241  -0.001
C  C79  1  0.40959260  0.89097135  0.86375928  1  0.230855  0.000149  -0.075369  -0.106127  0.0007  3.868544  -0.001
C  C80  1  0.06789329  0.48442266  0.28875377  1  1.566725  -0.000368  0.21  0.607675  -0.0015  4.154107  0.0
C  C81  1  0.06786983  0.01561060  0.21124619  1  1.566428  -0.000365  0.209888  0.607471  -0.001496  4.153439  0.0
C  C82  1  0.93210541  0.51558398  0.71124726  1  1.56636  0.000368  0.210056  0.607931  0.001498  4.153462  0.0
C  C83  1  0.93212576  0.98439237  0.78874960  1  1.567717  0.000366  0.210081  0.607803  0.001497  4.153837  0.0
C  C84  1  0.56296301  0.40726122  0.18441382  1  0.271509  -0.000612  -0.076559  -0.108805  -0.001221  3.855112  0.001
C  C85  1  0.56297297  0.09273927  0.31557551  1  0.271551  -0.000609  -0.076462  -0.10886  -0.001219  3.855235  0.001
C  C86  1  0.43703258  0.59273716  0.81558545  1  0.271578  0.000611  -0.076555  -0.108844  0.001221  3.855088  -0.001
C  C87  1  0.43703971  0.90726095  0.68442164  1  0.271723  0.000611  -0.07648  -0.10875  0.00122  3.854938  -0.001
N  N88  1  0.70331226  0.40442102  0.27031998  1  -0.9899  -0.099202  -0.343423  -0.056027  -0.067125  3.484997  -0.085
N  N89  1  0.70331325  0.09558270  0.22967136  1  -0.989947  -0.0992  -0.343541  -0.056224  -0.067122  3.485308  -0.085
N  N90  1  0.29667401  0.59558103  0.72968089  1  -0.989972  0.099218  -0.343371  -0.055941  0.067135  3.484811  0.085
N  N91  1  0.29669943  0.90442119  0.77032738  1  -0.989818  0.09918  -0.343537  -0.056222  0.067109  3.48528  0.085
N  N92  1  0.82035129  0.27961975  0.08616457  1  -1.042904  0.001035  -0.356149  -0.114319  0.000526  3.582618  0.0
N  N93  1  0.82034602  0.22037901  0.41383206  1  -1.043183  0.001029  -0.356136  -0.114265  0.000522  3.582484  0.0
N  N94  1  0.17965362  0.72038414  0.91383564  1  -1.043103  -0.001023  -0.356089  -0.114378  -0.000518  3.582734  0.0
N  N95  1  0.17964957  0.77961846  0.58616864  1  -1.043393  -0.001041  -0.356085  -0.114228  -0.00053  3.582491  0.0
O  O96  1  0.12254199  0.37139033  0.28162021  1  -1.121049  -0.082298  -0.319486  -0.500637  -0.054779  2.371865  -0.075
O  O97  1  0.12254566  0.12862532  0.21837635  1  -1.121202  -0.082226  -0.319386  -0.500426  -0.054732  2.372509  -0.075
O  O98  1  0.87744583  0.62861356  0.71837196  1  -1.121083  0.082275  -0.319445  -0.500641  0.054763  2.371657  0.075
O  O99  1  0.87746701  0.87137397  0.78161857  1  -1.121112  0.082248  -0.319394  -0.500541  0.054747  2.372554  0.075
O  O100  1  0.19571120  0.57055026  0.30522140  1  -1.185976  -0.011598  -0.314927  -0.561955  -0.007449  2.317011  -0.009
O  O101  1  0.19576178  0.92945457  0.19477634  1  -1.185476  -0.011593  -0.315018  -0.562188  -0.007446  2.315421  -0.009
O  O102  1  0.80426886  0.42944445  0.69477920  1  -1.185785  0.011593  -0.315027  -0.562211  0.007446  2.316327  0.009
O  O103  1  0.80424779  0.07053647  0.80521683  1  -1.186751  0.011595  -0.315114  -0.562267  0.007448  2.316135  0.009
O  O104  1  0.22470111  0.27711607  0.89885472  1  -1.208038  0.000194  -0.327987  -0.584713  5.7e-05  2.205933  0.0
O  O105  1  0.22466356  0.22289422  0.60115812  1  -1.208083  0.000195  -0.327878  -0.584394  5.7e-05  2.205602  0.0
O  O106  1  0.77532089  0.72289700  0.10115020  1  -1.207866  -0.000194  -0.327887  -0.584457  -5.7e-05  2.206005  0.0
O  O107  1  0.77532115  0.77710417  0.39884334  1  -1.207546  -0.000196  -0.328012  -0.584592  -5.8e-05  2.205416  0.0
O  O108  1  0.87990402  0.31793046  0.88334169  1  -1.181731  0.000216  -0.327965  -0.575602  3.1e-05  2.330232  0.0
O  O109  1  0.87987634  0.18203003  0.61665309  1  -1.181997  0.000216  -0.327772  -0.57532  3.1e-05  2.330786  0.0
O  O110  1  0.12011487  0.68206058  0.11666024  1  -1.181976  -0.000216  -0.327918  -0.575407  -3.1e-05  2.330258  0.0
O  O111  1  0.12011304  0.81796927  0.38334694  1  -1.182162  -0.000217  -0.32777  -0.575339  -3.1e-05  2.330935  0.0
O  O112  1  0.51188170  0.74999963  0.25000472  1  -1.30218  -0.000444  -0.584186  -0.777285  -0.000209  2.123439  0.0
O  O113  1  0.48811700  0.24999509  0.75000025  1  -1.302123  0.000444  -0.584203  -0.777347  0.000209  2.123518  0.0
