# generated using pymatgen
data_CuH4C7N4O3
_symmetry_space_group_name_H-M   'P 1'
_cell_length_a   6.89487883
_cell_length_b   8.36301451
_cell_length_c   8.49671325
_cell_angle_alpha   112.45309353
_cell_angle_beta   107.26971398
_cell_angle_gamma   96.08968487
_symmetry_Int_Tables_number   1
_chemical_formula_structural   CuH4C7N4O3
_chemical_formula_sum   'Cu2 H8 C14 N8 O6'
_cell_volume   418.80019015
_cell_formula_units_Z   2
loop_
 _symmetry_equiv_pos_site_id
 _symmetry_equiv_pos_as_xyz
  1  'x, y, z'
loop_
 _atom_site_type_symbol
 _atom_site_label
 _atom_site_symmetry_multiplicity
 _atom_site_fract_x
 _atom_site_fract_y
 _atom_site_fract_z
 _atom_site_occupancy
 _atom_site_pbe_cm5_charge
 _atom_site_pbe_ddec_charge
 _atom_site_pbe_ddec_spin_density
 _atom_site_pbe_ddec_sum_bond_order
 _atom_site_pbe_magmom
Cu  Cu0  1  0.10581652  0.24387266  0.07413282  1  0.804468  0.978651  -0.744971  2.294828  -0.586
Cu  Cu1  1  0.89416318  0.75611541  0.92584838  1  0.80451  0.978626  -0.744807  2.294892  -0.586
H  H2  1  0.84402914  0.37639637  0.21939428  1  0.292042  0.381491  -0.000506  0.959187  0.0
H  H3  1  0.15596751  0.62361719  0.78060955  1  0.29202  0.381462  -0.000504  0.95919  0.0
H  H4  1  0.75540298  0.33314119  0.01008107  1  0.302303  0.386945  -0.000285  0.92955  0.0
H  H5  1  0.24460402  0.66687607  0.98992075  1  0.302309  0.38694  -0.000285  0.929482  0.0
H  H6  1  0.34966133  0.07626056  0.93761490  1  0.294958  0.388097  -0.0003  0.950574  0.0
H  H7  1  0.65033463  0.92374071  0.06237618  1  0.294976  0.38812  -0.000301  0.950568  0.0
H  H8  1  0.36075147  0.02509191  0.10279861  1  0.298214  0.38722  -0.000467  0.947052  -0.001
H  H9  1  0.63924434  0.97490397  0.89718936  1  0.298185  0.387174  -0.000466  0.947091  -0.001
C  C10  1  0.26846892  0.24037178  0.44656434  1  0.207642  0.337568  0.007687  4.058975  0.002
C  C11  1  0.73153424  0.75962514  0.55346938  1  0.207725  0.337586  0.007709  4.059151  0.002
C  C12  1  0.52082392  0.40232871  0.74604340  1  0.200802  0.34066  0.006766  4.0514  0.006
C  C13  1  0.47917139  0.59767513  0.25394372  1  0.200735  0.340575  0.00679  4.051317  0.006
C  C14  1  0.12353389  0.86572306  0.33991667  1  0.206515  0.335795  0.00539  4.063068  0.0
C  C15  1  0.87646912  0.13427729  0.66009585  1  0.206414  0.335664  0.005403  4.062371  0.0
C  C16  1  0.24444880  0.77489029  0.57828216  1  0.187053  0.304978  0.002872  4.070798  0.003
C  C17  1  0.75553706  0.22510334  0.42171313  1  0.187045  0.304949  0.00288  4.07066  0.003
C  C18  1  0.38024938  0.23972753  0.61184320  1  -0.040482  -0.240275  -0.030724  4.15932  -0.031
C  C19  1  0.61974808  0.76026492  0.38816751  1  -0.040501  -0.240361  -0.030791  4.159206  -0.031
C  C20  1  0.37252950  0.08811485  0.65434825  1  0.126143  0.35326  0.004421  4.170494  0.004
C  C21  1  0.62746902  0.91188529  0.34565249  1  0.12619  0.353316  0.004436  4.170145  0.004
C  C22  1  0.24166019  0.91291672  0.52267696  1  -0.050597  -0.260435  -0.015596  4.197639  -0.016
C  C23  1  0.75832888  0.08708203  0.47731387  1  -0.05052  -0.26035  -0.015604  4.197448  -0.016
N  N24  1  0.17142061  0.25097227  0.31347700  1  -0.373777  -0.437826  -0.047472  3.29718  -0.059
N  N25  1  0.82862503  0.74902314  0.68653495  1  -0.373853  -0.437751  -0.047468  3.297786  -0.059
N  N26  1  0.64043330  0.53770316  0.85550748  1  -0.344744  -0.440883  -0.014461  3.084172  -0.018
N  N27  1  0.35956926  0.46228977  0.14447523  1  -0.344725  -0.440836  -0.014499  3.083815  -0.018
N  N28  1  0.02469616  0.82174129  0.18558010  1  -0.370225  -0.419726  -0.041236  3.259224  -0.05
N  N29  1  0.97530065  0.17826874  0.81444136  1  -0.370177  -0.419609  -0.04126  3.259147  -0.05
N  N30  1  0.25037562  0.66194852  0.62778065  1  -0.310398  -0.385036  -0.007697  2.890331  -0.009
N  N31  1  0.74963023  0.33805534  0.37221616  1  -0.310404  -0.38502  -0.007711  2.890073  -0.009
O  O32  1  0.48824250  0.11216038  0.81518542  1  -0.300943  -0.511023  -0.004358  2.259476  -0.006
O  O33  1  0.51174136  0.88784110  0.18480391  1  -0.301015  -0.511094  -0.004359  2.25915  -0.006
O  O34  1  0.88543607  0.38670082  0.11914851  1  -0.558466  -0.720734  -0.062313  2.153196  -0.086
O  O35  1  0.11457411  0.61329786  0.88085697  1  -0.558462  -0.720662  -0.062297  2.153106  -0.086
O  O36  1  0.26549683  0.05058835  0.00702667  1  -0.570475  -0.778702  -0.056817  2.252139  -0.08
O  O37  1  0.73449880  0.94941732  0.99298002  1  -0.570487  -0.778756  -0.056798  2.252334  -0.08
