# generated using pymatgen
data_ZnH17C22I(NO3)2
_symmetry_space_group_name_H-M   'P 1'
_cell_length_a   8.11171944
_cell_length_b   10.53778625
_cell_length_c   13.38362889
_cell_angle_alpha   75.14323706
_cell_angle_beta   73.87968207
_cell_angle_gamma   83.28236858
_symmetry_Int_Tables_number   1
_chemical_formula_structural   ZnH17C22I(NO3)2
_chemical_formula_sum   'Zn2 H34 C44 I2 N4 O12'
_cell_volume   1061.01118215
_cell_formula_units_Z   2
loop_
 _symmetry_equiv_pos_site_id
 _symmetry_equiv_pos_as_xyz
  1  'x, y, z'
loop_
 _atom_site_type_symbol
 _atom_site_label
 _atom_site_symmetry_multiplicity
 _atom_site_fract_x
 _atom_site_fract_y
 _atom_site_fract_z
 _atom_site_occupancy
 _atom_site_hle17_bader_spin_density
 _atom_site_hle17_ddec_charge
 _atom_site_hle17_ddec_spin_density
 _atom_site_hle17_ddec_sum_bond_order
 _atom_site_hle17_magmom
 _atom_site_hse06_10hf_bader_spin_density
 _atom_site_hse06_10hf_ddec_charge
 _atom_site_hse06_10hf_ddec_spin_density
 _atom_site_hse06_10hf_ddec_sum_bond_order
 _atom_site_hse06_10hf_magmom
 _atom_site_hse06_bader_spin_density
 _atom_site_hse06_ddec_charge
 _atom_site_hse06_ddec_spin_density
 _atom_site_hse06_ddec_sum_bond_order
 _atom_site_hse06_magmom
 _atom_site_pbe_bader_spin_density
 _atom_site_pbe_cm5_charge
 _atom_site_pbe_ddec_charge
 _atom_site_pbe_ddec_spin_density
 _atom_site_pbe_ddec_sum_bond_order
 _atom_site_pbe_magmom
Zn  Zn0  1  0.73525126  0.23989841  0.74330482  1  0  0.983308  0  1.871089  0  0  0.789806  0  2.345943  0  0  0.837407  0  2.29186  0  0  0.69371  0.756763  0  2.382765  0
Zn  Zn1  1  0.26474804  0.76010182  0.25669638  1  0  0.983415  0  1.870967  0  0  0.789869  0  2.345811  0  0  0.837476  0  2.291729  0  0  0.693753  0.756833  0  2.382639  0
H  H2  1  0.09304576  0.16107812  0.67477317  1  0  0.095242  0  0.960634  0  0  0.102163  0  1.025908  0  0  0.105143  0  1.022563  0  0  0.12064  0.099871  0  1.028477  0
H  H3  1  0.90695379  0.83891815  0.32523024  1  0  0.095201  0  0.960603  0  0  0.102137  0  1.02586  0  0  0.105116  0  1.022517  0  0  0.120632  0.099847  0  1.02843  0
H  H4  1  0.37528399  0.26062780  0.58500740  1  0  0.129076  0  0.96283  0  0  0.131735  0  1.032912  0  0  0.136503  0  1.02989  0  0  0.112407  0.12824  0  1.035332  0
H  H5  1  0.62471570  0.73936655  0.41499338  1  0  0.129001  0  0.96291  0  0  0.13171  0  1.032935  0  0  0.13644  0  1.029962  0  0  0.112405  0.128215  0  1.03536  0
H  H6  1  0.10593010  0.64195950  0.57933514  1  0  0.111344  0  0.955056  0  0  0.121304  0  1.016043  0  0  0.124289  0  1.015493  0  0  0.106931  0.119066  0  1.016787  0
H  H7  1  0.89406693  0.35803697  0.42065596  1  0  0.111344  0  0.955157  0  0  0.12133  0  1.016126  0  0  0.124317  0  1.015573  0  0  0.106954  0.119091  0  1.016868  0
H  H8  1  0.83578771  0.52577617  0.66651869  1  0  0.065016  0  0.965115  0  0  0.07201  0  1.036024  0  0  0.074304  0  1.033723  0  0  0.109339  0.070264  0  1.037821  0
H  H9  1  0.16421077  0.47421726  0.33347798  1  0  0.064956  0  0.965187  0  0  0.07194  0  1.03611  0  0  0.074231  0  1.033814  0  0  0.109314  0.070193  0  1.037907  0
H  H10  1  0.37436828  0.22727393  0.78185622  1  0  0.08602  0  0.947013  0  0  0.095704  0  1.008377  0  0  0.09791  0  1.006659  0  0  0.120557  0.094054  0  1.009632  0
H  H11  1  0.62563566  0.77273426  0.21813594  1  0  0.086063  0  0.946921  0  0  0.095691  0  1.008377  0  0  0.097898  0  1.00666  0  0  0.120576  0.094043  0  1.009636  0
H  H12  1  0.10103430  0.31995865  0.88077333  1  0  0.130741  0  0.957516  0  0  0.139027  0  1.018237  0  0  0.142498  0  1.017223  0  0  0.11185  0.136491  0  1.019086  0
H  H13  1  0.89896984  0.68004658  0.11922011  1  0  0.130681  0  0.957491  0  0  0.138969  0  1.018233  0  0  0.142439  0  1.017223  0  0  0.111836  0.136435  0  1.019084  0
H  H14  1  0.40001418  0.60551593  0.92687431  1  0  0.118372  0  0.9457  0  0  0.126334  0  1.008013  0  0  0.12897  0  1.008793  0  0  0.108935  0.124551  0  1.007405  0
H  H15  1  0.59998914  0.39448128  0.07313203  1  0  0.118484  0  0.945759  0  0  0.126492  0  1.007994  0  0  0.129131  0  1.00877  0  0  0.108981  0.124707  0  1.007389  0
H  H16  1  0.66246243  0.49352507  0.83342270  1  0  0.060673  0  0.981468  0  0  0.063881  0  1.059723  0  0  0.066773  0  1.056502  0  0  0.103429  0.061673  0  1.062209  0
H  H17  1  0.33754072  0.50647513  0.16658011  1  0  0.060675  0  0.981562  0  0  0.063917  0  1.059765  0  0  0.066811  0  1.056543  0  0  0.103438  0.06171  0  1.062251  0
H  H18  1  0.09613344  0.62066374  0.99668272  1  0  0.11718  0  0.964768  0  0  0.12757  0  1.026018  0  0  0.131349  0  1.023225  0  0  0.10614  0.124759  0  1.028183  0
H  H19  1  0.90387106  0.37933551  0.00331780  1  0  0.117191  0  0.964761  0  0  0.127589  0  1.02599  0  0  0.131367  0  1.023198  0  0  0.106141  0.124778  0  1.028155  0
H  H20  1  0.33488615  0.23492709  0.39023524  1  0  0.11537  0  0.958179  0  0  0.126015  0  1.02249  0  0  0.129928  0  1.020457  0  0  0.099524  0.123196  0  1.024097  0
H  H21  1  0.66511052  0.76507413  0.60976546  1  0  0.115391  0  0.958227  0  0  0.126066  0  1.022495  0  0  0.129968  0  1.020477  0  0  0.099549  0.123249  0  1.024103  0
H  H22  1  0.49009075  0.10080509  0.09649697  1  0  0.121424  0  0.973747  0  0  0.131693  0  1.037245  0  0  0.135759  0  1.034452  0  0  0.100791  0.128735  0  1.039428  0
H  H23  1  0.50990836  0.89919811  0.90350219  1  0  0.121418  0  0.973726  0  0  0.131719  0  1.037196  0  0  0.135772  0  1.034414  0  0  0.100795  0.128732  0  1.03941  0
H  H24  1  0.83661976  0.04212912  0.29959414  1  0  0.135635  0  0.975925  0  0  0.144076  0  1.042697  0  0  0.148399  0  1.039373  0  0  0.107331  0.140963  0  1.045255  0
H  H25  1  0.16337807  0.95787405  0.70040674  1  0  0.135632  0  0.976045  0  0  0.144061  0  1.042829  0  0  0.148383  0  1.039508  0  0  0.107326  0.140948  0  1.045386  0
H  H26  1  0.87684195  0.12514169  0.41772115  1  0  0.076465  0  0.964448  0  0  0.082101  0  1.041033  0  0  0.08456  0  1.038041  0  0  0.099253  0.080373  0  1.043277  0
H  H27  1  0.12315490  0.87485657  0.58228159  1  0  0.076425  0  0.964533  0  0  0.082077  0  1.041089  0  0  0.084536  0  1.038097  0  0  0.099235  0.080349  0  1.043331  0
H  H28  1  0.76231934  0.98359962  0.49088814  1  0  0.096225  0  0.924368  0  0  0.107771  0  0.986474  0  0  0.109272  0  0.985406  0  0  0.109897  0.106718  0  0.987332  0
H  H29  1  0.23768009  0.01639863  0.50911417  1  0  0.096323  0  0.924337  0  0  0.107869  0  0.986419  0  0  0.109371  0  0.985349  0  0  0.10994  0.106814  0  0.987277  0
H  H30  1  0.65474489  0.93992592  0.04793934  1  0  0.07942  0  0.946924  0  0  0.088257  0  1.017439  0  0  0.090013  0  1.01592  0  0  0.103616  0.087019  0  1.018703  0
H  H31  1  0.34525801  0.06007825  0.95205975  1  0  0.07938  0  0.946873  0  0  0.088209  0  1.017415  0  0  0.089966  0  1.015895  0  0  0.103579  0.086968  0  1.018678  0
H  H32  1  0.88167347  0.91581103  0.00350508  1  0  0.107611  0  0.930253  0  0  0.115378  0  0.998682  0  0  0.117853  0  0.996785  0  0  0.115096  0.113556  0  1.00026  0
H  H33  1  0.11833192  0.08419408  0.99649640  1  0  0.107575  0  0.930208  0  0  0.115363  0  0.998642  0  0  0.117841  0  0.99674  0  0  0.115095  0.113539  0  1.000219  0
H  H34  1  0.41266373  0.63639028  0.50990299  1  0  0.108486  0  0.990013  0  0  0.112837  0  1.058754  0  0  0.116961  0  1.056002  0  0  0.104391  0.109741  0  1.060985  0
H  H35  1  0.58732931  0.36360810  0.49009139  1  0  0.108494  0  0.990074  0  0  0.112883  0  1.058771  0  0  0.117025  0  1.055995  0  0  0.104395  0.109776  0  1.061012  0
C  C36  1  0.10322164  0.26701537  0.65109636  1  0  0.139006  0  3.681373  0  0  0.105603  0  3.930071  0  0  0.113672  0  3.947131  0  0  0.04755  0.100442  0  3.918609  0
C  C37  1  0.89677810  0.73297798  0.34890610  1  0  0.139081  0  3.681509  0  0  0.10565  0  3.930219  0  0  0.113725  0  3.947275  0  0  0.047574  0.100491  0  3.91876  0
C  C38  1  0.25904802  0.32389218  0.60003575  1  0  -0.163696  0  3.66721  0  0  -0.177534  0  3.911399  0  0  -0.186553  0  3.931565  0  0  -0.077233  -0.171764  0  3.898138  0
C  C39  1  0.74095411  0.67610416  0.39996274  1  0  -0.163645  0  3.667392  0  0  -0.177514  0  3.911544  0  0  -0.186505  0  3.931729  0  0  -0.077233  -0.171747  0  3.898287  0
C  C40  1  0.26555034  0.46201390  0.57184612  1  0  0.149427  0  3.782658  0  0  0.163944  0  4.010324  0  0  0.170776  0  4.031934  0  0  0.01248  0.159627  0  3.995497  0
C  C41  1  0.73445057  0.53798150  0.42814976  1  0  0.149455  0  3.7825  0  0  0.16398  0  4.010187  0  0  0.170812  0  4.031794  0  0  0.012481  0.159666  0  3.995357  0
C  C42  1  0.10948624  0.53498945  0.59802136  1  0  -0.167161  0  3.702058  0  0  -0.184595  0  3.946739  0  0  -0.193466  0  3.968456  0  0  -0.083568  -0.178882  0  3.932204  0
C  C43  1  0.89051096  0.46500398  0.40197552  1  0  -0.167255  0  3.702176  0  0  -0.184742  0  3.946859  0  0  -0.193611  0  3.968572  0  0  -0.083647  -0.179025  0  3.932317  0
C  C44  1  0.95798084  0.47056678  0.64737107  1  0  0.120606  0  3.752287  0  0  0.08806  0  4.005132  0  0  0.095887  0  4.023812  0  0  0.04087  0.083088  0  3.992339  0
C  C45  1  0.04202001  0.52942957  0.35262688  1  0  0.120637  0  3.752332  0  0  0.088117  0  4.005146  0  0  0.095949  0  4.023829  0  0  0.040882  0.083146  0  3.992352  0
C  C46  1  0.42357888  0.53004303  0.51916915  1  0  -0.092578  0  3.674676  0  0  -0.111921  0  3.922386  0  0  -0.115518  0  3.94153  0  0  -0.07969  -0.10938  0  3.909319  0
C  C47  1  0.57641557  0.46995337  0.48082612  1  0  -0.092609  0  3.67464  0  0  -0.112003  0  3.922342  0  0  -0.115614  0  3.941472  0  0  -0.079679  -0.109458  0  3.909286  0
C  C48  1  0.37366736  0.31032108  0.81650992  1  0  0.127956  0  3.709335  0  0  0.097291  0  3.958862  0  0  0.10454  0  3.977568  0  0  0.043402  0.09249  0  3.946444  0
C  C49  1  0.62633556  0.68968316  0.18348392  1  0  0.127922  0  3.709415  0  0  0.097293  0  3.958924  0  0  0.104542  0  3.977628  0  0  0.043394  0.092493  0  3.946504  0
C  C50  1  0.22183643  0.36320729  0.87141637  1  0  -0.158596  0  3.666599  0  0  -0.176488  0  3.911356  0  0  -0.185144  0  3.933209  0  0  -0.078717  -0.170986  0  3.897102  0
C  C51  1  0.77816417  0.63679301  0.12857937  1  0  -0.158453  0  3.666731  0  0  -0.176355  0  3.911468  0  0  -0.185009  0  3.933321  0  0  -0.078715  -0.170852  0  3.897211  0
C  C52  1  0.22733152  0.47052367  0.91500431  1  0  0.137245  0  3.807999  0  0  0.152744  0  4.037446  0  0  0.158961  0  4.059096  0  0  0.008639  0.148559  0  4.022752  0
C  C53  1  0.77267163  0.52947656  0.08499625  1  0  0.137146  0  3.808202  0  0  0.152637  0  4.037682  0  0  0.158851  0  4.059337  0  0  0.008617  0.148455  0  4.022985  0
C  C54  1  0.38908946  0.52066326  0.89703832  1  0  -0.156199  0  3.682557  0  0  -0.172401  0  3.924486  0  0  -0.181359  0  3.947174  0  0  -0.078757  -0.166502  0  3.909165  0
C  C55  1  0.61091779  0.47933303  0.10296306  1  0  -0.156276  0  3.682534  0  0  -0.17251  0  3.924461  0  0  -0.18147  0  3.947146  0  0  -0.078768  -0.16661  0  3.909138  0
C  C56  1  0.53556198  0.45974565  0.84341479  1  0  0.128856  0  3.728385  0  0  0.098807  0  3.977527  0  0  0.106161  0  3.995783  0  0  0.042783  0.09404  0  3.965347  0
C  C57  1  0.46443731  0.54025456  0.15658716  1  0  0.128825  0  3.728171  0  0  0.098757  0  3.977336  0  0  0.106109  0  3.995591  0  0  0.042761  0.093992  0  3.965157  0
C  C58  1  0.07690393  0.52809194  0.97957743  1  0  -0.110303  0  3.709707  0  0  -0.131097  0  3.959507  0  0  -0.134089  0  3.977648  0  0  -0.085142  -0.128772  0  3.946828  0
C  C59  1  0.92309941  0.47190533  0.02042441  1  0  -0.110222  0  3.709663  0  0  -0.131017  0  3.959469  0  0  -0.134006  0  3.977605  0  0  -0.085108  -0.128694  0  3.94679  0
C  C60  1  0.58770594  0.13833309  0.35625000  1  0  0.313594  0  3.814322  0  0  0.307965  0  4.07039  0  0  0.321766  0  4.084769  0  0  0.082101  0.298485  0  4.060571  0
C  C61  1  0.41229202  0.86166812  0.64375123  1  0  0.313509  0  3.814136  0  0  0.307984  0  4.070127  0  0  0.321785  0  4.084504  0  0  0.082096  0.298508  0  4.0603  0
C  C62  1  0.42985325  0.18835595  0.33372648  1  0  -0.265186  0  3.778771  0  0  -0.298273  0  4.037091  0  0  -0.305589  0  4.05611  0  0  -0.130371  -0.293354  0  4.024454  0
C  C63  1  0.57014861  0.81164427  0.66627504  1  0  -0.265181  0  3.778727  0  0  -0.298325  0  4.037029  0  0  -0.305632  0  4.056055  0  0  -0.130362  -0.293412  0  4.024395  0
C  C64  1  0.40051214  0.17357420  0.23999236  1  0  0.085374  0  3.731748  0  0  0.112077  0  3.989732  0  0  0.117545  0  4.013671  0  0  -0.046071  0.10843  0  3.973549  0
C  C65  1  0.59948709  0.82642700  0.76000941  1  0  0.085346  0  3.731689  0  0  0.112083  0  3.989664  0  0  0.117553  0  4.013598  0  0  -0.04605  0.108438  0  3.973475  0
C  C66  1  0.52101909  0.11304788  0.16723518  1  0  -0.266357  0  3.761733  0  0  -0.29766  0  4.014443  0  0  -0.304942  0  4.033274  0  0  -0.13163  -0.292901  0  4.001633  0
C  C67  1  0.47897989  0.88695725  0.83276587  1  0  -0.266337  0  3.761608  0  0  -0.297704  0  4.014341  0  0  -0.304976  0  4.033173  0  0  -0.131684  -0.292925  0  4.001553  0
C  C68  1  0.67779292  0.06624144  0.19103205  1  0  0.318085  0  3.809788  0  0  0.312149  0  4.068918  0  0  0.326149  0  4.082695  0  0  0.08485  0.302598  0  4.059286  0
C  C69  1  0.32220741  0.93376271  0.80896896  1  0  0.318075  0  3.809817  0  0  0.312198  0  4.068968  0  0  0.326214  0  4.082728  0  0  0.084801  0.302644  0  4.059336  0
C  C70  1  0.71232696  0.07870437  0.28512180  1  0  -0.331115  0  3.719855  0  0  -0.362396  0  3.974279  0  0  -0.37088  0  3.990017  0  0  -0.129157  -0.356777  0  3.963923  0
C  C71  1  0.28767080  0.92129977  0.71488039  1  0  -0.331111  0  3.719876  0  0  -0.362386  0  3.974231  0  0  -0.370873  0  3.98997  0  0  -0.129139  -0.35677  0  3.963874  0
C  C72  1  0.76020111  0.09068787  0.48049392  1  0  -0.065841  0  3.631089  0  0  -0.121355  0  3.889538  0  0  -0.117833  0  3.889431  0  0  -0.071432  -0.123951  0  3.889625  0
C  C73  1  0.23979312  0.90931138  0.51950831  1  0  -0.066017  0  3.631171  0  0  -0.121533  0  3.889703  0  0  -0.118012  0  3.889589  0  0  -0.071488  -0.124128  0  3.88979  0
C  C74  1  0.77339913  0.11978710  0.58328334  1  0  0.655582  0  3.898418  0  0  0.606357  0  4.19977  0  0  0.638841  0  4.193831  0  0  0.194399  0.584332  0  4.202936  0
C  C75  1  0.22659785  0.88020918  0.41672050  1  0  0.655754  0  3.898309  0  0  0.606494  0  4.199696  0  0  0.638982  0  4.193753  0  0  0.19446  0.58447  0  4.202865  0
C  C76  1  0.77787497  0.98516769  0.03188838  1  0  -0.080619  0  3.640944  0  0  -0.137215  0  3.902918  0  0  -0.134687  0  3.904472  0  0  -0.073943  -0.139088  0  3.901996  0
C  C77  1  0.22213055  0.01483546  0.96811271  1  0  -0.080492  0  3.640719  0  0  -0.137065  0  3.90272  0  0  -0.134533  0  3.904281  0  0  -0.07388  -0.1389  0  3.901714  0
C  C78  1  0.78624920  0.10964329  0.94207484  1  0  0.651996  0  3.909517  0  0  0.603714  0  4.213138  0  0  0.636339  0  4.206255  0  0  0.193379  0.581584  0  4.216977  0
C  C79  1  0.21375491  0.89036181  0.05792760  1  0  0.652001  0  3.909469  0  0  0.60369  0  4.213127  0  0  0.636317  0  4.20624  0  0  0.193286  0.581564  0  4.216969  0
I  I80  1  0.16637633  0.24755626  0.20252681  1  0  0.029323  0  1.321392  0  0  0.027978  0  1.606097  0  0  0.024765  0  1.598655  0  0  0.129359  0.030135  0  1.611627  0
I  I81  1  0.83361795  0.75244197  0.79747785  1  0  0.029314  0  1.321463  0  0  0.027971  0  1.606142  0  0  0.02476  0  1.598697  0  0  0.129352  0.030129  0  1.611669  0
N  N82  1  0.95356902  0.33850174  0.67383137  1  0  -0.337733  0  3.321457  0  0  -0.248452  0  3.59857  0  0  -0.268086  0  3.61172  0  0  -0.334775  -0.23536  0  3.589553  0
N  N83  1  0.04642919  0.66149558  0.32616759  1  0  -0.337675  0  3.321532  0  0  -0.248382  0  3.598614  0  0  -0.26803  0  3.611777  0  0  -0.334736  -0.235294  0  3.589603  0
N  N84  1  0.52919162  0.35598551  0.80327961  1  0  -0.337769  0  3.298006  0  0  -0.25174  0  3.570965  0  0  -0.271186  0  3.585533  0  0  -0.336253  -0.238772  0  3.56109  0
N  N85  1  0.47081244  0.64402065  0.19671741  1  0  -0.3378  0  3.297965  0  0  -0.251785  0  3.570939  0  0  -0.271231  0  3.585506  0  0  -0.336273  -0.238819  0  3.561067  0
O  O86  1  0.90275947  0.07246785  0.61563611  1  0  -0.620387  0  1.945742  0  0  -0.575952  0  2.183934  0  0  -0.600974  0  2.177005  0  0  -0.321166  -0.558226  0  2.188005  0
O  O87  1  0.09723752  0.92752844  0.38436699  1  0  -0.620531  0  1.945752  0  0  -0.576094  0  2.183981  0  0  -0.601111  0  2.177038  0  0  -0.321249  -0.558367  0  2.188055  0
O  O88  1  0.65430677  0.19542570  0.62866018  1  0  -0.644492  0  2.032837  0  0  -0.569375  0  2.302136  0  0  -0.598201  0  2.2891  0  0  -0.331615  -0.549066  0  2.310232  0
O  O89  1  0.34569271  0.80457155  0.37134305  1  0  -0.644539  0  2.032839  0  0  -0.569328  0  2.302072  0  0  -0.598152  0  2.289028  0  0  -0.331567  -0.549021  0  2.310172  0
O  O90  1  0.84573878  0.21265966  0.94379172  1  0  -0.617813  0  1.923497  0  0  -0.574725  0  2.152205  0  0  -0.596751  0  2.142894  0  0  -0.327479  -0.559075  0  2.157975  0
O  O91  1  0.15426667  0.78734448  0.05620919  1  0  -0.617777  0  1.923465  0  0  -0.574682  0  2.152165  0  0  -0.596706  0  2.142849  0  0  -0.327398  -0.559032  0  2.157935  0
O  O92  1  0.72801225  0.09088647  0.86643390  1  0  -0.647246  0  2.059477  0  0  -0.573923  0  2.341471  0  0  -0.603688  0  2.326949  0  0  -0.337995  -0.552861  0  2.350604  0
O  O93  1  0.27198929  0.90911863  0.13356897  1  0  -0.647311  0  2.059446  0  0  -0.573945  0  2.341418  0  0  -0.603713  0  2.326903  0  0  -0.337996  -0.55289  0  2.350556  0
O  O94  1  0.60802113  0.15231612  0.45094462  1  0  -0.267539  0  2.338594  0  0  -0.194494  0  2.566966  0  0  -0.21205  0  2.568736  0  0  -0.178666  -0.181937  0  2.56526  0
O  O95  1  0.39197579  0.84768117  0.54905679  1  0  -0.267399  0  2.338492  0  0  -0.194457  0  2.566911  0  0  -0.212012  0  2.568674  0  0  -0.178648  -0.181901  0  2.565206  0
O  O96  1  0.80585585  0.00302363  0.12801619  1  0  -0.264053  0  2.331795  0  0  -0.194776  0  2.563545  0  0  -0.212319  0  2.565838  0  0  -0.180021  -0.182218  0  2.561415  0
O  O97  1  0.19414455  0.99697954  0.87198500  1  0  -0.264061  0  2.33174  0  0  -0.194902  0  2.563571  0  0  -0.212469  0  2.565878  0  0  -0.179997  -0.182346  0  2.561435  0
