# generated using pymatgen
data_CuH12C20N2(ClO4)2
_symmetry_space_group_name_H-M   'P 1'
_cell_length_a   9.33460463
_cell_length_b   9.33453595
_cell_length_c   12.51463742
_cell_angle_alpha   82.44060386
_cell_angle_beta   82.44069674
_cell_angle_gamma   87.62035108
_symmetry_Int_Tables_number   1
_chemical_formula_structural   CuH12C20N2(ClO4)2
_chemical_formula_sum   'Cu2 H24 C40 N4 Cl4 O16'
_cell_volume   1071.25596224
_cell_formula_units_Z   2
loop_
 _symmetry_equiv_pos_site_id
 _symmetry_equiv_pos_as_xyz
  1  'x, y, z'
loop_
 _atom_site_type_symbol
 _atom_site_label
 _atom_site_symmetry_multiplicity
 _atom_site_fract_x
 _atom_site_fract_y
 _atom_site_fract_z
 _atom_site_occupancy
 _atom_site_hle17_ddec_charge
 _atom_site_hle17_ddec_spin_density
 _atom_site_hle17_ddec_sum_bond_order
 _atom_site_hle17_magmom
 _atom_site_hse06_10hf_ddec_charge
 _atom_site_hse06_10hf_ddec_spin_density
 _atom_site_hse06_10hf_ddec_sum_bond_order
 _atom_site_hse06_10hf_magmom
 _atom_site_hse06_ddec_charge
 _atom_site_hse06_ddec_spin_density
 _atom_site_hse06_ddec_sum_bond_order
 _atom_site_hse06_magmom
 _atom_site_pbe_cm5_charge
 _atom_site_pbe_ddec_charge
 _atom_site_pbe_ddec_spin_density
 _atom_site_pbe_ddec_sum_bond_order
 _atom_site_pbe_magmom
Cu  Cu0  1  0.80459422  0.19540957  0.74999952  1  0.821484  0.731264  1.930884  0.517  0.812713  0.826096  2.31784  0.645  0.921548  0.904363  2.213446  0.738  0.758426  0.761336  0.761487  2.359668  0.576
Cu  Cu1  1  0.19540224  0.80459394  0.25000121  1  0.821358  -0.73126  1.931153  -0.517  0.812645  -0.826098  2.31809  -0.645  0.921554  -0.904372  2.213594  -0.738  0.758443  0.761398  -0.761489  2.359667  -0.577
H  H2  1  0.81331584  0.73920125  0.22207759  1  0.124004  -0.000225  0.937598  0.0  0.130067  -5e-05  1.002917  0.0  0.133578  -8e-06  0.999537  0.0  0.115271  0.1269  -5.3e-05  1.006255  0.0
H  H3  1  0.26079522  0.18667703  0.27791971  1  0.124034  -0.000205  0.937552  0.0  0.130098  -5e-05  1.002849  0.0  0.133616  -7e-06  0.99947  0.0  0.115287  0.126923  -5.3e-05  1.006186  0.0
H  H4  1  0.18668511  0.26079801  0.77792152  1  0.123985  0.000204  0.93758  0.0  0.130053  5e-05  1.00291  0.0  0.133563  7e-06  0.99953  0.0  0.115258  0.126884  5.3e-05  1.00625  0.0
H  H5  1  0.73920457  0.81332438  0.72207931  1  0.124021  0.000204  0.937551  0.0  0.1301  5e-05  1.002834  0.0  0.133619  7e-06  0.999456  0.0  0.115277  0.126924  5.3e-05  1.006173  0.0
H  H6  1  0.70620813  0.97741119  0.14375379  1  0.115064  -0.000407  0.935016  0.0  0.124572  -0.000423  0.993008  0.0  0.127189  -0.000292  0.993048  0.0  0.11315  0.122738  -0.000516  0.992665  -0.001
H  H7  1  0.02258754  0.29378431  0.35624165  1  0.114986  -0.000411  0.935036  0.0  0.124498  -0.000423  0.99304  0.0  0.127114  -0.000292  0.993081  0.0  0.113114  0.122656  -0.000516  0.992701  -0.001
H  H8  1  0.29379170  0.02258914  0.85624613  1  0.115086  0.000417  0.935005  0.0  0.124589  0.000422  0.993002  0.0  0.127205  0.000292  0.993042  0.0  0.113153  0.122754  0.000516  0.992659  0.001
H  H9  1  0.97741225  0.70621709  0.64375817  1  0.115001  0.000417  0.935045  0.0  0.124505  0.000423  0.993054  0.0  0.127122  0.000292  0.993094  0.0  0.113116  0.122664  0.000516  0.99271  0.001
H  H10  1  0.43773126  0.99648958  0.14163611  1  0.10013  -0.001172  0.932031  -0.002  0.10519  -0.001016  0.996576  -0.002  0.107891  -0.000709  0.993769  -0.001  0.124214  0.1032  -0.001248  0.998232  -0.002
H  H11  1  0.00350418  0.56226075  0.35836296  1  0.100112  -0.00117  0.932035  -0.002  0.105081  -0.001016  0.996673  -0.002  0.10778  -0.000709  0.993865  -0.001  0.124198  0.103094  -0.001248  0.99833  -0.002
H  H12  1  0.56227077  0.00350970  0.85836290  1  0.100084  0.001169  0.932075  0.002  0.10516  0.001016  0.996611  0.002  0.107862  0.000709  0.9938  0.001  0.124195  0.103169  0.001248  0.998266  0.002
H  H13  1  0.99649562  0.43774066  0.64163606  1  0.100118  0.001172  0.932033  0.002  0.10511  0.001016  0.996659  0.002  0.10781  0.000709  0.99385  0.001  0.124213  0.103121  0.001248  0.998316  0.002
H  H14  1  0.66035880  0.22711056  0.40109017  1  0.100336  -9e-06  0.942866  0.0  0.115395  3e-06  1.010896  0.0  0.115898  3e-06  1.010462  0.0  0.102015  0.114964  -2e-06  1.011411  0.0
H  H15  1  0.77288380  0.33963572  0.09891047  1  0.100427  5e-06  0.942799  0.0  0.115476  3e-06  1.010833  0.0  0.115974  3e-06  1.010405  0.0  0.102066  0.115043  -2e-06  1.011348  0.0
H  H16  1  0.33964000  0.77288755  0.59891405  1  0.100299  -2e-06  0.942921  0.0  0.115368  -3e-06  1.010934  0.0  0.115869  -3e-06  1.010503  0.0  0.10201  0.114937  2e-06  1.011447  0.0
H  H17  1  0.22711821  0.66036465  0.90108684  1  0.100429  3e-06  0.942787  0.0  0.115453  -3e-06  1.010854  0.0  0.115962  -4e-06  1.010414  0.0  0.102062  0.115022  2e-06  1.011368  0.0
H  H18  1  0.73377184  0.33802545  0.48704635  1  0.09202  -2.2e-05  0.940206  0.0  0.107124  1e-06  1.007694  0.0  0.1068  -1.5e-05  1.008129  0.0  0.098862  0.107143  5e-06  1.007651  0.0
H  H19  1  0.66196683  0.26622202  0.01295533  1  0.092115  -1.1e-05  0.940167  0.0  0.107189  1e-06  1.007675  0.0  0.106882  -1.5e-05  1.008092  0.0  0.098866  0.107205  5e-06  1.007632  0.0
H  H20  1  0.26622470  0.66197590  0.51295537  1  0.092019  1.7e-05  0.940206  0.0  0.107116  -1e-06  1.00769  0.0  0.106796  1.5e-05  1.00812  0.0  0.098844  0.107133  -5e-06  1.007646  0.0
H  H21  1  0.33803513  0.73377942  0.98704268  1  0.091998  1.7e-05  0.940154  0.0  0.107121  -1e-06  1.007619  0.0  0.106784  1.5e-05  1.008068  0.0  0.098831  0.107136  -5e-06  1.007575  0.0
H  H22  1  0.54957050  0.28180889  0.51806701  1  0.103236  -2.5e-05  0.939185  0.0  0.119994  -2.3e-05  1.004091  0.0  0.120516  -1.5e-05  1.003866  0.0  0.099455  0.118957  -2.5e-05  1.00569  0.0
H  H23  1  0.71818180  0.45042460  0.98193478  1  0.103283  -1.2e-05  0.939111  0.0  0.120033  -2.4e-05  1.004021  0.0  0.120553  -1.6e-05  1.003798  0.0  0.099456  0.118996  -2.5e-05  1.005621  0.0
H  H24  1  0.45042588  0.71819679  0.48193353  1  0.103287  1.8e-05  0.93911  0.0  0.119974  2.4e-05  1.004085  0.0  0.120496  1.5e-05  1.003864  0.0  0.099445  0.118939  2.5e-05  1.005681  0.0
H  H25  1  0.28181584  0.54957678  0.01806444  1  0.103272  1.7e-05  0.939055  0.0  0.120012  2.4e-05  1.003987  0.0  0.120534  1.5e-05  1.003759  0.0  0.099443  0.118974  2.5e-05  1.005585  0.0
C  C26  1  0.90911787  0.99431647  0.91470089  1  0.257059  -0.004218  3.84293  -0.009  0.240207  0.000833  4.120968  -0.002  0.262932  0.000601  4.133601  -0.001  0.096498  0.224421  0.001243  4.113093  -0.002
C  C27  1  0.00567998  0.09088146  0.58529907  1  0.257187  -0.004315  3.842791  -0.009  0.24033  0.000874  4.120836  -0.002  0.263055  0.000606  4.133466  -0.001  0.096491  0.224534  0.001243  4.112961  -0.002
C  C28  1  0.09087911  0.00567410  0.08529782  1  0.256765  0.004365  3.843188  0.009  0.240064  -0.000888  4.121189  0.002  0.26276  -0.000606  4.133802  0.001  0.096398  0.22428  -0.001243  4.113328  0.002
C  C29  1  0.99432626  0.90911999  0.41470413  1  0.256826  0.004238  3.843178  0.009  0.240105  -0.000846  4.121148  0.002  0.262806  -0.000602  4.133765  0.001  0.09641  0.224325  -0.001243  4.113291  0.002
C  C30  1  0.94777273  0.86533292  0.97473037  1  -0.151764  0.011039  3.825149  0.012  -0.159243  0.003298  4.118604  0.004  -0.17611  0.001696  4.143027  0.002  -0.045254  -0.146994  0.004756  4.099997  0.006
C  C31  1  0.13466473  0.05223145  0.52527146  1  -0.151809  0.011171  3.825016  0.012  -0.159326  0.003236  4.11851  0.004  -0.176189  0.001684  4.142936  0.002  -0.045208  -0.147078  0.004755  4.099912  0.006
C  C32  1  0.05222433  0.13465550  0.02526773  1  -0.151699  -0.011229  3.825284  -0.012  -0.159365  -0.003218  4.118822  -0.004  -0.176196  -0.001681  4.143283  -0.002  -0.045323  -0.14712  -0.004757  4.100214  -0.006
C  C33  1  0.86534564  0.94777436  0.47473494  1  -0.15184  -0.011066  3.825456  -0.012  -0.159482  -0.00328  4.118961  -0.004  -0.176317  -0.001693  4.143421  -0.002  -0.045326  -0.147252  -0.004758  4.10035  -0.006
C  C34  1  0.96422799  0.13720781  0.94071749  1  0.284089  0.005857  3.851711  0.006  0.265499  0.00248  4.1277  0.003  0.286174  0.001443  4.136333  0.002  0.11143  0.252013  0.003482  4.121066  0.004
C  C35  1  0.86279419  0.03577283  0.55928365  1  0.284129  0.005797  3.851772  0.006  0.265555  0.002494  4.127728  0.003  0.28623  0.001448  4.13636  0.002  0.111421  0.252104  0.003482  4.121052  0.004
C  C36  1  0.03577011  0.86278169  0.05928041  1  0.284438  -0.005792  3.85148  -0.006  0.265654  -0.002498  4.127634  -0.003  0.286444  -0.001448  4.136103  -0.002  0.111515  0.252158  -0.003483  4.121029  -0.004
C  C37  1  0.13721615  0.96423407  0.44072105  1  0.284369  -0.005835  3.851498  -0.006  0.265623  -0.002485  4.127601  -0.003  0.286401  -0.001445  4.136083  -0.002  0.111479  0.252121  -0.003483  4.121008  -0.004
C  C38  1  0.46160795  0.65015932  0.23602165  1  0.182815  0.001521  3.69897  0.002  0.166217  -0.001692  3.955178  -0.001  0.177282  -0.00033  3.973779  0.0  0.13046  0.158975  -0.002459  3.943885  -0.002
C  C39  1  0.34984197  0.53838872  0.26398835  1  0.182761  0.001374  3.698957  0.002  0.16618  -0.001694  3.955129  -0.001  0.177241  -0.000332  3.97373  0.0  0.130447  0.158948  -0.00246  3.943824  -0.002
C  C40  1  0.53839181  0.34984205  0.76398137  1  0.182775  -0.001425  3.699069  -0.002  0.166184  0.001696  3.955276  0.001  0.177248  0.000332  3.973868  0.0  0.130409  0.158952  0.00246  3.94396  0.002
C  C41  1  0.65015781  0.46161267  0.73601306  1  0.182606  -0.001427  3.699104  -0.002  0.166037  0.001691  3.95528  0.001  0.177102  0.000331  3.973874  0.0  0.130424  0.158802  0.00246  3.943961  0.002
C  C42  1  0.60886782  0.63429745  0.24917462  1  -0.121704  -0.004795  3.716899  -0.005  -0.109382  -0.002329  3.959254  -0.002  -0.119977  -0.002087  3.97768  -0.002  -0.001575  -0.103293  -0.002702  3.947493  -0.002
C  C43  1  0.36570139  0.39112686  0.25083185  1  -0.121605  -0.004648  3.716896  -0.004  -0.10931  -0.002325  3.959193  -0.002  -0.119905  -0.002089  3.977622  -0.002  -0.001561  -0.103217  -0.002702  3.947412  -0.002
C  C44  1  0.39113305  0.36570397  0.75082509  1  -0.121686  0.004693  3.716784  0.004  -0.109342  0.002326  3.959141  0.002  -0.119937  0.002088  3.977568  0.002  -0.001554  -0.103254  0.002702  3.947376  0.002
C  C45  1  0.63429518  0.60887452  0.74916588  1  -0.121316  0.004695  3.716667  0.004  -0.109094  0.00233  3.958979  0.002  -0.119688  0.002091  3.977409  0.002  -0.00151  -0.102998  0.002702  3.947195  0.002
C  C46  1  0.69902587  0.75141203  0.21220077  1  0.002798  0.006221  3.671436  0.006  -0.029591  0.002288  3.92841  0.002  -0.021379  0.00231  3.940941  0.002  -0.052774  -0.035821  0.00227  3.921969  0.002
C  C47  1  0.24858501  0.30096721  0.28780042  1  0.002696  0.006037  3.671732  0.006  -0.029652  0.002285  3.92861  0.002  -0.021449  0.002312  3.941154  0.002  -0.0528  -0.035874  0.00227  3.922154  0.002
C  C48  1  0.30097503  0.24858830  0.78779984  1  0.002758  -0.006058  3.671364  -0.006  -0.029661  -0.002287  3.928357  -0.002  -0.021449  -0.002313  3.940891  -0.002  -0.05282  -0.035891  -0.00227  3.921916  -0.002
C  C49  1  0.75141264  0.69903418  0.71219720  1  0.002611  -0.006065  3.671541  -0.006  -0.02975  -0.002289  3.928452  -0.002  -0.02155  -0.002312  3.940996  -0.002  -0.052826  -0.035972  -0.00227  3.921998  -0.002
C  C50  1  0.64034130  0.88257081  0.16925040  1  -0.093039  -0.008297  3.693971  -0.009  -0.106926  -0.004305  3.947306  -0.005  -0.113974  -0.003485  3.965511  -0.004  -0.071243  -0.102951  -0.004708  3.935939  -0.005
C  C51  1  0.11742783  0.35965119  0.33074904  1  -0.092878  -0.008155  3.693913  -0.009  -0.106782  -0.004304  3.947208  -0.005  -0.113834  -0.003487  3.965417  -0.004  -0.07116  -0.102798  -0.004708  3.93583  -0.005
C  C52  1  0.35966073  0.11742845  0.83075021  1  -0.093092  0.008159  3.693897  0.009  -0.10695  0.004306  3.947245  0.005  -0.114001  0.003489  3.965451  0.004  -0.071218  -0.102975  0.004708  3.935878  0.005
C  C53  1  0.88257096  0.64034803  0.66925107  1  -0.092891  0.008168  3.693952  0.009  -0.106772  0.004308  3.94724  0.005  -0.113823  0.003488  3.965452  0.004  -0.071168  -0.102787  0.004708  3.935863  0.005
C  C54  1  0.49187504  0.89436372  0.16658807  1  0.163485  0.00498  3.642887  0.006  0.133255  0.000599  3.899268  0.002  0.144783  0.001327  3.915372  0.003  0.062635  0.124758  -0.000118  3.890635  0.001
C  C55  1  0.10563239  0.50811909  0.33341382  1  0.163643  0.00489  3.642689  0.006  0.133468  0.000598  3.899074  0.002  0.145  0.001327  3.915167  0.003  0.062718  0.124967  -0.000117  3.890446  0.001
C  C56  1  0.50812595  0.10563446  0.83341194  1  0.163604  -0.004899  3.642844  -0.006  0.133346  -0.000599  3.899253  -0.002  0.144875  -0.001328  3.915347  -0.003  0.062665  0.124848  0.000118  3.890611  -0.001
C  C57  1  0.89436641  0.49188014  0.66658550  1  0.163598  -0.004914  3.642639  -0.006  0.133371  -0.0006  3.899066  -0.002  0.144903  -0.001326  3.915161  -0.003  0.062666  0.12487  0.000118  3.890429  -0.001
C  C58  1  0.67509949  0.50341127  0.30779082  1  0.582673  -0.000949  3.825229  -0.001  0.533394  -0.000883  4.117909  -0.001  0.566311  -0.000575  4.110374  -0.001  0.23431  0.511475  -0.001012  4.121606  -0.001
C  C59  1  0.49658734  0.32489680  0.19221478  1  0.58241  -0.000923  3.825469  -0.001  0.533186  -0.000886  4.118064  -0.001  0.566103  -0.000576  4.110534  -0.001  0.234209  0.511259  -0.001012  4.121755  -0.001
C  C60  1  0.32490135  0.49659124  0.69220720  1  0.582639  0.000938  3.825199  0.001  0.533336  0.000884  4.117913  0.001  0.566253  0.000577  4.110381  0.001  0.234302  0.511422  0.001012  4.121611  0.001
C  C61  1  0.50340816  0.67510457  0.80778225  1  0.582139  0.000949  3.825973  0.001  0.533062  0.000883  4.11839  0.001  0.565978  0.000576  4.110866  0.001  0.234174  0.511135  0.001012  4.12208  0.001
C  C62  1  0.63670750  0.31311689  0.45313853  1  -0.064595  -3e-05  3.578018  0.0  -0.168887  -2.9e-05  3.852943  0.0  -0.160026  -2.3e-05  3.855201  0.0  -0.146216  -0.175277  -4.3e-05  3.852202  0.0
C  C63  1  0.68687482  0.36328832  0.04686300  1  -0.064832  -9.9e-05  3.578043  0.0  -0.169087  -2.8e-05  3.852978  0.0  -0.160239  -2e-05  3.855232  0.0  -0.146266  -0.175479  -4.3e-05  3.852236  0.0
C  C64  1  0.36329120  0.68688449  0.54686219  1  -0.064611  6.9e-05  3.577986  0.0  -0.168842  2.7e-05  3.852904  0.0  -0.159985  2.2e-05  3.85516  0.0  -0.146167  -0.175223  4.3e-05  3.852157  0.0
C  C65  1  0.31312610  0.63671202  0.95313521  1  -0.064719  6.2e-05  3.577827  0.0  -0.168981  2.7e-05  3.852767  0.0  -0.160111  2.2e-05  3.855028  0.0  -0.1462  -0.175371  4.3e-05  3.852021  0.0
N  N66  1  0.40626347  0.78070216  0.19826913  1  -0.323605  -0.071616  3.304799  -0.087  -0.284098  -0.054244  3.601557  -0.07  -0.318394  -0.043778  3.621676  -0.06  -0.342422  -0.266247  -0.059721  3.590624  -0.074
N  N67  1  0.21929524  0.59373050  0.30173745  1  -0.32372  -0.071516  3.304867  -0.087  -0.284193  -0.054245  3.601564  -0.07  -0.318484  -0.043778  3.621675  -0.06  -0.342442  -0.266348  -0.059726  3.590631  -0.074
N  N68  1  0.59373634  0.21929814  0.80173319  1  -0.323572  0.071545  3.304694  0.087  -0.28408  0.054245  3.601485  0.07  -0.318356  0.043779  3.621593  0.06  -0.342375  -0.266205  0.059723  3.590553  0.074
N  N69  1  0.78070354  0.40626871  0.69826506  1  -0.323598  0.071557  3.304732  0.087  -0.284044  0.054248  3.601428  0.07  -0.318328  0.043778  3.621542  0.06  -0.34237  -0.26617  0.059724  3.590501  0.074
Cl  Cl70  1  0.88795124  0.70261856  0.94851112  1  -0.037287  0.001041  1.410352  0.001  -0.025017  7.8e-05  1.643349  0.0  -0.026216  1.8e-05  1.640988  0.0  0.002913  -0.024444  7e-05  1.647418  0.0
Cl  Cl71  1  0.29737945  0.11205119  0.55149087  1  -0.037256  0.001044  1.410321  0.001  -0.024974  7.2e-05  1.643334  0.0  -0.026175  1.9e-05  1.640971  0.0  0.002905  -0.0244  7e-05  1.647404  0.0
Cl  Cl72  1  0.11204140  0.29737194  0.05148959  1  -0.037262  -0.001047  1.410315  -0.001  -0.024951  -6.9e-05  1.643344  0.0  -0.02615  -1.8e-05  1.640975  0.0  0.002954  -0.024379  -7e-05  1.647415  0.0
Cl  Cl73  1  0.70263205  0.88795356  0.44851393  1  -0.037227  -0.001043  1.410369  -0.001  -0.024915  -7.5e-05  1.643388  0.0  -0.026114  -1.9e-05  1.641022  0.0  0.002961  -0.024343  -7.1e-05  1.647462  0.0
O  O74  1  0.82783082  0.00190344  0.83928127  1  -0.468163  0.085143  2.116233  0.11  -0.447208  0.051233  2.382853  0.073  -0.490259  0.036854  2.382071  0.055  -0.296991  -0.419897  0.062171  2.381848  0.085
O  O75  1  0.99809630  0.17217132  0.66071915  1  -0.468246  0.08513  2.116223  0.11  -0.447313  0.051258  2.382833  0.073  -0.490366  0.036856  2.382047  0.055  -0.29703  -0.420002  0.062178  2.381833  0.085
O  O76  1  0.17216399  0.99808710  0.16071763  1  -0.468022  -0.085114  2.116525  -0.11  -0.447076  -0.051257  2.383096  -0.073  -0.490148  -0.036854  2.38232  -0.055  -0.296934  -0.419794  -0.062171  2.382073  -0.085
O  O77  1  0.00191204  0.82783122  0.33928695  1  -0.467979  -0.085141  2.116434  -0.11  -0.447062  -0.05124  2.382975  -0.073  -0.490129  -0.036853  2.382197  -0.055  -0.296951  -0.419779  -0.062168  2.381952  -0.085
O  O78  1  0.92713158  0.25099593  0.88491947  1  -0.465194  -0.001679  2.043071  -0.001  -0.440325  -0.000238  2.289253  0.001  -0.465268  3e-05  2.282342  0.001  -0.281548  -0.424251  -0.000239  2.294545  0.0
O  O79  1  0.74900633  0.07286811  0.61508011  1  -0.465239  -0.001602  2.043076  -0.001  -0.440342  -0.000244  2.289229  0.001  -0.465296  3.4e-05  2.282343  0.001  -0.28153  -0.424277  -0.000241  2.2945  0.0
O  O80  1  0.07286415  0.74899895  0.11507894  1  -0.465287  0.001581  2.043098  0.001  -0.440368  0.000243  2.289368  -0.001  -0.465373  -3.7e-05  2.28242  -0.001  -0.281561  -0.424313  0.000239  2.294661  0.0
O  O81  1  0.25099963  0.92714092  0.38492161  1  -0.465248  0.001652  2.043066  0.001  -0.440328  0.000238  2.289334  -0.001  -0.465315  -3.3e-05  2.282366  -0.001  -0.28151  -0.42427  0.000239  2.294627  0.0
O  O82  1  0.80002164  0.46152517  0.28525418  1  -0.503992  -0.001181  1.937282  -0.001  -0.463222  -0.000585  2.149479  -0.001  -0.482939  -0.000353  2.142769  0.0  -0.265488  -0.449887  -0.001021  2.153225  -0.001
O  O83  1  0.53847506  0.19997225  0.21475233  1  -0.503857  -0.001208  1.937542  -0.001  -0.463107  -0.000581  2.149695  -0.001  -0.482827  -0.000349  2.142993  0.0  -0.265401  -0.449774  -0.001021  2.15344  -0.001
O  O84  1  0.19998039  0.53847521  0.71474072  1  -0.50396  0.001189  1.9374  0.001  -0.463171  0.000583  2.149607  0.001  -0.482889  0.000351  2.1429  0.0  -0.265492  -0.449837  0.001021  2.15335  0.001
O  O85  1  0.46151092  0.80002471  0.78524042  1  -0.503808  0.001182  1.937759  0.001  -0.463081  0.000583  2.149813  0.001  -0.4828  0.000351  2.143111  0.0  -0.265383  -0.449748  0.001021  2.153557  0.001
O  O86  1  0.58248548  0.44178349  0.39126040  1  -0.289166  -0.000242  2.325139  0.0  -0.213381  -0.00015  2.565522  0.0  -0.235638  -9.5e-05  2.566017  0.0  -0.166944  -0.197174  -0.000139  2.563424  0.0
O  O87  1  0.55821193  0.41751014  0.10874235  1  -0.289135  -0.000221  2.325204  0.0  -0.213358  -0.000152  2.565548  0.0  -0.235615  -9.8e-05  2.566048  0.0  -0.166986  -0.197142  -0.000139  2.56344  0.0
O  O88  1  0.41751878  0.55821475  0.60873609  1  -0.289137  0.000233  2.325067  0.0  -0.213352  0.000153  2.565446  0.0  -0.235609  9.7e-05  2.565941  0.0  -0.166953  -0.197165  0.000139  2.563362  0.0
O  O89  1  0.44179114  0.58249022  0.89125726  1  -0.28902  0.000233  2.325257  0.0  -0.213315  0.000154  2.565587  0.0  -0.23557  9.7e-05  2.566082  0.0  -0.166984  -0.197101  0.000139  2.56348  0.0
