# generated using pymatgen
data_ZnH18C16(NO2)2
_symmetry_space_group_name_H-M   'P 1'
_cell_length_a   8.34922386
_cell_length_b   10.61842909
_cell_length_c   10.82985836
_cell_angle_alpha   113.49574751
_cell_angle_beta   93.10158872
_cell_angle_gamma   96.36762888
_symmetry_Int_Tables_number   1
_chemical_formula_structural   ZnH18C16(NO2)2
_chemical_formula_sum   'Zn2 H36 C32 N4 O8'
_cell_volume   869.98444158
_cell_formula_units_Z   2
loop_
 _symmetry_equiv_pos_site_id
 _symmetry_equiv_pos_as_xyz
  1  'x, y, z'
loop_
 _atom_site_type_symbol
 _atom_site_label
 _atom_site_symmetry_multiplicity
 _atom_site_fract_x
 _atom_site_fract_y
 _atom_site_fract_z
 _atom_site_occupancy
 _atom_site_hle17_bader_spin_density
 _atom_site_hle17_ddec_charge
 _atom_site_hle17_ddec_spin_density
 _atom_site_hle17_ddec_sum_bond_order
 _atom_site_hle17_magmom
 _atom_site_hse06_10hf_bader_spin_density
 _atom_site_hse06_10hf_ddec_charge
 _atom_site_hse06_10hf_ddec_spin_density
 _atom_site_hse06_10hf_ddec_sum_bond_order
 _atom_site_hse06_10hf_magmom
 _atom_site_hse06_bader_spin_density
 _atom_site_hse06_ddec_charge
 _atom_site_hse06_ddec_spin_density
 _atom_site_hse06_ddec_sum_bond_order
 _atom_site_hse06_magmom
 _atom_site_pbe_bader_spin_density
 _atom_site_pbe_cm5_charge
 _atom_site_pbe_ddec_charge
 _atom_site_pbe_ddec_spin_density
 _atom_site_pbe_ddec_sum_bond_order
 _atom_site_pbe_magmom
Zn  Zn0  1  0.30154302  0.84911280  0.61699871  1  0  0.973781  0  1.904402  0  0  0.772346  0  2.393803  0  0  0.820332  0  2.338078  0  0  0.691546  0.738853  0  2.432181  0
Zn  Zn1  1  0.69846047  0.15088459  0.38299605  1  0  0.973817  0  1.904325  0  0  0.772379  0  2.393765  0  0  0.820353  0  2.338042  0  0  0.691523  0.738884  0  2.43214  0
H  H2  1  0.17969407  0.77554831  0.33700933  1  0  0.08025  0  0.952508  0  0  0.090147  0  1.015666  0  0  0.092377  0  1.013739  0  0  0.122321  0.088459  0  1.0172  0
H  H3  1  0.82031754  0.22445421  0.66298780  1  0  0.080308  0  0.952606  0  0  0.090207  0  1.015758  0  0  0.092436  0  1.013836  0  0  0.122341  0.088519  0  1.017293  0
H  H4  1  0.23323190  0.62446208  0.10328041  1  0  0.110146  0  0.932349  0  0  0.124083  0  0.983307  0  0  0.127347  0  0.982609  0  0  0.113497  0.121717  0  0.984044  0
H  H5  1  0.76677677  0.37553730  0.89671905  1  0  0.110204  0  0.932407  0  0  0.124124  0  0.983369  0  0  0.127388  0  0.982671  0  0  0.113529  0.121759  0  0.984105  0
H  H6  1  0.60687271  0.48029774  0.28517818  1  0  0.1321  0  0.977755  0  0  0.139345  0  1.04221  0  0  0.143209  0  1.040238  0  0  0.110591  0.136468  0  1.043887  0
H  H7  1  0.39313972  0.51970270  0.71481815  1  0  0.132007  0  0.977842  0  0  0.139195  0  1.042352  0  0  0.143053  0  1.040393  0  0  0.110542  0.136323  0  1.04403  0
H  H8  1  0.53222087  0.63348053  0.51042719  1  0  0.072782  0  0.938013  0  0  0.082544  0  1.001437  0  0  0.084431  0  1.000415  0  0  0.118718  0.081246  0  1.001882  0
H  H9  1  0.46778520  0.36651788  0.48956808  1  0  0.072816  0  0.938027  0  0  0.082568  0  1.001438  0  0  0.084462  0  1.000409  0  0  0.1187  0.081271  0  1.001883  0
H  H10  1  0.41526904  0.77941514  0.84667682  1  0  0.082892  0  0.960471  0  0  0.089728  0  1.027771  0  0  0.092613  0  1.024936  0  0  0.114724  0.087393  0  1.030099  0
H  H11  1  0.58472416  0.22059161  0.15332684  1  0  0.082989  0  0.960433  0  0  0.089773  0  1.027762  0  0  0.092677  0  1.024914  0  0  0.114739  0.087437  0  1.030092  0
H  H12  1  0.66106341  0.86343332  0.02310820  1  0  0.131742  0  0.958741  0  0  0.14005  0  1.02045  0  0  0.143774  0  1.019142  0  0  0.110892  0.137446  0  1.021386  0
H  H13  1  0.33892509  0.13656721  0.97689464  1  0  0.131774  0  0.958691  0  0  0.140077  0  1.020425  0  0  0.143802  0  1.019116  0  0  0.110873  0.137472  0  1.021362  0
H  H14  1  0.86828234  0.09354527  0.80576316  1  0  0.117257  0  0.933848  0  0  0.130338  0  0.987889  0  0  0.133373  0  0.987469  0  0  0.114138  0.128066  0  0.988429  0
H  H15  1  0.13171852  0.90645720  0.19424554  1  0  0.11721  0  0.933868  0  0  0.130292  0  0.987916  0  0  0.133322  0  0.987498  0  0  0.114108  0.128021  0  0.988455  0
H  H16  1  0.61677576  0.00383679  0.64171105  1  0  0.09114  0  0.957473  0  0  0.094651  0  1.029189  0  0  0.098072  0  1.025906  0  0  0.11675  0.09188  0  1.032031  0
H  H17  1  0.38322051  0.99616673  0.35829974  1  0  0.091094  0  0.957386  0  0  0.09457  0  1.029167  0  0  0.097989  0  1.025889  0  0  0.116712  0.091801  0  1.032009  0
H  H18  1  0.36065546  0.38109027  0.97205452  1  0  0.101366  0  0.920421  0  0  0.118228  0  0.977949  0  0  0.120178  0  0.976825  0  0  0.102227  0.116708  0  0.978932  0
H  H19  1  0.63934222  0.61890819  0.02794138  1  0  0.101266  0  0.920452  0  0  0.11817  0  0.97797  0  0  0.120117  0  0.976843  0  0  0.102224  0.116648  0  0.97896  0
H  H20  1  0.55980807  0.38974896  0.04299266  1  0  0.082611  0  0.930517  0  0  0.101507  0  0.987155  0  0  0.102652  0  0.987022  0  0  0.099248  0.10057  0  0.987404  0
H  H21  1  0.44019468  0.61024426  0.95700133  1  0  0.082472  0  0.930558  0  0  0.101463  0  0.987123  0  0  0.102608  0  0.986981  0  0  0.099199  0.100527  0  0.987374  0
H  H22  1  0.90371127  0.02998932  0.12376161  1  0  0.101412  0  0.951861  0  0  0.113438  0  1.019139  0  0  0.115469  0  1.01819  0  0  0.098644  0.111823  0  1.019982  0
H  H23  1  0.09628294  0.97000285  0.87623901  1  0  0.101387  0  0.95198  0  0  0.113342  0  1.019285  0  0  0.115375  0  1.018345  0  0  0.098632  0.11176  0  1.020094  0
H  H24  1  0.96793305  0.15102671  0.05435191  1  0  0.086295  0  0.918665  0  0  0.108448  0  0.968908  0  0  0.109082  0  0.969389  0  0  0.099544  0.107975  0  0.968502  0
H  H25  1  0.03206256  0.84896644  0.94565286  1  0  0.086301  0  0.91868  0  0  0.108446  0  0.968866  0  0  0.109084  0  0.969351  0  0  0.099514  0.107973  0  0.968466  0
H  H26  1  0.88874549  0.54781330  0.72395046  1  0  0.119045  0  0.977951  0  0  0.13617  0  1.039914  0  0  0.137787  0  1.040573  0  0  0.084953  0.135035  0  1.039482  0
H  H27  1  0.11125006  0.45219957  0.27606498  1  0  0.119044  0  0.978007  0  0  0.136154  0  1.039975  0  0  0.137771  0  1.040633  0  0  0.084941  0.13502  0  1.039542  0
H  H28  1  0.81960747  0.69464997  0.70570369  1  0  0.121915  0  0.961656  0  0  0.137525  0  1.029302  0  0  0.139531  0  1.029849  0  0  0.087574  0.136179  0  1.028839  0
H  H29  1  0.18038568  0.30536292  0.29431074  1  0  0.121898  0  0.961655  0  0  0.137527  0  1.02925  0  0  0.139532  0  1.029793  0  0  0.087586  0.136181  0  1.028789  0
H  H30  1  0.85193257  0.54869539  0.56053304  1  0  0.140532  0  0.943123  0  0  0.16114  0  0.999835  0  0  0.162963  0  1.000244  0  0  0.097975  0.159848  0  0.999502  0
H  H31  1  0.14805504  0.45131339  0.43947953  1  0  0.140601  0  0.942995  0  0  0.161184  0  0.999767  0  0  0.163  0  1.000181  0  0  0.097982  0.159891  0  0.999434  0
H  H32  1  0.14550347  0.30512549  0.67656174  1  0  0.127044  0  0.948537  0  0  0.14542  0  1.007877  0  0  0.148134  0  1.006399  0  0  0.089143  0.143396  0  1.009121  0
H  H33  1  0.85451460  0.69487278  0.32343855  1  0  0.127023  0  0.948585  0  0  0.145391  0  1.007947  0  0  0.148093  0  1.006482  0  0  0.089118  0.143367  0  1.009192  0
H  H34  1  0.02737760  0.15260992  0.54978266  1  0  0.138996  0  0.956269  0  0  0.157376  0  1.018543  0  0  0.159949  0  1.017619  0  0  0.096485  0.1555  0  1.019269  0
H  H35  1  0.97263299  0.84739368  0.45021302  1  0  0.138946  0  0.956258  0  0  0.15732  0  1.018541  0  0  0.159894  0  1.017614  0  0  0.096459  0.155444  0  1.019271  0
H  H36  1  0.21625243  0.21175732  0.51581229  1  0  0.126556  0  0.958975  0  0  0.144763  0  1.022033  0  0  0.146934  0  1.021972  0  0  0.090174  0.143306  0  1.021946  0
H  H37  1  0.78376018  0.78824418  0.48418262  1  0  0.126515  0  0.959019  0  0  0.144753  0  1.02202  0  0  0.14692  0  1.021961  0  0  0.090207  0.143314  0  1.021919  0
C  C38  1  0.27209569  0.70739685  0.31989564  1  0  0.135335  0  3.71842  0  0  0.102719  0  3.969074  0  0  0.110052  0  3.987405  0  0  0.052363  0.097996  0  3.956908  0
C  C39  1  0.72791454  0.29260462  0.68010287  1  0  0.135269  0  3.718442  0  0  0.102668  0  3.969122  0  0  0.109992  0  3.987445  0  0  0.052373  0.097946  0  3.956956  0
C  C40  1  0.30335124  0.62330853  0.19066969  1  0  -0.175172  0  3.716292  0  0  -0.191921  0  3.960656  0  0  -0.200476  0  3.982062  0  0  -0.079604  -0.18645  0  3.946466  0
C  C41  1  0.69666074  0.37669605  0.80933013  1  0  -0.175319  0  3.71632  0  0  -0.192025  0  3.960712  0  0  -0.200581  0  3.982117  0  0  -0.079619  -0.186555  0  3.946524  0
C  C42  1  0.42530035  0.53892673  0.17402895  1  0  0.17122  0  3.703428  0  0  0.186697  0  3.940221  0  0  0.192394  0  3.962825  0  0  0.021991  0.182794  0  3.924792  0
C  C43  1  0.57470812  0.46107165  0.82596732  1  0  0.17133  0  3.703051  0  0  0.186753  0  3.939967  0  0  0.192446  0  3.96256  0  0  0.021953  0.18285  0  3.924541  0
C  C44  1  0.50890175  0.54190038  0.29101231  1  0  -0.174261  0  3.670523  0  0  -0.189712  0  3.91096  0  0  -0.199157  0  3.933468  0  0  -0.07846  -0.183732  0  3.895929  0
C  C45  1  0.49110929  0.45809905  0.70898172  1  0  -0.174161  0  3.670361  0  0  -0.189549  0  3.910839  0  0  -0.198993  0  3.933353  0  0  -0.078375  -0.183577  0  3.895815  0
C  C46  1  0.46909544  0.62802386  0.41712228  1  0  0.141603  0  3.712584  0  0  0.110243  0  3.963658  0  0  0.117583  0  3.982588  0  0  0.055675  0.10574  0  3.950346  0
C  C47  1  0.53091081  0.37197560  0.58287158  1  0  0.141368  0  3.712602  0  0  0.110075  0  3.963632  0  0  0.117398  0  3.982552  0  0  0.055592  0.105573  0  3.950322  0
C  C48  1  0.51924719  0.84983436  0.84382528  1  0  0.125776  0  3.722611  0  0  0.093463  0  3.975061  0  0  0.101093  0  3.993836  0  0  0.044424  0.088623  0  3.962532  0
C  C49  1  0.48074305  0.15016931  0.15617611  1  0  0.125601  0  3.722711  0  0  0.093359  0  3.97512  0  0  0.100972  0  3.993898  0  0  0.04429  0.08852  0  3.962588  0
C  C50  1  0.65462516  0.89552382  0.93909863  1  0  -0.180001  0  3.686318  0  0  -0.195779  0  3.928478  0  0  -0.20533  0  3.950779  0  0  -0.083348  -0.189633  0  3.913522  0
C  C51  1  0.34536517  0.10447358  0.06090303  1  0  -0.180018  0  3.686284  0  0  -0.195865  0  3.928435  0  0  -0.205415  0  3.950742  0  0  -0.083265  -0.18972  0  3.913477  0
C  C52  1  0.78194735  0.98772035  0.92930969  1  0  0.172869  0  3.70569  0  0  0.187987  0  3.94313  0  0  0.194227  0  3.964666  0  0  0.021959  0.183879  0  3.928548  0
C  C53  1  0.21804243  0.01227391  0.07069253  1  0  0.172959  0  3.705715  0  0  0.188158  0  3.942926  0  0  0.1944  0  3.964472  0  0  0.022018  0.184048  0  3.928353  0
C  C54  1  0.76911700  0.02603599  0.81979172  1  0  -0.165224  0  3.687156  0  0  -0.18255  0  3.931335  0  0  -0.191377  0  3.953056  0  0  -0.078106  -0.176882  0  3.917098  0
C  C55  1  0.23087832  0.97396240  0.18021145  1  0  -0.165173  0  3.687118  0  0  -0.182543  0  3.931268  0  0  -0.191361  0  3.952981  0  0  -0.078096  -0.176876  0  3.917034  0
C  C56  1  0.63039731  0.97677927  0.72857423  1  0  0.127746  0  3.703274  0  0  0.094992  0  3.956388  0  0  0.102644  0  3.974312  0  0  0.045931  0.089903  0  3.944699  0
C  C57  1  0.36959590  0.02322744  0.27143311  1  0  0.127863  0  3.70303  0  0  0.095121  0  3.956137  0  0  0.102774  0  3.974056  0  0  0.046026  0.09003  0  3.944451  0
C  C58  1  0.46756819  0.45323410  0.03529426  1  0  -0.158153  0  3.67241  0  0  -0.201047  0  3.922579  0  0  -0.20307  0  3.934217  0  0  -0.150515  -0.199412  0  3.914276  0
C  C59  1  0.53243374  0.54676121  0.96470054  1  0  -0.157819  0  3.672217  0  0  -0.200842  0  3.922456  0  0  -0.202839  0  3.934069  0  0  -0.150446  -0.199209  0  3.914155  0
C  C60  1  0.92983627  0.04037196  0.02976312  1  0  -0.159385  0  3.667814  0  0  -0.201857  0  3.914434  0  0  -0.203888  0  3.925478  0  0  -0.15496  -0.200257  0  3.906658  0
C  C61  1  0.07015297  0.95961919  0.97023783  1  0  -0.159464  0  3.66804  0  0  -0.20174  0  3.914447  0  0  -0.203802  0  3.925524  0  0  -0.154925  -0.200162  0  3.906651  0
C  C62  1  0.07050633  0.67618075  0.67376234  1  0  0.73227  0  3.880493  0  0  0.694161  0  4.17314  0  0  0.727193  0  4.166177  0  0  0.198296  0.671817  0  4.17665  0
C  C63  1  0.92948673  0.32381886  0.32622737  1  0  0.732139  0  3.88057  0  0  0.694004  0  4.173262  0  0  0.727029  0  4.166305  0  0  0.198221  0.67166  0  4.176771  0
C  C64  1  0.89687605  0.61313777  0.66731487  1  0  -0.455245  0  3.674512  0  0  -0.526565  0  3.903097  0  0  -0.534249  0  3.907688  0  0  -0.255154  -0.521017  0  3.899435  0
C  C65  1  0.10311653  0.38687203  0.33269645  1  0  -0.455229  0  3.674406  0  0  -0.526489  0  3.902952  0  0  -0.534161  0  3.907549  0  0  -0.255092  -0.520941  0  3.899292  0
C  C66  1  0.22325201  0.10859881  0.65261728  1  0  0.737463  0  3.86426  0  0  0.703331  0  4.149552  0  0  0.736209  0  4.142952  0  0  0.19503  0.680997  0  4.152933  0
C  C67  1  0.77675139  0.89139127  0.34737732  1  0  0.737462  0  3.864314  0  0  0.703377  0  4.149537  0  0  0.736254  0  4.142937  0  0  0.195027  0.681041  0  4.15292  0
C  C68  1  0.15072466  0.20224389  0.59733033  1  0  -0.458005  0  3.681026  0  0  -0.532929  0  3.911148  0  0  -0.540538  0  3.914659  0  0  -0.254666  -0.52747  0  3.908456  0
C  C69  1  0.84928741  0.79775448  0.40266516  1  0  -0.457898  0  3.681086  0  0  -0.532865  0  3.911219  0  0  -0.540459  0  3.914748  0  0  -0.254679  -0.52743  0  3.90852  0
N  N70  1  0.35397312  0.71047450  0.43197677  1  0  -0.333568  0  3.310278  0  0  -0.250795  0  3.588317  0  0  -0.269862  0  3.602846  0  0  -0.332957  -0.237779  0  3.578367  0
N  N71  1  0.64603555  0.28952489  0.56802268  1  0  -0.3334  0  3.310271  0  0  -0.250718  0  3.588381  0  0  -0.269757  0  3.602891  0  0  -0.332913  -0.237703  0  3.578429  0
N  N72  1  0.50627633  0.89110957  0.74139264  1  0  -0.350391  0  3.354926  0  0  -0.262987  0  3.641248  0  0  -0.283127  0  3.654126  0  0  -0.341229  -0.249593  0  3.632513  0
N  N73  1  0.49371594  0.10889199  0.25860891  1  0  -0.350459  0  3.354913  0  0  -0.263034  0  3.641177  0  0  -0.283176  0  3.65406  0  0  -0.341222  -0.249641  0  3.632446  0
O  O74  1  0.08502164  0.78272955  0.64266047  1  0  -0.66258  0  2.046612  0  0  -0.579724  0  2.316572  0  0  -0.609924  0  2.302697  0  0  -0.340415  -0.558792  0  2.325307  0
O  O75  1  0.91496720  0.21727317  0.35733310  1  0  -0.66256  0  2.046674  0  0  -0.579745  0  2.316705  0  0  -0.609931  0  2.30282  0  0  -0.340446  -0.55881  0  2.325437  0
O  O76  1  0.18767484  0.62609450  0.70456112  1  0  -0.66556  0  1.879244  0  0  -0.621849  0  2.098397  0  0  -0.643749  0  2.087284  0  0  -0.347056  -0.606285  0  2.105192  0
O  O77  1  0.81231842  0.37390609  0.29543362  1  0  -0.66549  0  1.879245  0  0  -0.621781  0  2.098446  0  0  -0.643687  0  2.087345  0  0  -0.347022  -0.606217  0  2.105238  0
O  O78  1  0.27270011  0.00107165  0.56059093  1  0  -0.687519  0  2.006136  0  0  -0.608247  0  2.272809  0  0  -0.63824  0  2.258079  0  0  -0.353084  -0.587109  0  2.282268  0
O  O79  1  0.72730227  0.99891951  0.43940222  1  0  -0.687629  0  2.006157  0  0  -0.608302  0  2.272717  0  0  -0.638293  0  2.257987  0  0  -0.353066  -0.587167  0  2.282183  0
O  O80  1  0.22835978  0.13157522  0.77554970  1  0  -0.657081  0  1.865453  0  0  -0.614914  0  2.080521  0  0  -0.636652  0  2.070092  0  0  -0.345271  -0.599241  0  2.086886  0
O  O81  1  0.77164205  0.86841281  0.22444310  1  0  -0.657038  0  1.86541  0  0  -0.614915  0  2.080472  0  0  -0.636652  0  2.070042  0  0  -0.345253  -0.599238  0  2.086834  0
