# generated using pymatgen
data_DyCuH16C24N4ClO10
_symmetry_space_group_name_H-M   'P 1'
_cell_length_a   12.42536024
_cell_length_b   12.42946606
_cell_length_c   22.15484328
_cell_angle_alpha   98.63029564
_cell_angle_beta   97.95754516
_cell_angle_gamma   119.04706994
_symmetry_Int_Tables_number   1
_chemical_formula_structural   DyCuH16C24N4ClO10
_chemical_formula_sum   'Dy4 Cu4 H64 C96 N16 Cl4 O40'
_cell_volume   2867.63961216
_cell_formula_units_Z   4
loop_
 _symmetry_equiv_pos_site_id
 _symmetry_equiv_pos_as_xyz
  1  'x, y, z'
loop_
 _atom_site_type_symbol
 _atom_site_label
 _atom_site_symmetry_multiplicity
 _atom_site_fract_x
 _atom_site_fract_y
 _atom_site_fract_z
 _atom_site_occupancy
 _atom_site_pbe_bader_charge
 _atom_site_pbe_bader_spin_density
 _atom_site_pbe_cm5_charge
 _atom_site_pbe_ddec_charge
 _atom_site_pbe_ddec_spin_density
 _atom_site_pbe_ddec_sum_bond_order
 _atom_site_pbe_magmom
Dy  Dy0  1  0.43081000  0.90128060  0.85958308  1  2.168061  4.8e-05  1.519766  2.065532  1.1e-05  2.170973  0.0
Dy  Dy1  1  0.95828169  0.92868016  0.35958807  1  2.168766  4.8e-05  1.519776  2.065853  1.1e-05  2.170297  0.0
Dy  Dy2  1  0.04171704  0.07131805  0.64041119  1  2.168787  4.8e-05  1.519742  2.065858  1.1e-05  2.170215  0.0
Dy  Dy3  1  0.56919129  0.09871926  0.14041686  1  2.168036  4.8e-05  1.519785  2.065537  1.1e-05  2.171015  0.0
Cu  Cu4  1  0.20781991  0.42507178  0.07990045  1  0.970764  0.531877  0.715449  0.572265  0.7015  2.608925  0.532
Cu  Cu5  1  0.65461854  0.37181594  0.57988979  1  0.968538  0.531728  0.715644  0.57127  0.701204  2.610644  0.532
Cu  Cu6  1  0.34538129  0.62817838  0.42010864  1  0.968651  0.53173  0.715675  0.571276  0.701201  2.610565  0.532
Cu  Cu7  1  0.79217482  0.57493050  0.92010153  1  0.970944  0.531875  0.715412  0.572185  0.701496  2.609085  0.532
H  H8  1  0.54751193  0.31497020  0.01436507  1  0.129181  4.1e-05  0.113558  0.124101  1.9e-05  1.029575  0.0
H  H9  1  0.47952857  0.44985076  0.07263299  1  0.088854  0.000438  0.118897  0.089013  0.000191  0.978949  0.0
H  H10  1  0.15361704  0.04402239  0.92443562  1  0.100545  0.00021  0.112928  0.123976  0.000119  1.015835  0.0
H  H11  1  0.96454201  0.00504357  0.91715575  1  0.101629  0.001697  0.108868  0.116991  0.000869  1.032042  0.001
H  H12  1  0.74035252  0.16160530  0.97003480  1  0.14868  0.001747  0.121761  0.139377  0.001133  1.00512  0.001
H  H13  1  0.94117644  0.35548645  0.03928786  1  0.179903  0.003825  0.118875  0.111844  0.002125  1.016117  0.002
H  H14  1  0.35830063  0.39409639  0.29678662  1  0.122018  0.000917  0.117367  0.12743  0.000357  0.999554  0.001
H  H15  1  0.98850063  0.19206113  0.11575116  1  0.102727  0.00217  0.118721  0.08749  0.001003  1.00579  0.001
H  H16  1  0.97698179  0.09090404  0.20673895  1  0.124444  0.000877  0.126839  0.145934  0.000461  0.97006  0.001
H  H17  1  0.52441640  0.55337669  0.28262000  1  0.144981  0.001523  0.121729  0.141506  0.000783  0.980234  0.001
H  H18  1  0.64853315  0.81961868  0.16820574  1  0.148905  0.000971  0.118097  0.136385  0.000512  1.006532  0.001
H  H19  1  0.42624667  0.68498726  0.09362666  1  0.181412  0.002474  0.109396  0.093265  0.00104  1.057629  0.002
H  H20  1  0.46468769  0.74688170  0.75234841  1  0.610944  1e-06  0.338802  0.429461  2e-06  0.844997  0.0
H  H21  1  0.58229808  0.80193825  0.81418204  1  0.656937  1e-06  0.290095  0.388645  1e-06  0.955331  0.0
H  H22  1  0.39538930  0.82078575  0.97995433  1  0.677978  3.9e-05  0.303549  0.418379  0.000206  0.906891  0.0
H  H23  1  0.26505851  0.72069478  0.92093061  1  0.647414  0.000202  0.29859  0.406876  0.000439  0.92207  0.0
H  H24  1  0.69928290  0.96673091  0.51427481  1  0.142341  4.2e-05  0.113313  0.123611  1.9e-05  1.029731  0.0
H  H25  1  0.62253427  0.09287280  0.57256388  1  0.077793  0.000445  0.11847  0.088628  0.000194  0.979961  0.0
H  H26  1  0.88031286  0.27076245  0.42439338  1  0.121248  0.000211  0.113748  0.124968  0.00012  1.015123  0.0
H  H27  1  0.91219955  0.45279329  0.41722440  1  0.104927  0.0017  0.10911  0.116833  0.000872  1.032827  0.001
H  H28  1  0.80844512  0.72963046  0.47036465  1  0.144101  0.001761  0.121906  0.139146  0.001139  1.005721  0.001
H  H29  1  0.68362799  0.59777387  0.53947354  1  0.172066  0.003853  0.1187  0.111625  0.002126  1.016805  0.002
H  H30  1  0.90289943  0.43826565  0.79664215  1  0.127153  0.000917  0.116955  0.126302  0.000359  0.99978  0.001
H  H31  1  0.92353576  0.62723252  0.61572187  1  0.104854  0.002173  0.119065  0.087408  0.001003  1.005205  0.001
H  H32  1  0.11583165  0.72970103  0.70664358  1  0.14755  0.000864  0.127061  0.146518  0.00046  0.969117  0.001
H  H33  1  0.72912224  0.25813421  0.78261650  1  0.130583  0.001531  0.121375  0.140495  0.000784  0.98066  0.001
H  H34  1  0.34831760  0.01968130  0.66820956  1  0.131912  0.000977  0.118568  0.136826  0.000512  1.004863  0.001
H  H35  1  0.40842299  0.16733908  0.59359581  1  0.164986  0.002494  0.109129  0.093143  0.00104  1.057272  0.002
H  H36  1  0.00547332  0.78751260  0.25234950  1  0.629058  1e-06  0.338883  0.429718  2e-06  0.844786  0.0
H  H37  1  0.01223816  0.73187171  0.31423828  1  0.654684  1e-06  0.290411  0.389442  1e-06  0.954221  0.0
H  H38  1  0.15895790  0.08430102  0.47993265  1  0.664519  5.3e-05  0.303565  0.418622  0.000205  0.906492  0.0
H  H39  1  0.19998866  0.15585069  0.42098348  1  0.662971  0.000192  0.298486  0.40686  0.000439  0.922278  0.0
H  H40  1  0.30072077  0.03326842  0.48572656  1  0.14239  4.2e-05  0.113316  0.123618  1.9e-05  1.02976  0.0
H  H41  1  0.37746785  0.90712870  0.42743690  1  0.077755  0.000445  0.118474  0.088606  0.000194  0.980026  0.0
H  H42  1  0.11969113  0.72923756  0.57560736  1  0.121198  0.000211  0.113751  0.124971  0.00012  1.015124  0.0
H  H43  1  0.08780162  0.54720680  0.58277446  1  0.104967  0.0017  0.109115  0.11683  0.000872  1.032899  0.001
H  H44  1  0.19155444  0.27036939  0.52963546  1  0.144128  0.001762  0.121901  0.139158  0.001139  1.005642  0.001
H  H45  1  0.31637434  0.40222412  0.46052647  1  0.172032  0.003853  0.118702  0.111683  0.002126  1.016762  0.002
H  H46  1  0.09710302  0.56173527  0.20335704  1  0.127115  0.000917  0.116955  0.126307  0.000359  0.999794  0.001
H  H47  1  0.07646283  0.37276972  0.38427920  1  0.104967  0.002173  0.119045  0.087401  0.001003  1.005218  0.001
H  H48  1  0.88416629  0.27030301  0.29335685  1  0.147584  0.000864  0.127086  0.146588  0.00046  0.969091  0.001
H  H49  1  0.27087790  0.74186333  0.21738322  1  0.130587  0.001531  0.12138  0.140462  0.000784  0.980656  0.001
H  H50  1  0.65167855  0.98031779  0.33179096  1  0.131967  0.000977  0.118565  0.136799  0.000512  1.004855  0.001
H  H51  1  0.59157587  0.83265889  0.40640454  1  0.165052  0.002494  0.109114  0.093156  0.00104  1.057204  0.002
H  H52  1  0.99452496  0.21248516  0.74764931  1  0.629073  1e-06  0.338921  0.429772  2e-06  0.844711  0.0
H  H53  1  0.98775730  0.26812423  0.68576152  1  0.654724  1e-06  0.290385  0.38936  1e-06  0.954337  0.0
H  H54  1  0.84103871  0.91569598  0.52006640  1  0.664506  5.3e-05  0.303563  0.418532  0.000205  0.906604  0.0
H  H55  1  0.80000898  0.84414570  0.57901660  1  0.662928  0.000192  0.298495  0.406869  0.000439  0.922262  0.0
H  H56  1  0.45248762  0.68503281  0.98563315  1  0.1292  4.1e-05  0.113563  0.124144  1.9e-05  1.029559  0.0
H  H57  1  0.52046913  0.55014806  0.92736525  1  0.088796  0.000438  0.118877  0.088994  0.000191  0.978857  0.0
H  H58  1  0.84638362  0.95597484  0.07556461  1  0.100439  0.00021  0.112924  0.123984  0.000119  1.015794  0.0
H  H59  1  0.03545370  0.99495507  0.08284431  1  0.101612  0.001697  0.108846  0.116958  0.000868  1.032076  0.001
H  H60  1  0.25964801  0.83839660  0.02996342  1  0.148455  0.001747  0.121746  0.139418  0.001133  1.005094  0.001
H  H61  1  0.05882697  0.64451461  0.96071230  1  0.17985  0.003824  0.118882  0.111818  0.002125  1.01608  0.002
H  H62  1  0.64169643  0.60590549  0.70321195  1  0.121966  0.000917  0.117337  0.127373  0.000357  0.999551  0.001
H  H63  1  0.01149565  0.80793772  0.88425043  1  0.102742  0.00217  0.11875  0.08749  0.001003  1.005783  0.001
H  H64  1  0.02301693  0.90909670  0.79326224  1  0.124465  0.000877  0.126827  0.145936  0.000461  0.970033  0.001
H  H65  1  0.47557945  0.44661918  0.71737922  1  0.144977  0.001523  0.121722  0.141528  0.000783  0.980262  0.001
H  H66  1  0.35146731  0.18038080  0.83179432  1  0.148882  0.000971  0.118099  0.136372  0.000512  1.006522  0.001
H  H67  1  0.57375077  0.31501138  0.90637323  1  0.181328  0.002474  0.109398  0.093293  0.00104  1.05759  0.002
H  H68  1  0.53531373  0.25311792  0.24765261  1  0.610952  1e-06  0.338824  0.429493  2e-06  0.844968  0.0
H  H69  1  0.41770418  0.19806049  0.18581790  1  0.656966  1e-06  0.290109  0.388703  1e-06  0.955248  0.0
H  H70  1  0.60460917  0.17921229  0.02004659  1  0.677979  3.9e-05  0.303533  0.418298  0.000206  0.907006  0.0
H  H71  1  0.73493976  0.27930551  0.07907013  1  0.647529  0.000202  0.298606  0.406879  0.000439  0.922066  0.0
C  C72  1  0.38507863  0.07819573  0.93029869  1  1.579529  -6.5e-05  0.202687  0.565494  -6.8e-05  4.227533  0.0
C  C73  1  0.35309278  0.16697369  0.96601615  1  -0.009289  -0.000915  0.010072  0.031949  -0.000929  3.92318  -0.001
C  C74  1  0.44712081  0.28318625  0.00719182  1  -0.002748  0.000307  -0.062373  -0.118808  0.000152  3.894698  0.0
C  C75  1  0.40943714  0.35890457  0.03950179  1  0.508045  -0.001154  0.056943  0.113045  -0.001071  3.939944  -0.001
C  C76  1  0.22621623  0.13322437  0.95759493  1  -0.004891  -0.000238  -0.067768  -0.159925  -0.000236  3.880986  0.0
C  C77  1  0.19626144  0.21493294  0.99155088  1  0.523742  0.001559  0.120119  0.175899  0.001004  3.985724  0.002
C  C78  1  0.06550190  0.18988831  0.98460212  1  0.432262  0.000444  0.118102  0.164828  0.000385  3.966017  0.0
C  C79  1  0.95807703  0.08067648  0.94507385  1  0.016153  0.006183  -0.072422  -0.170503  0.004383  3.911406  0.005
C  C80  1  0.83140777  0.16772762  0.97447757  1  0.024507  0.008123  -0.060228  -0.103856  0.005834  3.862113  0.006
C  C81  1  0.83919871  0.06811554  0.94123571  1  -0.009396  -0.004085  0.00826  0.021809  -0.004253  3.928623  -0.003
C  C82  1  0.94164337  0.27480781  0.01250376  1  0.429693  -0.001441  0.059179  0.107066  -0.001799  3.895756  -0.002
C  C83  1  0.71899063  0.95095484  0.90114189  1  1.618607  0.000129  0.221458  0.601805  5.7e-05  4.192765  0.0
C  C84  1  0.16400399  0.17992347  0.31445538  1  1.643627  9e-06  0.221785  0.600916  -3.5e-05  4.206166  0.0
C  C85  1  0.16911014  0.23494730  0.25756328  1  0.02513  -0.00302  0.014896  0.036296  -0.003082  3.898458  -0.002
C  C86  1  0.27734758  0.34624060  0.25601540  1  -0.001374  0.002407  -0.064899  -0.15424  0.001712  3.883857  0.002
C  C87  1  0.27830049  0.39467271  0.20301624  1  0.472409  0.000691  0.117878  0.169324  0.000197  3.988377  0.001
C  C88  1  0.07030720  0.23194491  0.15559787  1  0.500572  -0.001752  0.052677  0.100619  -0.001538  3.948502  -0.001
C  C89  1  0.06358961  0.17667612  0.20617174  1  -0.033077  0.004725  -0.06047  -0.117673  0.00326  3.883402  0.004
C  C90  1  0.38682684  0.51207035  0.19690524  1  0.421155  0.000834  0.118281  0.162872  0.000427  3.984536  0.001
C  C91  1  0.50477528  0.58184423  0.24025603  1  -0.031256  0.004253  -0.064279  -0.153819  0.003102  3.869546  0.003
C  C92  1  0.60003024  0.69195952  0.22912180  1  -0.019303  -0.003762  0.009771  0.039894  -0.003841  3.930213  -0.002
C  C93  1  0.57509442  0.73180264  0.17599284  1  0.005099  0.005683  -0.069305  -0.132939  0.003908  3.900975  0.005
C  C94  1  0.45522890  0.65916515  0.13515460  1  0.447098  -0.002673  0.050331  0.095716  -0.002734  3.930473  -0.002
C  C95  1  0.72771695  0.77083828  0.27459174  1  1.581092  -4e-05  0.183777  0.547843  -8.6e-05  4.285713  0.0
C  C96  1  0.85205855  0.04521091  0.43024911  1  1.557809  -6.6e-05  0.202845  0.564179  -6.9e-05  4.230472  0.0
C  C97  1  0.79896884  0.11285996  0.46595951  1  0.056037  -0.000919  0.010884  0.033061  -0.000934  3.92268  -0.001
C  C98  1  0.72383807  0.05991830  0.50710175  1  -0.036362  0.000314  -0.062838  -0.119118  0.000159  3.89417  0.0
C  C99  1  0.68035126  0.12983366  0.53942397  1  0.505759  -0.001153  0.057177  0.113455  -0.001073  3.93977  -0.001
C  C100  1  0.82423654  0.23125808  0.45754364  1  -0.068766  -0.000233  -0.068877  -0.161649  -0.000235  3.881034  0.0
C  C101  1  0.77642455  0.29509852  0.49151234  1  0.526552  0.001562  0.120619  0.177308  0.001006  3.983897  0.002
C  C102  1  0.79451298  0.41888458  0.48460892  1  0.457972  0.000383  0.118113  0.163774  0.000388  3.965677  0.0
C  C103  1  0.86441677  0.48702661  0.44518558  1  -0.002399  0.006244  -0.072606  -0.169396  0.004392  3.91196  0.005
C  C104  1  0.80676576  0.64302515  0.47473785  1  0.003836  0.008197  -0.060419  -0.103251  0.005853  3.862967  0.006
C  C105  1  0.87318087  0.60209553  0.44145531  1  -0.030448  -0.004094  0.008734  0.022161  -0.004259  3.929657  -0.003
C  C106  1  0.73758247  0.57062621  0.51267247  1  0.477313  -0.001598  0.059158  0.106652  -0.001832  3.897504  -0.002
C  C107  1  0.95010062  0.68217205  0.40129385  1  1.629439  0.000132  0.220636  0.599657  5.6e-05  4.196496  0.0
C  C108  1  0.13459709  0.65019307  0.81431180  1  1.629957  9e-06  0.220481  0.599132  -3.5e-05  4.206356  0.0
C  C109  1  0.02269250  0.58823767  0.75741509  1  0.010242  -0.002999  0.015101  0.036398  -0.003068  3.896809  -0.002
C  C110  1  0.90986423  0.47842815  0.75586935  1  -0.051514  0.002418  -0.064769  -0.152473  0.001707  3.881482  0.002
C  C111  1  0.80829219  0.42454109  0.70293391  1  0.504939  0.000689  0.118055  0.168831  0.000205  3.988432  0.001
C  C112  1  0.92358941  0.58514657  0.65551589  1  0.502355  -0.001739  0.052381  0.1012  -0.001533  3.94432  -0.001
C  C113  1  0.02953943  0.64242305  0.70604436  1  -0.003487  0.004707  -0.061208  -0.119905  0.003258  3.882374  0.004
C  C114  1  0.68471265  0.30995808  0.69688156  1  0.488648  0.000615  0.118789  0.162852  0.000419  3.98593  0.001
C  C115  1  0.65824458  0.23541207  0.74025664  1  -0.046115  0.004339  -0.063943  -0.15202  0.003105  3.870394  0.003
C  C116  1  0.53691895  0.12903410  0.72907681  1  -0.034879  -0.003776  0.010302  0.04041  -0.00385  3.931312  -0.002
C  C117  1  0.44394236  0.10085634  0.67595439  1  0.027412  0.005669  -0.069811  -0.133067  0.003903  3.900142  0.005
C  C118  1  0.47576837  0.17984845  0.63511986  1  0.454514  -0.002713  0.050754  0.095711  -0.002752  3.931139  -0.002
C  C119  1  0.50341460  0.04668585  0.77448508  1  1.592672  -4e-05  0.183641  0.546143  -8.7e-05  4.284678  0.0
C  C120  1  0.14794646  0.95478976  0.56975361  1  1.557759  -6.6e-05  0.202813  0.564174  -6.9e-05  4.230277  0.0
C  C121  1  0.20103739  0.88714102  0.53404252  1  0.056008  -0.000919  0.010905  0.033147  -0.000934  3.922577  -0.001
C  C122  1  0.27616342  0.94007931  0.49289837  1  -0.036457  0.000314  -0.062886  -0.119188  0.000159  3.894259  0.0
C  C123  1  0.31965028  0.87016763  0.46057528  1  0.505803  -0.001152  0.057194  0.113518  -0.001073  3.939749  -0.001
C  C124  1  0.17576835  0.76874283  0.54245800  1  -0.06859  -0.000233  -0.068868  -0.161676  -0.000235  3.881054  0.0
C  C125  1  0.22358091  0.70490450  0.50848797  1  0.526314  0.001562  0.120579  0.177214  0.001007  3.984028  0.002
C  C126  1  0.20549081  0.58111768  0.51539163  1  0.458545  0.00038  0.118059  0.163763  0.000389  3.965653  0.0
C  C127  1  0.13558856  0.51297790  0.55481462  1  -0.003306  0.006247  -0.072548  -0.169363  0.004392  3.912161  0.005
C  C128  1  0.19323533  0.35697821  0.52526287  1  0.003717  0.008197  -0.060412  -0.103258  0.005853  3.863172  0.006
C  C129  1  0.12682497  0.39790741  0.55854444  1  -0.030386  -0.004094  0.008687  0.022128  -0.004259  3.930067  -0.003
C  C130  1  0.26241959  0.42937477  0.48732729  1  0.477523  -0.001599  0.059143  0.106527  -0.001833  3.897329  -0.002
C  C131  1  0.04989818  0.31782731  0.59870262  1  1.62947  0.000132  0.220582  0.599566  5.6e-05  4.196628  0.0
C  C132  1  0.86540715  0.34980964  0.18568920  1  1.629899  9e-06  0.220533  0.599252  -3.5e-05  4.206533  0.0
C  C133  1  0.97730783  0.41176205  0.24258388  1  0.010242  -0.002999  0.015196  0.036442  -0.003068  3.89678  -0.002
C  C134  1  0.09013771  0.52157308  0.24412933  1  -0.051531  0.002418  -0.064765  -0.152482  0.001707  3.88149  0.002
C  C135  1  0.19170667  0.57545562  0.29706548  1  0.504903  0.000689  0.118066  0.168862  0.000205  3.988431  0.001
C  C136  1  0.07640918  0.41485440  0.34448421  1  0.502254  -0.001739  0.052341  0.101141  -0.001533  3.944349  -0.001
C  C137  1  0.97045923  0.35757717  0.29395580  1  -0.003522  0.004707  -0.061226  -0.119947  0.003258  3.882352  0.004
C  C138  1  0.31528974  0.69003916  0.30311851  1  0.488589  0.000616  0.118796  0.162872  0.000419  3.986009  0.001
C  C139  1  0.34175774  0.76458592  0.25974337  1  -0.045919  0.004339  -0.063993  -0.152023  0.003105  3.870487  0.003
C  C140  1  0.46307945  0.87096469  0.27092405  1  -0.035048  -0.003776  0.010337  0.040375  -0.00385  3.931406  -0.002
C  C141  1  0.55605598  0.89914320  0.32404641  1  0.027374  0.005669  -0.069822  -0.133032  0.003902  3.900203  0.005
C  C142  1  0.52423029  0.82015177  0.36488030  1  0.454449  -0.002713  0.050762  0.09569  -0.002752  3.93108  -0.002
C  C143  1  0.49658374  0.95331369  0.22551571  1  1.593066  -4e-05  0.183707  0.54623  -8.7e-05  4.284559  0.0
C  C144  1  0.61492555  0.92180962  0.06969940  1  1.579105  -6.5e-05  0.202679  0.565633  -6.8e-05  4.227478  0.0
C  C145  1  0.64690743  0.83302752  0.03398270  1  -0.008849  -0.000916  0.010083  0.031982  -0.000929  3.92307  -0.001
C  C146  1  0.55287926  0.71681646  0.99280691  1  -0.003061  0.000307  -0.062385  -0.118879  0.000152  3.894584  0.0
C  C147  1  0.59056255  0.64109695  0.96049656  1  0.508401  -0.001154  0.056959  0.113072  -0.001071  3.939842  -0.001
C  C148  1  0.77378320  0.86677571  0.04240410  1  -0.005047  -0.000238  -0.067752  -0.159897  -0.000236  3.880906  0.0
C  C149  1  0.80373888  0.78506804  0.00844906  1  0.523739  0.001558  0.120057  0.175788  0.001003  3.985671  0.002
C  C150  1  0.93449702  0.81011017  0.01539925  1  0.43239  0.000444  0.118091  0.164863  0.000384  3.966065  0.0
C  C151  1  0.04192131  0.91932306  0.05492695  1  0.0158  0.006184  -0.072369  -0.170454  0.004382  3.911431  0.005
C  C152  1  0.16859294  0.83227455  0.02552275  1  0.025262  0.008122  -0.060294  -0.104068  0.005835  3.862171  0.006
C  C153  1  0.16080103  0.93188649  0.05876365  1  -0.009357  -0.004085  0.008307  0.021873  -0.004253  3.928491  -0.003
C  C154  1  0.05835786  0.72519154  0.98749516  1  0.429238  -0.001439  0.059164  0.107149  -0.001799  3.895669  -0.002
C  C155  1  0.28100854  0.04904824  0.09885690  1  1.618594  0.000129  0.221603  0.602055  5.7e-05  4.192593  0.0
C  C156  1  0.83599833  0.82007704  0.68554655  1  1.643546  9e-06  0.221753  0.600816  -3.5e-05  4.20607  0.0
C  C157  1  0.83088743  0.76505111  0.74243769  1  0.025055  -0.00302  0.014875  0.036205  -0.003082  3.898561  -0.002
C  C158  1  0.72264780  0.65376179  0.74398436  1  -0.001291  0.002407  -0.064792  -0.153988  0.001712  3.883762  0.002
C  C159  1  0.72169201  0.60532734  0.79698348  1  0.472043  0.000691  0.117801  0.169135  0.000197  3.988394  0.001
C  C160  1  0.92968754  0.76805611  0.84440314  1  0.500467  -0.001752  0.052646  0.100636  -0.001539  3.948466  -0.001
C  C161  1  0.93640732  0.82332283  0.79382764  1  -0.032983  0.004725  -0.060472  -0.117683  0.00326  3.883453  0.004
C  C162  1  0.61316957  0.48793017  0.80309459  1  0.421281  0.000833  0.1183  0.162945  0.000427  3.984695  0.001
C  C163  1  0.49522293  0.41815554  0.75974368  1  -0.031285  0.004253  -0.064302  -0.15387  0.003102  3.869633  0.003
C  C164  1  0.39996777  0.30803934  0.77087963  1  -0.019237  -0.003762  0.009751  0.039871  -0.003841  3.930205  -0.002
C  C165  1  0.42490578  0.26819667  0.82400887  1  0.003349  0.005682  -0.069296  -0.132841  0.003908  3.900923  0.005
C  C166  1  0.54476700  0.34083251  0.86484660  1  0.448759  -0.002673  0.050354  0.095732  -0.002734  3.930591  -0.002
C  C167  1  0.27228448  0.22916009  0.72540832  1  1.581177  -4e-05  0.183741  0.547748  -8.6e-05  4.285762  0.0
N  N168  1  0.28781992  0.32562015  0.03231778  1  -1.229281  0.009674  -0.328842  -0.268689  0.006726  3.531658  0.01
N  N169  1  0.05426893  0.28277789  0.01851570  1  -1.197702  0.108863  -0.344819  -0.227364  0.073399  3.626457  0.094
N  N170  1  0.17520642  0.33775957  0.15361657  1  -1.195663  0.073086  -0.333357  -0.260462  0.049484  3.580108  0.064
N  N171  1  0.36474148  0.55138994  0.14508519  1  -1.206857  0.093354  -0.348599  -0.24781  0.063081  3.629869  0.08
N  N172  1  0.70645606  0.24425362  0.53227438  1  -1.219795  0.009842  -0.328942  -0.269197  0.006842  3.529463  0.01
N  N173  1  0.73551626  0.46395994  0.51855030  1  -1.203625  0.109039  -0.345318  -0.22682  0.073525  3.628886  0.094
N  N174  1  0.81577213  0.47830895  0.65356423  1  -1.219277  0.073104  -0.333434  -0.259985  0.049451  3.577351  0.064
N  N175  1  0.59353607  0.28017891  0.64505767  1  -1.229512  0.093363  -0.349031  -0.247299  0.063048  3.632356  0.08
N  N176  1  0.29354721  0.75574894  0.46772565  1  -1.219745  0.009841  -0.328921  -0.269171  0.006841  3.529474  0.01
N  N177  1  0.26448747  0.53604181  0.48144923  1  -1.203687  0.109037  -0.345282  -0.226709  0.073524  3.628647  0.094
N  N178  1  0.18422782  0.52169083  0.34643531  1  -1.219245  0.073104  -0.333429  -0.259985  0.049451  3.577299  0.064
N  N179  1  0.40646323  0.71981825  0.35494217  1  -1.229473  0.093356  -0.349024  -0.247291  0.063044  3.632511  0.08
N  N180  1  0.71217791  0.67437716  0.96768058  1  -1.229307  0.009674  -0.328814  -0.268629  0.006727  3.531611  0.01
N  N181  1  0.94573096  0.71721821  0.98148472  1  -1.197595  0.108866  -0.344805  -0.227383  0.073402  3.626461  0.094
N  N182  1  0.82478921  0.66224234  0.84638536  1  -1.195425  0.07308  -0.333313  -0.260394  0.049481  3.579933  0.064
N  N183  1  0.63525339  0.44860832  0.85491499  1  -1.206747  0.093359  -0.348568  -0.2479  0.063085  3.630041  0.08
Cl  Cl184  1  0.20903582  0.56476491  0.02434581  1  -0.59895  0.149422  -0.330727  -0.499068  0.092469  1.129676  0.117
Cl  Cl185  1  0.45930108  0.31519095  0.52436315  1  -0.597983  0.149378  -0.330664  -0.498956  0.092409  1.129956  0.116
Cl  Cl186  1  0.54069911  0.68481089  0.47564048  1  -0.598077  0.149387  -0.330669  -0.49895  0.092416  1.129892  0.116
Cl  Cl187  1  0.79096322  0.43523651  0.97565475  1  -0.598932  0.149426  -0.330718  -0.499052  0.092471  1.129681  0.117
O  O188  1  0.49509569  0.09302365  0.94691881  1  -1.176159  1.4e-05  -0.335582  -0.601636  -2.9e-05  2.226324  0.0
O  O189  1  0.30115956  0.99044844  0.88309872  1  -1.182729  -2.8e-05  -0.371433  -0.621533  -5.2e-05  2.16463  0.0
O  O190  1  0.72611674  0.87881523  0.85739444  1  -1.170935  -0.000567  -0.309396  -0.534857  -0.000593  2.127801  -0.001
O  O191  1  0.61683150  0.93524142  0.91531192  1  -1.189045  -8e-06  -0.422096  -0.67198  -0.000122  2.325738  0.0
O  O192  1  0.48902577  0.77220881  0.79800029  1  -1.256298  -1.9e-05  -0.635134  -0.857423  -1.8e-05  2.027637  0.0
O  O193  1  0.35454323  0.79410032  0.93426864  1  -1.309787  0.001379  -0.667165  -0.896074  0.000923  2.123995  0.001
O  O194  1  0.07352955  0.06507487  0.30481367  1  -1.197097  2.7e-05  -0.422306  -0.662859  -4.6e-05  2.300691  0.0
O  O195  1  0.24548839  0.24903209  0.36537677  1  -1.170628  0.000124  -0.309327  -0.549529  -4.4e-05  2.133383  0.0
O  O196  1  0.74591094  0.74201108  0.32632724  1  -1.165519  -0.000323  -0.377195  -0.623216  -0.000343  2.170986  0.0
O  O197  1  0.81338157  0.86616369  0.26003970  1  -1.175984  -0.000256  -0.381427  -0.619899  -0.000258  2.176567  0.0
O  O198  1  0.85396491  0.95193854  0.44693182  1  -1.176498  1.4e-05  -0.336279  -0.602039  -3e-05  2.226948  0.0
O  O199  1  0.89252220  0.08180508  0.38300647  1  -1.168456  -2.8e-05  -0.370708  -0.620022  -5.2e-05  2.165826  0.0
O  O200  1  0.97858793  0.63137682  0.35755110  1  -1.168311  -0.000567  -0.30884  -0.534021  -0.000592  2.129659  -0.001
O  O201  1  0.97972829  0.79837598  0.41540062  1  -1.1893  -1.1e-05  -0.421909  -0.67114  -0.000124  2.325744  0.0
O  O202  1  0.02576630  0.80887516  0.29800284  1  -1.274367  -1.9e-05  -0.635545  -0.858586  -1.8e-05  2.026278  0.0
O  O203  1  0.14015399  0.07945833  0.43423251  1  -1.313221  0.001377  -0.667235  -0.896047  0.000922  2.123858  0.001
O  O204  1  0.23973125  0.73143803  0.80476480  1  -1.193566  2.7e-05  -0.421733  -0.661525  -4.5e-05  2.302589  0.0
O  O205  1  0.11648469  0.61915427  0.86515304  1  -1.163399  0.00012  -0.309151  -0.548897  -4.7e-05  2.131023  0.0
O  O206  1  0.58411446  0.08011086  0.82617047  1  -1.178187  -0.000324  -0.377506  -0.623108  -0.000344  2.171631  0.0
O  O207  1  0.39347059  0.94659392  0.75998831  1  -1.174146  -0.000255  -0.381435  -0.61936  -0.000257  2.174921  0.0
O  O208  1  0.14604043  0.04806155  0.55306931  1  -1.17634  1.4e-05  -0.336228  -0.602049  -3e-05  2.226887  0.0
O  O209  1  0.10747992  0.91819326  0.61699621  1  -1.168464  -2.8e-05  -0.370687  -0.620004  -5.1e-05  2.165686  0.0
O  O210  1  0.02140728  0.36861833  0.64244557  1  -1.168269  -0.000567  -0.308828  -0.533967  -0.000592  2.129672  -0.001
O  O211  1  0.02027012  0.20162219  0.58459547  1  -1.189233  -1.1e-05  -0.421875  -0.671087  -0.000124  2.325638  0.0
O  O212  1  0.97422608  0.19111944  0.70199577  1  -1.274391  -1.9e-05  -0.635544  -0.858571  -1.8e-05  2.026298  0.0
O  O213  1  0.85984481  0.92053787  0.56576586  1  -1.313181  0.001378  -0.667262  -0.895976  0.000923  2.123961  0.001
O  O214  1  0.76027364  0.26856287  0.19523684  1  -1.193474  2.7e-05  -0.421804  -0.661606  -4.5e-05  2.302581  0.0
O  O215  1  0.88351729  0.38084999  0.13484858  1  -1.163417  0.00012  -0.309198  -0.548974  -4.7e-05  2.131187  0.0
O  O216  1  0.41588232  0.91989338  0.17383167  1  -1.178173  -0.000324  -0.377535  -0.623097  -0.000344  2.171553  0.0
O  O217  1  0.60653142  0.05340086  0.24001041  1  -1.174527  -0.000255  -0.381475  -0.619421  -0.000257  2.174963  0.0
O  O218  1  0.50490861  0.90698147  0.05308036  1  -1.176116  1.3e-05  -0.335552  -0.601755  -2.9e-05  2.226401  0.0
O  O219  1  0.69884526  0.00955828  0.11689811  1  -1.182549  -2.9e-05  -0.371431  -0.621557  -5.2e-05  2.164652  0.0
O  O220  1  0.27388185  0.12118890  0.14260377  1  -1.170957  -0.000567  -0.309522  -0.535012  -0.000593  2.12773  -0.001
O  O221  1  0.38316722  0.06476248  0.08468737  1  -1.18906  -8e-06  -0.422091  -0.672047  -0.000122  2.325749  0.0
O  O222  1  0.51097375  0.22778168  0.20200067  1  -1.256295  -1.9e-05  -0.635159  -0.857479  -1.8e-05  2.02765  0.0
O  O223  1  0.64545583  0.20589415  0.06573093  1  -1.30988  0.001379  -0.667182  -0.895999  0.000923  2.124098  0.001
O  O224  1  0.92647207  0.93492250  0.69518753  1  -1.197083  2.7e-05  -0.422263  -0.662801  -4.6e-05  2.300781  0.0
O  O225  1  0.75451296  0.75097145  0.63462230  1  -1.170559  0.000124  -0.309341  -0.549488  -4.3e-05  2.13317  0.0
O  O226  1  0.25409376  0.25798954  0.67367230  1  -1.165502  -0.000323  -0.377139  -0.623156  -0.000343  2.170914  0.0
O  O227  1  0.18662006  0.13383433  0.73995769  1  -1.176095  -0.000256  -0.381438  -0.619889  -0.000258  2.176719  0.0
