# generated using pymatgen
data_ZnH6C7(N3O)2
_symmetry_space_group_name_H-M   'P 1'
_cell_length_a   8.94535483
_cell_length_b   11.76223304
_cell_length_c   11.76229497
_cell_angle_alpha   92.22178638
_cell_angle_beta   105.15255393
_cell_angle_gamma   105.15215986
_symmetry_Int_Tables_number   1
_chemical_formula_structural   ZnH6C7(N3O)2
_chemical_formula_sum   'Zn4 H24 C28 N24 O8'
_cell_volume   1145.39873921
_cell_formula_units_Z   4
loop_
 _symmetry_equiv_pos_site_id
 _symmetry_equiv_pos_as_xyz
  1  'x, y, z'
loop_
 _atom_site_type_symbol
 _atom_site_label
 _atom_site_symmetry_multiplicity
 _atom_site_fract_x
 _atom_site_fract_y
 _atom_site_fract_z
 _atom_site_occupancy
 _atom_site_pbe_bader_charge
 _atom_site_pbe_bader_spin_density
 _atom_site_pbe_cm5_charge
 _atom_site_pbe_ddec_charge
 _atom_site_pbe_ddec_spin_density
 _atom_site_pbe_ddec_sum_bond_order
 _atom_site_pbe_magmom
Zn  Zn0  1  0.83809982  0.64094583  0.87881540  1  1.225594  0  0.734268  0.708409  0  2.472214  0
Zn  Zn1  1  0.33810404  0.87882652  0.64094329  1  1.225671  0  0.734218  0.7084  0  2.472198  0
Zn  Zn2  1  0.66189658  0.12118003  0.35906403  1  1.225581  0  0.734184  0.708367  0  2.472148  0
Zn  Zn3  1  0.16190217  0.35905714  0.12118364  1  1.225603  0  0.73421  0.708376  0  2.472229  0
H  H4  1  0.64586252  0.47679654  0.66496902  1  0.144695  0  0.123077  0.090574  0  1.013378  0
H  H5  1  0.49327791  0.26142648  0.61438223  1  0.152561  0  0.108887  0.11487  0  1.054332  0
H  H6  1  0.63259779  0.22487188  0.98888599  1  0.122924  0  0.1106  0.123275  0  1.020802  0
H  H7  1  0.78738338  0.44192905  0.02403488  1  0.116224  0  0.121331  0.097945  0  1.0086  0
H  H8  1  0.22603140  0.96157203  0.86030560  1  0.497164  0  0.298708  0.315833  0  0.979366  0
H  H9  1  0.06817068  0.89655545  0.91933700  1  0.513423  0  0.297485  0.316897  0  0.988828  0
H  H10  1  0.14585988  0.66496679  0.47680170  1  0.144647  0  0.123047  0.090567  0  1.013441  0
H  H11  1  0.99327281  0.61437846  0.26142937  1  0.152509  0  0.108866  0.11486  0  1.05433  0
H  H12  1  0.13255318  0.98888579  0.22486739  1  0.122585  0  0.11053  0.1232  0  1.020969  0
H  H13  1  0.28733861  0.02404093  0.44193072  1  0.116412  0  0.121363  0.098013  0  1.008611  0
H  H14  1  0.72603150  0.86031398  0.96156344  1  0.497367  0  0.298737  0.315926  0  0.979306  0
H  H15  1  0.56817027  0.91934534  0.89654382  1  0.513343  0  0.297514  0.316904  0  0.98886  0
H  H16  1  0.85413194  0.33502556  0.52320245  1  0.144711  0  0.123051  0.090508  0  1.013218  0
H  H17  1  0.00671616  0.38561302  0.73857837  1  0.15267  0  0.108896  0.114896  0  1.054314  0
H  H18  1  0.86742870  0.01110212  0.77513782  1  0.122678  0  0.110504  0.123108  0  1.020875  0
H  H19  1  0.71264430  0.97595584  0.55807493  1  0.116382  0  0.121358  0.097997  0  1.008605  0
H  H20  1  0.27397322  0.13968987  0.03843453  1  0.497354  0  0.298728  0.315881  0  0.979382  0
H  H21  1  0.43183595  0.08065941  0.10345451  1  0.513325  0  0.297481  0.316853  0  0.988872  0
H  H22  1  0.35415046  0.52320376  0.33502392  1  0.144758  0  0.123034  0.090534  0  1.01321  0
H  H23  1  0.50673795  0.73856942  0.38561296  1  0.152806  0  0.108862  0.114855  0  1.054369  0
H  H24  1  0.36740156  0.77514523  0.01111023  1  0.122753  0  0.110562  0.123235  0  1.020773  0
H  H25  1  0.21261156  0.55808446  0.97595176  1  0.116341  0  0.121319  0.097919  0  1.008504  0
H  H26  1  0.77396437  0.03842912  0.13968690  1  0.497205  0  0.298727  0.315875  0  0.979358  0
H  H27  1  0.93183009  0.10344660  0.08065579  1  0.513754  0  0.297483  0.316878  0  0.988934  0
C  C28  1  0.64049735  0.41707222  0.73346351  1  0.422422  0  0.055518  0.100501  0  3.895059  0
C  C29  1  0.55430686  0.29794444  0.70655485  1  0.048453  0  -0.070961  -0.124377  0  3.908887  0
C  C30  1  0.55076633  0.22727691  0.79933287  1  -0.071902  0  0.00709  0.017744  0  3.928598  0
C  C31  1  0.63463875  0.27838549  0.91556910  1  -0.002001  0  -0.074426  -0.133201  0  3.927766  0
C  C32  1  0.71950664  0.39779114  0.93538481  1  0.461035  0  0.050857  0.095352  0  3.911132  0
C  C33  1  0.46236020  0.09718416  0.77606785  1  1.595734  0  0.211179  0.563617  0  4.203198  0
C  C34  1  0.11679538  0.78962167  0.80136254  1  1.496378  0  0.328867  0.511118  0  4.135157  0
C  C35  1  0.14048665  0.73346289  0.41707901  1  0.421695  0  0.055598  0.100525  0  3.895097  0
C  C36  1  0.05430054  0.70655289  0.29794648  1  0.049058  0  -0.070992  -0.124467  0  3.909057  0
C  C37  1  0.05074643  0.79932649  0.22727551  1  -0.071628  0  0.007124  0.017862  0  3.928508  0
C  C38  1  0.13461389  0.91556748  0.27838153  1  -0.00195  0  -0.074297  -0.133047  0  3.927757  0
C  C39  1  0.21947019  0.93538595  0.39779056  1  0.460751  0  0.050803  0.095221  0  3.911221  0
C  C40  1  0.96235938  0.77605435  0.09717882  1  1.595726  0  0.211034  0.563313  0  4.203502  0
C  C41  1  0.61679945  0.80137600  0.78961167  1  1.495867  0  0.328801  0.511088  0  4.135377  0
C  C42  1  0.85950320  0.26653126  0.58293155  1  0.422651  0  0.055568  0.100651  0  3.894699  0
C  C43  1  0.94568356  0.29343860  0.70206527  1  0.048449  0  -0.071073  -0.124514  0  3.908631  0
C  C44  1  0.94925424  0.20066238  0.77273566  1  -0.072058  0  0.007173  0.017652  0  3.928256  0
C  C45  1  0.86537770  0.08442490  0.72162767  1  -0.002342  0  -0.074171  -0.132655  0  3.92746  0
C  C46  1  0.78051933  0.06460732  0.60221991  1  0.460801  0  0.050741  0.095088  0  3.91114  0
C  C47  1  0.03763943  0.22393275  0.90283274  1  1.595669  0  0.211281  0.563914  0  4.202856  0
C  C48  1  0.38320868  0.19863315  0.21038209  1  1.49631  0  0.328875  0.511166  0  4.135319  0
C  C49  1  0.35950781  0.58292895  0.26652855  1  0.422549  0  0.055547  0.100609  0  3.894618  0
C  C50  1  0.44568636  0.70205936  0.29343883  1  0.048404  0  -0.07103  -0.124512  0  3.908873  0
C  C51  1  0.44924256  0.77273493  0.20066624  1  -0.072104  0  0.007095  0.017693  0  3.928415  0
C  C52  1  0.36536205  0.72162989  0.08443167  1  -0.002672  0  -0.074263  -0.132895  0  3.927482  0
C  C53  1  0.28050598  0.60221448  0.06460903  1  0.461509  0  0.050814  0.095235  0  3.910886  0
C  C54  1  0.53764071  0.90282592  0.22393707  1  1.595554  0  0.211076  0.563505  0  4.20317  0
C  C55  1  0.88320328  0.21037771  0.19862886  1  1.496555  0  0.328807  0.511014  0  4.135279  0
N  N56  1  0.72165158  0.46581791  0.84573597  1  -1.261332  0  -0.331405  -0.217904  0  3.578001  0
N  N57  1  0.03061303  0.68191454  0.81803996  1  -0.799728  0  -0.2763  -0.351966  0  3.503205  0
N  N58  1  0.05860867  0.59996969  0.74636330  1  -0.110863  0  -0.095077  -0.069041  0  3.285101  0
N  N59  1  0.15755029  0.65411876  0.69033280  1  -0.116547  0  -0.104889  -0.081184  0  3.265592  0
N  N60  1  0.19617000  0.77377806  0.72178972  1  -0.800623  0  -0.274881  -0.343181  0  3.498542  0
N  N61  1  0.12180275  0.89599661  0.85245515  1  -1.291933  0  -0.587647  -0.663684  0  3.302667  0
N  N62  1  0.22163750  0.84573680  0.46582224  1  -1.260937  0  -0.331422  -0.217838  0  3.577785  0
N  N63  1  0.53061542  0.81804962  0.68190452  1  -0.799559  0  -0.276377  -0.352047  0  3.503378  0
N  N64  1  0.55861182  0.74636820  0.59996222  1  -0.110486  0  -0.095011  -0.069011  0  3.285204  0
N  N65  1  0.65754890  0.69033469  0.65411467  1  -0.117107  0  -0.104857  -0.081194  0  3.265803  0
N  N66  1  0.69616303  0.72179101  0.77377078  1  -0.800173  0  -0.274846  -0.343089  0  3.498565  0
N  N67  1  0.62180299  0.85246196  0.89598810  1  -1.291723  0  -0.587717  -0.663808  0  3.302747  0
N  N68  1  0.77835683  0.15425739  0.53419273  1  -1.26098  0  -0.331453  -0.21803  0  3.577972  0
N  N69  1  0.46938449  0.18195331  0.31808895  1  -0.799852  0  -0.276395  -0.352142  0  3.503574  0
N  N70  1  0.44139231  0.25363387  0.40003388  1  -0.110415  0  -0.095078  -0.069028  0  3.285216  0
N  N71  1  0.34245690  0.30966918  0.34588525  1  -0.11713  0  -0.104852  -0.081155  0  3.265603  0
N  N72  1  0.30383668  0.27821194  0.22622690  1  -0.800193  0  -0.274846  -0.343119  0  3.498395  0
N  N73  1  0.37820020  0.14754101  0.10401036  1  -1.291886  0  -0.587662  -0.663673  0  3.302731  0
N  N74  1  0.27834513  0.53418235  0.15425416  1  -1.261361  0  -0.331407  -0.21796  0  3.577621  0
N  N75  1  0.96938853  0.31808662  0.18195384  1  -0.799865  0  -0.27631  -0.35196  0  3.503305  0
N  N76  1  0.94138987  0.40002970  0.25363063  1  -0.110528  0  -0.095057  -0.069066  0  3.285129  0
N  N77  1  0.84245097  0.34587888  0.30966340  1  -0.116732  0  -0.104848  -0.081097  0  3.265529  0
N  N78  1  0.80383732  0.22622050  0.27820956  1  -0.800503  0  -0.274825  -0.343086  0  3.498404  0
N  N79  1  0.87819277  0.10400365  0.14753556  1  -1.292422  0  -0.587706  -0.663746  0  3.302828  0
O  O80  1  0.40434355  0.05381816  0.66607082  1  -1.155744  0  -0.323359  -0.526403  0  2.325468  0
O  O81  1  0.45194683  0.03851820  0.86236398  1  -1.185958  0  -0.308891  -0.545185  0  2.175902  0
O  O82  1  0.90433558  0.66605560  0.05381110  1  -1.155839  0  -0.3233  -0.526247  0  2.325396  0
O  O83  1  0.95195088  0.86235599  0.03851998  1  -1.185963  0  -0.308845  -0.545129  0  2.17599  0
O  O84  1  0.09565192  0.33393670  0.94618528  1  -1.155605  0  -0.323324  -0.526473  0  2.325266  0
O  O85  1  0.04807068  0.13763202  0.96148822  1  -1.186234  0  -0.308977  -0.545328  0  2.175711  0
O  O86  1  0.59565471  0.94617692  0.33394251  1  -1.155665  0  -0.323238  -0.526257  0  2.325186  0
O  O87  1  0.54806221  0.96147858  0.13763395  1  -1.186058  0  -0.308861  -0.545122  0  2.175842  0
