# generated using pymatgen
data_MnSnH11C15(SeN)3
_symmetry_space_group_name_H-M   'P 1'
_cell_length_a   9.77241693
_cell_length_b   9.93339709
_cell_length_c   10.78177302
_cell_angle_alpha   107.57070860
_cell_angle_beta   97.32196912
_cell_angle_gamma   115.24264610
_symmetry_Int_Tables_number   1
_chemical_formula_structural   MnSnH11C15(SeN)3
_chemical_formula_sum   'Mn2 Sn2 H22 C30 Se6 N6'
_cell_volume   861.76406767
_cell_formula_units_Z   2
loop_
 _symmetry_equiv_pos_site_id
 _symmetry_equiv_pos_as_xyz
  1  'x, y, z'
loop_
 _atom_site_type_symbol
 _atom_site_label
 _atom_site_symmetry_multiplicity
 _atom_site_fract_x
 _atom_site_fract_y
 _atom_site_fract_z
 _atom_site_occupancy
 _atom_site_hle17_ddec_charge
 _atom_site_hle17_ddec_spin_density
 _atom_site_hle17_ddec_sum_bond_order
 _atom_site_hle17_magmom
 _atom_site_hse06_10hf_ddec_charge
 _atom_site_hse06_10hf_ddec_spin_density
 _atom_site_hse06_10hf_ddec_sum_bond_order
 _atom_site_hse06_10hf_magmom
 _atom_site_hse06_ddec_charge
 _atom_site_hse06_ddec_spin_density
 _atom_site_hse06_ddec_sum_bond_order
 _atom_site_hse06_magmom
 _atom_site_pbe_cm5_charge
 _atom_site_pbe_ddec_charge
 _atom_site_pbe_ddec_spin_density
 _atom_site_pbe_ddec_sum_bond_order
 _atom_site_pbe_magmom
Mn  Mn0  1  0.64914524  0.19249695  0.76234231  1  0.779393  4.721568  2.271736  4.529  0.609077  4.618153  2.830787  4.348  0.68139  4.713276  2.761211  4.47  0.429567  0.553802  4.51081  2.87999  4.218
Mn  Mn1  1  0.35086055  0.80750431  0.23765400  1  0.779375  -4.721564  2.271789  -4.529  0.609099  -4.618149  2.830757  -4.348  0.681414  -4.713274  2.761174  -4.47  0.429576  0.553823  -4.510802  2.879964  -4.218
Sn  Sn2  1  0.18181525  0.00624020  0.54221885  1  0.843163  -0.000139  3.370947  -0.001  0.731556  -0.000656  3.910411  -0.001  0.776383  -0.000248  3.905939  -0.001  0.248573  0.700103  -0.001028  3.909806  -0.001
Sn  Sn3  1  0.81819931  0.99377078  0.45778673  1  0.843096  0.00014  3.371112  0.001  0.731522  0.000657  3.910533  0.001  0.776345  0.00025  3.906054  0.001  0.248561  0.700063  0.001029  3.909944  0.001
H  H4  1  0.52155739  0.83091308  0.55160315  1  0.058211  0.000983  1.006118  0.0  0.061152  0.001795  1.084912  0.001  0.064028  0.001581  1.081771  0.0  0.097343  0.059462  0.002067  1.086057  0.001
H  H5  1  0.47843703  0.16908815  0.44839553  1  0.058238  -0.000983  1.006067  0.0  0.061143  -0.001795  1.084885  -0.001  0.06402  -0.001581  1.081744  0.0  0.097353  0.059455  -0.002067  1.086024  -0.001
H  H6  1  0.43047964  0.55668901  0.55805991  1  0.103994  0.000234  0.946852  0.0  0.113932  0.000162  1.007149  0.0  0.117383  0.000133  1.005915  0.0  0.105525  0.110228  0.000338  1.010835  0.0
H  H7  1  0.56951168  0.44331219  0.44193284  1  0.104009  -0.000237  0.94677  0.0  0.113968  -0.000162  1.007056  0.0  0.11742  -0.000133  1.005819  0.0  0.105546  0.110262  -0.000339  1.010746  0.0
H  H8  1  0.47026852  0.53688737  0.78478618  1  0.100613  -0.00039  0.972237  0.0  0.109407  -0.000172  1.034522  0.0  0.113476  -0.000251  1.031586  0.0  0.091928  0.105692  0.000149  1.037673  0.0
H  H9  1  0.52972287  0.46310536  0.21520424  1  0.100695  0.000392  0.972134  0.0  0.109502  0.000172  1.034397  0.0  0.113573  0.000252  1.031456  0.0  0.091979  0.105786  -0.000149  1.037547  0.0
H  H10  1  0.59848048  0.79129319  0.99701985  1  0.10755  0.000477  0.97554  0.0  0.11502  0.000489  1.041484  0.0  0.119092  0.000487  1.039882  0.0  0.096298  0.112327  0.000473  1.042208  0.0
H  H11  1  0.40151195  0.20869955  0.00297255  1  0.107609  -0.000475  0.975521  0.0  0.115065  -0.000489  1.041448  0.0  0.119133  -0.000487  1.039856  0.0  0.096336  0.112371  -0.000473  1.042171  0.0
H  H12  1  0.71350285  0.01333087  0.16429129  1  0.094141  0.00017  1.010758  0.001  0.098467  -0.000183  1.086116  0.0  0.102534  -4.8e-05  1.084422  0.0  0.089963  0.095281  -0.000302  1.086709  0.0
H  H13  1  0.28648751  0.98666188  0.83570365  1  0.094192  -0.00017  1.010737  -0.001  0.098512  0.000182  1.086088  0.0  0.102601  4.8e-05  1.084375  0.0  0.090003  0.095329  0.000301  1.086676  0.0
H  H14  1  0.84132466  0.28978555  0.34924422  1  0.097284  0.000341  0.963514  0.0  0.106443  0.001  1.025522  0.0  0.110549  0.000633  1.02212  0.0  0.093601  0.103229  0.001198  1.029082  0.0
H  H15  1  0.15866995  0.71020964  0.65075375  1  0.097277  -0.000342  0.963542  0.0  0.106399  -0.001  1.025582  0.0  0.110504  -0.000634  1.022184  0.0  0.093588  0.103184  -0.001198  1.029144  0.0
H  H16  1  0.90345304  0.52908488  0.28941449  1  0.111819  0.000348  0.97628  0.001  0.11902  0.000102  1.041201  0.0  0.123721  0.000187  1.038108  0.0  0.098541  0.114898  -5.5e-05  1.044435  0.0
H  H17  1  0.09655055  0.47091396  0.71058368  1  0.111809  -0.000347  0.976314  -0.001  0.119005  -0.000102  1.041247  0.0  0.123709  -0.000187  1.038151  0.0  0.098536  0.114884  5.5e-05  1.044477  0.0
H  H18  1  0.93382801  0.71411099  0.22065341  1  0.098737  -4.3e-05  0.986768  0.0  0.102787  -0.000273  1.061609  0.0  0.106685  -0.000137  1.059235  0.0  0.097968  0.099319  -0.000369  1.064092  0.0
H  H19  1  0.06616486  0.28588059  0.77935170  1  0.098782  3.8e-05  0.98675  0.0  0.10281  0.000273  1.061608  0.0  0.106709  0.000137  1.059234  0.0  0.09799  0.099352  0.000369  1.064079  0.0
H  H20  1  0.98114960  0.91751319  0.12201995  1  0.085232  -0.0001  0.979394  0.0  0.093312  2.7e-05  1.047052  0.0  0.096761  -0.0  1.044117  0.0  0.091002  0.090474  9.6e-05  1.049613  0.0
H  H21  1  0.01884307  0.08248446  0.87799145  1  0.085246  0.000103  0.979337  0.0  0.093333  -2.7e-05  1.046994  0.0  0.096776  -0.0  1.04408  0.0  0.09101  0.090495  -9.6e-05  1.049548  0.0
H  H22  1  0.90725882  0.82428720  0.86313864  1  0.098568  0.000213  0.969283  0.0  0.10793  0.000228  1.032199  0.0  0.110938  0.000184  1.031555  0.0  0.095598  0.10588  0.000191  1.032875  0.0
H  H23  1  0.09274746  0.17572380  0.13687618  1  0.098559  -0.000207  0.969331  0.0  0.10797  -0.000228  1.032195  0.0  0.110979  -0.000184  1.031551  0.0  0.09559  0.105931  -0.000191  1.032878  0.0
H  H24  1  0.78293525  0.52857781  0.72157340  1  0.081748  1.4e-05  0.929407  0.0  0.093259  0.000443  0.989249  0.001  0.095888  0.000229  0.987053  0.0  0.11053  0.089508  0.000637  0.994209  0.001
H  H25  1  0.21708046  0.47143561  0.27843298  1  0.081768  -2.1e-05  0.929294  0.0  0.093293  -0.000444  0.989161  -0.001  0.095924  -0.000228  0.986965  0.0  0.110521  0.089544  -0.000638  0.99413  -0.001
C  C26  1  0.53765780  0.81741730  0.64833224  1  0.139533  0.008751  3.715246  0.007  0.108055  0.011214  3.968745  0.009  0.117111  0.010025  3.985397  0.008  0.047275  0.101555  0.013828  3.957801  0.011
C  C27  1  0.46233281  0.18258028  0.35166127  1  0.139462  -0.008788  3.715235  -0.007  0.108034  -0.011211  3.968675  -0.009  0.117089  -0.010029  3.98533  -0.008  0.047255  0.101534  -0.01383  3.957735  -0.011
C  C28  1  0.48776373  0.66513776  0.65241721  1  -0.110632  -0.00328  3.710035  -0.003  -0.123319  -0.001556  3.960307  -0.001  -0.129913  -0.002648  3.978908  -0.002  -0.081835  -0.121019  -0.000426  3.950793  -0.001
C  C29  1  0.51222217  0.33485859  0.34757542  1  -0.110646  0.003329  3.71009  0.003  -0.123367  0.001553  3.960346  0.001  -0.129964  0.002649  3.978951  0.002  -0.081842  -0.121067  0.000425  3.950827  0.001
C  C30  1  0.50881614  0.65481866  0.77879180  1  -0.001257  0.00754  3.716038  0.006  -0.018125  0.009493  3.962959  0.007  -0.013619  0.008238  3.979258  0.007  -0.06885  -0.020418  0.011961  3.953083  0.009
C  C31  1  0.49117215  0.34517407  0.22120011  1  -0.001392  -0.007578  3.716066  -0.006  -0.018261  -0.009495  3.962984  -0.007  -0.013755  -0.00824  3.979281  -0.007  -0.068908  -0.020549  -0.011962  3.953106  -0.009
C  C32  1  0.58042090  0.79663553  0.89689820  1  -0.134894  -0.0026  3.688922  -0.003  -0.151731  -0.000942  3.933574  -0.001  -0.159062  -0.00183  3.954166  -0.002  -0.080506  -0.147098  -0.000758  3.92095  -0.001
C  C33  1  0.41956933  0.20335479  0.10309513  1  -0.13485  0.002631  3.688917  0.003  -0.151661  0.000941  3.933542  0.001  -0.158988  0.001833  3.954133  0.002  -0.080495  -0.147025  0.000757  3.920915  0.001
C  C34  1  0.62624479  0.94504203  0.88515327  1  0.165951  0.006114  3.743396  0.006  0.163697  0.009063  3.980217  0.008  0.170383  0.007415  4.001452  0.007  0.116862  0.15813  0.010732  3.967311  0.009
C  C35  1  0.37374776  0.05495314  0.11484167  1  0.165856  -0.006157  3.743457  -0.006  0.16357  -0.00906  3.980288  -0.008  0.170254  -0.007417  4.00152  -0.007  0.116783  0.158003  -0.010731  3.967381  -0.009
C  C36  1  0.70182045  0.10162328  0.00393644  1  0.184198  0.009137  3.762739  0.008  0.178637  0.011957  4.004217  0.01  0.186291  0.010192  4.024055  0.008  0.123639  0.172695  0.014438  3.991328  0.011
C  C37  1  0.29817785  0.89837312  0.99606043  1  0.184133  -0.009122  3.762754  -0.008  0.178608  -0.011959  4.004227  -0.01  0.186262  -0.010203  4.024068  -0.008  0.123616  0.172661  -0.014442  3.99134  -0.011
C  C38  1  0.74069592  0.11892362  0.13946296  1  -0.139078  -0.005992  3.686  -0.006  -0.159504  -0.003461  3.939021  -0.004  -0.166138  -0.004437  3.95805  -0.004  -0.080641  -0.151536  -0.002505  3.923274  -0.003
C  C39  1  0.25930031  0.88107278  0.86053460  1  -0.13906  0.005985  3.686142  0.006  -0.159485  0.00346  3.939146  0.004  -0.166137  0.004448  3.958156  0.004  -0.080607  -0.151518  0.002506  3.923395  0.003
C  C40  1  0.81221569  0.27360252  0.24267671  1  0.01032  0.011332  3.697833  0.009  -0.006626  0.013334  3.946874  0.01  -0.001774  0.011402  3.961891  0.009  -0.066652  -0.011663  0.015472  3.936052  0.012
C  C41  1  0.18778351  0.72639146  0.75731775  1  0.010307  -0.011328  3.697879  -0.009  -0.006611  -0.013341  3.946924  -0.01  -0.001757  -0.011406  3.961943  -0.009  -0.066647  -0.011654  -0.015478  3.936109  -0.012
C  C42  1  0.84426319  0.40715049  0.20971615  1  -0.130819  -0.006143  3.67732  -0.006  -0.148442  -0.003581  3.921938  -0.004  -0.154343  -0.00467  3.939399  -0.004  -0.074124  -0.141869  -0.002622  3.909282  -0.003
C  C43  1  0.15573923  0.59284593  0.79028307  1  -0.13079  0.006125  3.67753  0.006  -0.148418  0.00359  3.922126  0.004  -0.154322  0.004661  3.93959  0.004  -0.074146  -0.14184  0.002623  3.909456  0.003
C  C44  1  0.80291264  0.38165016  0.07225407  1  0.192505  0.010109  3.743346  0.009  0.187256  0.013195  3.983219  0.011  0.195576  0.011102  4.002411  0.009  0.127424  0.180347  0.015392  3.97138  0.012
C  C45  1  0.19708553  0.61834382  0.92774213  1  0.192365  -0.010096  3.743518  -0.009  0.187184  -0.013206  3.983377  -0.011  0.195504  -0.011097  4.002572  -0.009  0.127405  0.180273  -0.015397  3.971534  -0.012
C  C46  1  0.83280486  0.51245582  0.02352973  1  0.173524  0.002168  3.728276  0.002  0.169086  0.004847  3.965574  0.004  0.175234  0.003522  3.985704  0.003  0.121208  0.164567  0.005907  3.95258  0.004
C  C47  1  0.16719711  0.48754182  0.97647070  1  0.173645  -0.00217  3.728196  -0.002  0.169101  -0.004852  3.965598  -0.004  0.175246  -0.003516  3.985728  -0.003  0.121226  0.164584  -0.005906  3.952602  -0.004
C  C48  1  0.90052194  0.67576774  0.11039496  1  -0.124685  -0.000597  3.689285  0.0  -0.147342  -0.000473  3.94687  0.0  -0.152448  -0.000847  3.965189  0.0  -0.076834  -0.142659  5e-06  3.934412  0.001
C  C49  1  0.09947900  0.32422990  0.88960906  1  -0.124765  0.000614  3.689306  0.0  -0.147356  0.000479  3.946896  0.0  -0.15246  0.000838  3.965216  0.0  -0.076833  -0.142683  -6e-06  3.934433  -0.001
C  C50  1  0.92818604  0.79035342  0.05381218  1  0.003685  0.003553  3.709774  0.003  -0.015991  0.005396  3.961714  0.004  -0.012669  0.004336  3.978828  0.003  -0.068826  -0.018704  0.005977  3.950941  0.005
C  C51  1  0.07181353  0.20964788  0.94620011  1  0.003754  -0.003555  3.709903  -0.003  -0.01593  -0.005399  3.961825  -0.004  -0.012614  -0.004329  3.978941  -0.003  -0.068823  -0.018643  -0.005978  3.951063  -0.005
C  C52  1  0.88758307  0.73974398  0.91267128  1  -0.114961  -0.000237  3.733027  0.0  -0.125337  0.00046  3.980911  0.0  -0.131931  -0.000257  4.002882  0.0  -0.084588  -0.122467  0.001978  3.967582  0.001
C  C53  1  0.11242412  0.26026459  0.08733926  1  -0.115095  0.000199  3.733094  0.0  -0.125498  -0.000461  3.981032  0.0  -0.132092  0.000251  4.002998  0.0  -0.08463  -0.122653  -0.001978  3.967694  -0.001
C  C54  1  0.81819448  0.57474811  0.83270482  1  0.137419  0.003829  3.694427  0.003  0.106388  0.006223  3.944922  0.005  0.113989  0.005084  3.961982  0.004  0.050277  0.101686  0.007448  3.934555  0.005
C  C55  1  0.18181904  0.42526288  0.16730156  1  0.137517  -0.003781  3.694088  -0.003  0.106411  -0.006222  3.944651  -0.005  0.114008  -0.005083  3.961716  -0.004  0.050362  0.101706  -0.007449  3.934303  -0.005
Se  Se56  1  0.41081037  0.23219932  0.74568025  1  -0.667271  0.048791  1.8266  0.012  -0.591765  0.050759  2.228562  0.006  -0.635768  0.03872  2.212508  -0.001  -0.252715  -0.553475  0.06109  2.235449  0.012
Se  Se57  1  0.58920386  0.76781532  0.25433186  1  -0.667253  -0.048786  1.826719  -0.012  -0.591758  -0.050748  2.228679  -0.006  -0.63576  -0.038718  2.212617  0.001  -0.252689  -0.55346  -0.061087  2.235566  -0.012
Se  Se58  1  0.22220725  0.77400758  0.42042906  1  -0.687364  -0.056187  1.90582  -0.015  -0.611298  -0.062739  2.330311  -0.012  -0.654842  -0.047685  2.311295  -0.003  -0.248751  -0.575611  -0.077542  2.34344  -0.021
Se  Se59  1  0.77779208  0.22598882  0.57956794  1  -0.687331  0.05619  1.905925  0.015  -0.611279  0.062738  2.330452  0.012  -0.65482  0.047691  2.311429  0.003  -0.248752  -0.575593  0.077545  2.343584  0.021
Se  Se60  1  0.08082799  0.13040659  0.39696045  1  -0.541371  0.004611  1.72363  0.003  -0.470428  0.005251  2.061507  0.003  -0.494779  0.004056  2.054203  0.002  -0.188513  -0.452218  0.009171  2.070125  0.005
Se  Se61  1  0.91920089  0.86962138  0.60304870  1  -0.541355  -0.00461  1.723751  -0.003  -0.470396  -0.00525  2.061614  -0.003  -0.494744  -0.004054  2.054311  -0.002  -0.188521  -0.452189  -0.009167  2.070227  -0.005
N  N62  1  0.60329723  0.95420441  0.76152506  1  -0.335904  0.026862  3.240493  0.011  -0.263893  0.031439  3.511934  0.012  -0.287023  0.02682  3.528964  0.008  -0.320148  -0.247778  0.036356  3.500508  0.016
N  N63  1  0.39669487  0.04579197  0.23847108  1  -0.335881  -0.026829  3.24055  -0.011  -0.263855  -0.031443  3.511948  -0.012  -0.286984  -0.02682  3.528977  -0.008  -0.32015  -0.247737  -0.036359  3.500514  -0.016
N  N64  1  0.73274633  0.23131016  0.97304012  1  -0.359717  0.028295  3.271112  0.015  -0.294827  0.033564  3.541508  0.017  -0.316501  0.027237  3.556509  0.011  -0.32443  -0.280438  0.039746  3.532001  0.023
N  N65  1  0.26725668  0.76868748  0.02696136  1  -0.359578  -0.028311  3.270944  -0.015  -0.294755  -0.033563  3.541378  -0.017  -0.316427  -0.027239  3.556374  -0.011  -0.324396  -0.280368  -0.039746  3.531876  -0.023
N  N66  1  0.79104813  0.46374308  0.88622715  1  -0.319638  0.03003  3.232385  0.022  -0.24587  0.033331  3.490538  0.023  -0.266622  0.028778  3.507292  0.019  -0.315709  -0.232242  0.038342  3.479237  0.027
N  N67  1  0.20896352  0.53626184  0.11377270  1  -0.319698  -0.030051  3.232294  -0.022  -0.245877  -0.033333  3.490518  -0.023  -0.266627  -0.028779  3.507268  -0.019  -0.315795  -0.232248  -0.038343  3.479217  -0.027
