# generated using pymatgen
data_TbP2H12C6NO11
_symmetry_space_group_name_H-M   'P 1'
_cell_length_a   8.84549752
_cell_length_b   10.85377231
_cell_length_c   15.25000000
_cell_angle_alpha   92.90211293
_cell_angle_beta   90.00000000
_cell_angle_gamma   90.00000000
_symmetry_Int_Tables_number   1
_chemical_formula_structural   TbP2H12C6NO11
_chemical_formula_sum   'Tb4 P8 H48 C24 N4 O44'
_cell_volume   1462.22926289
_cell_formula_units_Z   4
loop_
 _symmetry_equiv_pos_site_id
 _symmetry_equiv_pos_as_xyz
  1  'x, y, z'
loop_
 _atom_site_type_symbol
 _atom_site_label
 _atom_site_symmetry_multiplicity
 _atom_site_fract_x
 _atom_site_fract_y
 _atom_site_fract_z
 _atom_site_occupancy
 _atom_site_hle17_bader_spin_density
 _atom_site_hle17_ddec_charge
 _atom_site_hle17_ddec_spin_density
 _atom_site_hle17_ddec_sum_bond_order
 _atom_site_hle17_magmom
 _atom_site_hse06_10hf_bader_spin_density
 _atom_site_hse06_10hf_ddec_charge
 _atom_site_hse06_10hf_ddec_spin_density
 _atom_site_hse06_10hf_ddec_sum_bond_order
 _atom_site_hse06_10hf_magmom
 _atom_site_hse06_bader_spin_density
 _atom_site_hse06_ddec_charge
 _atom_site_hse06_ddec_spin_density
 _atom_site_hse06_ddec_sum_bond_order
 _atom_site_hse06_magmom
 _atom_site_pbe_bader_charge
 _atom_site_pbe_bader_spin_density
 _atom_site_pbe_cm5_charge
 _atom_site_pbe_ddec_charge
 _atom_site_pbe_ddec_spin_density
 _atom_site_pbe_ddec_sum_bond_order
 _atom_site_pbe_magmom
Tb  Tb0  1  0.24169585  0.40712640  0.61938529  1  0  2.317414  0  1.621478  0  0  2.249091  0  1.947528  0  0  2.290709  0  1.909655  0  2.210816  0  1.517421  2.146251  0  2.110189  0
Tb  Tb1  1  0.74169825  0.59288354  0.88061992  1  0  2.317454  0  1.621357  0  0  2.249127  0  1.947401  0  0  2.290863  0  1.909423  0  2.211067  0  1.517427  2.146362  0  2.109942  0
Tb  Tb2  1  0.75830104  0.59287616  0.38061441  1  0  2.317416  0  1.621416  0  0  2.249091  0  1.947456  0  0  2.290708  0  1.90958  0  2.210928  0  1.517418  2.146222  0  2.110165  0
Tb  Tb3  1  0.25829864  0.40711441  0.11938158  1  0  2.317479  0  1.621294  0  0  2.249145  0  1.947331  0  0  2.290762  0  1.909448  0  2.211034  0  1.517419  2.146406  0  2.109827  0
P  P4  1  0.15630325  0.63662676  0.45784536  1  0  1.509651  0  4.747912  0  0  1.361189  0  5.249491  0  0  1.412463  0  5.207914  0  3.371908  0  0.395319  1.323962  0  5.273491  0
P  P5  1  0.65630791  0.36337672  0.04215503  1  0  1.509552  0  4.747807  0  0  1.361122  0  5.249286  0  0  1.412395  0  5.207712  0  3.371716  0  0.395253  1.323894  0  5.273302  0
P  P6  1  0.84369251  0.36337580  0.54215434  1  0  1.509574  0  4.747854  0  0  1.361108  0  5.249413  0  0  1.412378  0  5.207846  0  3.371761  0  0.395276  1.323876  0  5.273424  0
P  P7  1  0.34369124  0.63662215  0.95784453  1  0  1.509581  0  4.747856  0  0  1.361173  0  5.249308  0  0  1.412461  0  5.20766  0  3.371917  0  0.395248  1.323947  0  5.273321  0
P  P8  1  0.18900463  0.06349625  0.61181526  1  0  1.515389  0  4.788483  0  0  1.363324  0  5.306857  0  0  1.4145  0  5.264056  0  3.386232  0  0.378399  1.326839  0  5.334188  0
P  P9  1  0.68899799  0.93651277  0.88818533  1  0  1.51537  0  4.788372  0  0  1.363319  0  5.306765  0  0  1.41447  0  5.263963  0  3.386477  0  0.378403  1.326841  0  5.334091  0
P  P10  1  0.81100356  0.93650908  0.38818257  1  0  1.515327  0  4.788735  0  0  1.363314  0  5.307131  0  0  1.414433  0  5.264315  0  3.386524  0  0.378379  1.326831  0  5.33446  0
P  P11  1  0.31100568  0.06348426  0.11181417  1  0  1.515424  0  4.788423  0  0  1.363415  0  5.306818  0  0  1.414538  0  5.264005  0  3.386569  0  0.378432  1.326935  0  5.334148  0
H  H12  1  0.33650905  0.05688546  0.72492852  1  0  0.439759  0  0.783268  0  0  0.4257  0  0.830464  0  0  0.43445  0  0.820818  0  0.635198  0  0.35396  0.419393  0  0.837704  0
H  H13  1  0.83649902  0.94310142  0.77507389  1  0  0.439766  0  0.783217  0  0  0.425715  0  0.830415  0  0  0.434467  0  0.820765  0  0.63514  0  0.353963  0.419406  0  0.837659  0
H  H14  1  0.66349236  0.94311433  0.27507370  1  0  0.439745  0  0.783222  0  0  0.425721  0  0.830376  0  0  0.434474  0  0.820723  0  0.635209  0  0.353937  0.419413  0  0.837622  0
H  H15  1  0.16350126  0.05689192  0.22492679  1  0  0.439754  0  0.783088  0  0  0.425704  0  0.83029  0  0  0.434455  0  0.820638  0  0.63521  0  0.353949  0.419397  0  0.837532  0
H  H16  1  0.47018949  0.37580309  0.45930314  1  0  0.450753  0  0.828074  0  0  0.425038  0  0.884274  0  0  0.435648  0  0.868602  0  0.66194  0  0.309607  0.416764  0  0.896398  0
H  H17  1  0.97019755  0.62419762  0.04070305  1  0  0.450692  0  0.828058  0  0  0.424951  0  0.884378  0  0  0.435622  0  0.868603  0  0.661822  0  0.30955  0.416679  0  0.896501  0
H  H18  1  0.52980966  0.62420131  0.54069794  1  0  0.450765  0  0.828042  0  0  0.42505  0  0.884255  0  0  0.43566  0  0.868583  0  0.661929  0  0.309596  0.416776  0  0.896379  0
H  H19  1  0.02980047  0.37580125  0.95929848  1  0  0.450712  0  0.828082  0  0  0.424965  0  0.884378  0  0  0.435599  0  0.868668  0  0.661809  0  0.309543  0.416692  0  0.896502  0
H  H20  1  0.54436169  0.37909281  0.55131348  1  0  0.414893  0  0.875801  0  0  0.382861  0  0.957325  0  0  0.392162  0  0.943512  0  0.615354  0  0.311085  0.376357  0  0.9666  0
H  H21  1  0.04435477  0.62091252  0.94869091  1  0  0.414914  0  0.875804  0  0  0.382867  0  0.957332  0  0  0.392206  0  0.943943  0  0.615517  0  0.311066  0.376362  0  0.966607  0
H  H22  1  0.45564085  0.62090699  0.44868874  1  0  0.414913  0  0.875838  0  0  0.382886  0  0.957301  0  0  0.392189  0  0.943486  0  0.615412  0  0.311085  0.376383  0  0.966574  0
H  H23  1  0.95563760  0.37909004  0.05131076  1  0  0.414867  0  0.875872  0  0  0.382826  0  0.957383  0  0  0.392135  0  0.943556  0  0.61543  0  0.31106  0.376323  0  0.966657  0
H  H24  1  0.10965805  0.91756786  0.44578266  1  0  0.295794  0  0.901237  0  0  0.276829  0  0.962386  0  0  0.285067  0  0.957294  0  0.560988  0  0.310926  0.270967  0  0.966116  0
H  H25  1  0.60965480  0.08243378  0.05421701  1  0  0.295776  0  0.901254  0  0  0.276847  0  0.962371  0  0  0.285078  0  0.957285  0  0.560822  0  0.310913  0.271016  0  0.966047  0
H  H26  1  0.89034901  0.08243655  0.55421711  1  0  0.295739  0  0.901332  0  0  0.276806  0  0.96246  0  0  0.285043  0  0.957375  0  0.560761  0  0.310902  0.270947  0  0.966183  0
H  H27  1  0.39034661  0.91756601  0.94578128  1  0  0.295793  0  0.901298  0  0  0.276848  0  0.962419  0  0  0.285084  0  0.957338  0  0.560959  0  0.310908  0.270989  0  0.966144  0
H  H28  1  0.12628798  0.79784298  0.57245927  1  0  0.161538  0  0.907607  0  0  0.17306  0  0.95975  0  0  0.176772  0  0.957149  0  0.142993  0  0.13446  0.170146  0  0.962292  0
H  H29  1  0.62628586  0.20216235  0.92754053  1  0  0.161515  0  0.907607  0  0  0.173065  0  0.959719  0  0  0.176779  0  0.957117  0  0.142998  0  0.134473  0.170151  0  0.96226  0
H  H30  1  0.87371230  0.20216143  0.42753853  1  0  0.161549  0  0.907605  0  0  0.173125  0  0.959693  0  0  0.176839  0  0.957088  0  0.143087  0  0.134471  0.170212  0  0.962229  0
H  H31  1  0.37371555  0.79783837  0.07245779  1  0  0.161497  0  0.907635  0  0  0.173057  0  0.959738  0  0  0.176769  0  0.957137  0  0.142906  0  0.134463  0.170141  0  0.962283  0
H  H32  1  0.32132732  0.76467278  0.55104564  1  0  0.145525  0  0.930442  0  0  0.156187  0  0.988263  0  0  0.159457  0  0.9862  0  0.108001  0  0.126817  0.153566  0  0.990394  0
H  H33  1  0.82132746  0.23532885  0.94895402  1  0  0.145532  0  0.930384  0  0  0.156193  0  0.988209  0  0  0.159461  0  0.986152  0  0.108004  0  0.126842  0.153571  0  0.99034  0
H  H34  1  0.67867183  0.23532701  0.44895396  1  0  0.145465  0  0.930476  0  0  0.156126  0  0.988316  0  0  0.159396  0  0.986255  0  0.107985  0  0.126799  0.153504  0  0.990448  0
H  H35  1  0.17867395  0.76467278  0.05104630  1  0  0.14548  0  0.930397  0  0  0.156143  0  0.988233  0  0  0.159457  0  0.98609  0  0.108045  0  0.1268  0.153524  0  0.990362  0
H  H36  1  0.30232556  0.07137828  0.47063437  1  0  0.145528  0  0.903523  0  0  0.162001  0  0.949888  0  0  0.164596  0  0.948745  0  0.095248  0  0.135572  0.159884  0  0.951372  0
H  H37  1  0.80232231  0.92862613  0.02936147  1  0  0.145499  0  0.903439  0  0  0.162009  0  0.949796  0  0  0.164589  0  0.94864  0  0.095377  0  0.135587  0.159895  0  0.951279  0
H  H38  1  0.69768376  0.92862151  0.52936458  1  0  0.145486  0  0.903514  0  0  0.161996  0  0.949908  0  0  0.164557  0  0.948748  0  0.09528  0  0.135579  0.15988  0  0.951393  0
H  H39  1  0.19768136  0.07137459  0.97063751  1  0  0.145506  0  0.903462  0  0  0.162037  0  0.949821  0  0  0.1646  0  0.948662  0  0.095359  0  0.13559  0.159922  0  0.951306  0
H  H40  1  0.40471551  0.96751227  0.53581975  1  0  0.119136  0  0.947002  0  0  0.132517  0  1.008145  0  0  0.134419  0  1.007801  0  0.057341  0  0.119861  0.131121  0  1.008578  0
H  H41  1  0.90470547  0.03249214  0.96417346  1  0  0.119078  0  0.947128  0  0  0.132535  0  1.008217  0  0  0.134401  0  1.007891  0  0.057134  0  0.119875  0.131141  0  1.008653  0
H  H42  1  0.59529495  0.03248661  0.46417719  1  0  0.119072  0  0.947145  0  0  0.132512  0  1.008287  0  0  0.13438  0  1.007923  0  0.057165  0  0.11986  0.131116  0  1.008723  0
H  H43  1  0.09529594  0.96750858  0.03582486  1  0  0.119082  0  0.947113  0  0  0.132549  0  1.008222  0  0  0.134405  0  1.007878  0  0.057141  0  0.119879  0.131154  0  1.008658  0
H  H44  1  0.30741629  0.95048897  0.34666534  1  0  0.102615  0  0.919458  0  0  0.116897  0  0.978555  0  0  0.118499  0  0.977273  0  0.094559  0  0.121663  0.115711  0  0.979453  0
H  H45  1  0.80741869  0.04950621  0.15333081  1  0  0.102691  0  0.91941  0  0  0.116945  0  0.978534  0  0  0.118545  0  0.977256  0  0.094573  0  0.121685  0.115762  0  0.979433  0
H  H46  1  0.69258512  0.04950990  0.65333291  1  0  0.102622  0  0.919474  0  0  0.116892  0  0.978557  0  0  0.118493  0  0.977278  0  0.09457  0  0.121672  0.115709  0  0.979455  0
H  H47  1  0.19258046  0.95049266  0.84666744  1  0  0.102657  0  0.919474  0  0  0.116921  0  0.978577  0  0  0.118519  0  0.977304  0  0.094598  0  0.121676  0.115739  0  0.979476  0
H  H48  1  0.42390041  0.83975407  0.39891508  1  0  0.102236  0  0.915863  0  0  0.116943  0  0.976831  0  0  0.118147  0  0.976745  0  0.095891  0  0.121502  0.115869  0  0.977224  0
H  H49  1  0.92389716  0.16024388  0.10108445  1  0  0.102235  0  0.915909  0  0  0.116946  0  0.976872  0  0  0.118147  0  0.976792  0  0.095897  0  0.121523  0.115872  0  0.977264  0
H  H50  1  0.57610100  0.16024480  0.60108317  1  0  0.102212  0  0.915915  0  0  0.116915  0  0.976862  0  0  0.118117  0  0.976781  0  0.095965  0  0.121527  0.11584  0  0.977254  0
H  H51  1  0.07610199  0.83975407  0.89891508  1  0  0.102245  0  0.915871  0  0  0.116948  0  0.976842  0  0  0.118191  0  0.97668  0  0.095892  0  0.121519  0.115875  0  0.977234  0
H  H52  1  0.11591321  0.78109460  0.31130756  1  0  0.085244  0  0.926236  0  0  0.094066  0  0.99297  0  0  0.095526  0  0.991547  0  0.128968  0  0.117174  0.092813  0  0.994281  0
H  H53  1  0.61591335  0.21890428  0.18869332  1  0  0.085245  0  0.926242  0  0  0.094069  0  0.992968  0  0  0.095536  0  0.991543  0  0.128967  0  0.117162  0.092817  0  0.994278  0
H  H54  1  0.88408594  0.21890704  0.68869211  1  0  0.085255  0  0.926249  0  0  0.094076  0  0.992971  0  0  0.095539  0  0.991547  0  0.128992  0  0.117193  0.092824  0  0.99428  0
H  H55  1  0.38408693  0.78109367  0.81130752  1  0  0.085238  0  0.926255  0  0  0.094066  0  0.993004  0  0  0.095534  0  0.991558  0  0.128979  0  0.117175  0.092814  0  0.994313  0
H  H56  1  0.29651809  0.75207852  0.26228952  1  0  0.105867  0  0.916184  0  0  0.118187  0  0.974395  0  0  0.119518  0  0.973523  0  0.117916  0  0.121552  0.116753  0  0.975723  0
H  H57  1  0.79652049  0.24791666  0.23771122  1  0  0.105977  0  0.916107  0  0  0.118259  0  0.97435  0  0  0.119595  0  0.973481  0  0.117909  0  0.121583  0.116825  0  0.975677  0
H  H58  1  0.70348106  0.24792128  0.73771139  1  0  0.105918  0  0.91609  0  0  0.118172  0  0.974372  0  0  0.119505  0  0.973498  0  0.117898  0  0.121548  0.116737  0  0.975699  0
H  H59  1  0.20347979  0.75208128  0.76228765  1  0  0.105966  0  0.91613  0  0  0.118302  0  0.974329  0  0  0.119634  0  0.97345  0  0.117879  0  0.121581  0.116866  0  0.975657  0
C  C60  1  0.21052066  0.77854936  0.52078436  1  0  -0.347519  0  3.473949  0  0  -0.382901  0  3.711718  0  0  -0.388224  0  3.71638  0  -0.288582  0  -0.064319  -0.379547  0  3.710321  0
C  C61  1  0.71052080  0.22145505  0.97921540  1  0  -0.347471  0  3.473821  0  0  -0.382838  0  3.711545  0  0  -0.388168  0  3.716226  0  -0.288568  0  -0.064335  -0.379478  0  3.710138  0
C  C62  1  0.78948075  0.22145320  0.47921402  1  0  -0.347439  0  3.473894  0  0  -0.382868  0  3.711673  0  0  -0.388202  0  3.716364  0  -0.288687  0  -0.064275  -0.379507  0  3.710266  0
C  C63  1  0.28948287  0.77854567  0.02078292  1  0  -0.347395  0  3.473868  0  0  -0.382799  0  3.711625  0  0  -0.38809  0  3.716183  0  -0.288474  0  -0.064269  -0.379445  0  3.710222  0
C  C64  1  0.29147145  0.99609660  0.51570813  1  0  -0.342854  0  3.53612  0  0  -0.386526  0  3.791946  0  0  -0.391209  0  3.797814  0  -0.221708  0  -0.067513  -0.383468  0  3.788955  0
C  C65  1  0.79146481  0.00390780  0.98428967  1  0  -0.342777  0  3.536144  0  0  -0.386593  0  3.792064  0  0  -0.391166  0  3.797821  0  -0.221876  0  -0.067575  -0.383549  0  3.789093  0
C  C66  1  0.70853787  0.00390411  0.48429150  1  0  -0.342686  0  3.536109  0  0  -0.386594  0  3.792179  0  0  -0.391083  0  3.797826  0  -0.221725  0  -0.067566  -0.383545  0  3.789197  0
C  C67  1  0.20853660  0.99609199  0.01570928  1  0  -0.34275  0  3.536126  0  0  -0.386666  0  3.792149  0  0  -0.391165  0  3.797828  0  -0.221806  0  -0.067565  -0.383616  0  3.789164  0
C  C68  1  0.30753273  0.86465201  0.38160833  1  0  -0.053675  0  3.539864  0  0  -0.117734  0  3.804145  0  0  -0.115352  0  3.813756  0  0.188898  0  -0.062341  -0.119187  0  3.797608  0
C  C69  1  0.80752948  0.13534502  0.11839051  1  0  -0.053774  0  3.539884  0  0  -0.117819  0  3.804222  0  0  -0.115433  0  3.813845  0  0.188877  0  -0.062386  -0.119278  0  3.797695  0
C  C70  1  0.69246981  0.13534779  0.61838996  1  0  -0.053756  0  3.539878  0  0  -0.11773  0  3.804054  0  0  -0.115352  0  3.81368  0  0.18887  0  -0.062385  -0.119185  0  3.79752  0
C  C71  1  0.19246967  0.86465385  0.88160774  1  0  -0.053755  0  3.539862  0  0  -0.117778  0  3.804163  0  0  -0.115378  0  3.813724  0  0.188891  0  -0.062362  -0.119235  0  3.79763  0
C  C72  1  0.23574027  0.76288125  0.32477125  1  0  0.092541  0  3.577284  0  0  0.033319  0  3.843575  0  0  0.04053  0  3.848375  0  0.367283  0  -0.058244  0.02843  0  3.841032  0
C  C73  1  0.73574267  0.23711486  0.17523018  1  0  0.092516  0  3.577223  0  0  0.033315  0  3.843509  0  0  0.040504  0  3.848339  0  0.367268  0  -0.058231  0.028425  0  3.840971  0
C  C74  1  0.76425775  0.23711947  0.67522904  1  0  0.092541  0  3.577202  0  0  0.033354  0  3.84344  0  0  0.040557  0  3.848248  0  0.367296  0  -0.058237  0.028466  0  3.840897  0
C  C75  1  0.26425648  0.76288217  0.82476866  1  0  0.092558  0  3.577192  0  0  0.033273  0  3.843561  0  0  0.040514  0  3.848307  0  0.367282  0  -0.058258  0.028387  0  3.841016  0
C  C76  1  0.52293497  0.55673176  0.71262606  1  0  0.561549  0  3.937158  0  0  0.51392  0  4.253573  0  0  0.544091  0  4.242779  0  1.584974  0  0.210337  0.493853  0  4.252456  0
C  C77  1  0.02294275  0.44326988  0.78737688  1  0  0.561803  0  3.937557  0  0  0.51406  0  4.254155  0  0  0.544243  0  4.243286  0  1.585246  0  0.21039  0.493997  0  4.253039  0
C  C78  1  0.47705400  0.44326619  0.28737413  1  0  0.561645  0  3.937028  0  0  0.51398  0  4.253475  0  0  0.544149  0  4.242683  0  1.584597  0  0.210329  0.49392  0  4.252357  0
C  C79  1  0.97705754  0.55672530  0.21262583  1  0  0.561469  0  3.937808  0  0  0.513845  0  4.25416  0  0  0.544011  0  4.243371  0  1.584592  0  0.210316  0.493784  0  4.253041  0
C  C80  1  0.51667529  0.43140994  0.75739870  1  0  0.563637  0  3.949528  0  0  0.517013  0  4.267108  0  0  0.547555  0  4.255699  0  1.608642  0  0.209223  0.496829  0  4.265751  0
C  C81  1  0.01666045  0.56860092  0.74260720  1  0  0.563536  0  3.949059  0  0  0.516901  0  4.266739  0  0  0.547468  0  4.255263  0  1.608318  0  0.209223  0.496699  0  4.265408  0
C  C82  1  0.48332499  0.56859170  0.24260294  1  0  0.563586  0  3.949227  0  0  0.517007  0  4.266764  0  0  0.547551  0  4.255354  0  1.608676  0  0.209204  0.496805  0  4.265438  0
C  C83  1  0.98333417  0.43139518  0.25739751  1  0  0.563728  0  3.949252  0  0  0.517169  0  4.266706  0  0  0.547717  0  4.255292  0  1.608672  0  0.209332  0.496965  0  4.265381  0
N  N84  1  0.22073603  0.88947891  0.46579410  1  0  -0.023304  0  3.38405  0  0  0.056389  0  3.596322  0  0  0.045039  0  3.616823  0  -1.020931  0  -0.336444  0.064046  0  3.58258  0
N  N85  1  0.72073391  0.11052365  0.03420560  1  0  -0.023238  0  3.383896  0  0  0.056381  0  3.59632  0  0  0.045015  0  3.616808  0  -1.020785  0  -0.336434  0.064025  0  3.58257  0
N  N86  1  0.77926877  0.11052365  0.53420560  1  0  -0.023152  0  3.383839  0  0  0.056509  0  3.596185  0  0  0.045112  0  3.616661  0  -1.020774  0  -0.336406  0.064165  0  3.582445  0
N  N87  1  0.27926750  0.88947615  0.96579334  1  0  -0.023283  0  3.384028  0  0  0.05639  0  3.596422  0  0  0.044998  0  3.616896  0  -1.021017  0  -0.336429  0.064047  0  3.582683  0
O  O88  1  0.22752932  0.52851274  0.49943282  1  0  -0.9098  0  2.011028  0  0  -0.84884  0  2.277104  0  0  -0.873699  0  2.255738  0  -1.454424  0  -0.443808  -0.820435  0  2.294448  0
O  O89  1  0.72752606  0.47149167  0.00057416  1  0  -0.90972  0  2.01104  0  0  -0.848797  0  2.277149  0  0  -0.873602  0  2.255672  0  -1.454439  0  -0.443784  -0.820389  0  2.294453  0
O  O90  1  0.77247210  0.47148982  0.50056951  1  0  -0.909763  0  2.011067  0  0  -0.848797  0  2.277152  0  0  -0.873637  0  2.255747  0  -1.45445  0  -0.44377  -0.820376  0  2.294466  0
O  O91  1  0.27247195  0.52850813  0.99942740  1  0  -0.909768  0  2.01107  0  0  -0.848816  0  2.277137  0  0  -0.873621  0  2.25578  0  -1.454444  0  -0.443777  -0.820411  0  2.294433  0
O  O92  1  0.25094914  0.64679203  0.36718543  1  0  -0.507047  0  2.199588  0  0  -0.420947  0  2.442846  0  0  -0.442797  0  2.436198  0  -1.285491  0  -0.207837  -0.406282  0  2.448357  0
O  O93  1  0.75095267  0.35320500  0.13281670  1  0  -0.507107  0  2.199562  0  0  -0.420955  0  2.442718  0  0  -0.442805  0  2.436081  0  -1.285456  0  -0.207779  -0.406287  0  2.448219  0
O  O94  1  0.74904888  0.35320777  0.63281483  1  0  -0.507097  0  2.199623  0  0  -0.42096  0  2.442812  0  0  -0.442805  0  2.436161  0  -1.285514  0  -0.207845  -0.406295  0  2.44832  0
O  O95  1  0.24904535  0.64679387  0.86718352  1  0  -0.50716  0  2.199609  0  0  -0.421008  0  2.442792  0  0  -0.44289  0  2.436287  0  -1.285506  0  -0.207803  -0.40634  0  2.448293  0
O  O96  1  0.98993075  0.64289253  0.44075901  1  0  -0.923015  0  2.030266  0  0  -0.865346  0  2.301553  0  0  -0.890547  0  2.281308  0  -1.463756  0  -0.446221  -0.836081  0  2.318508  0
O  O97  1  0.48992835  0.35710727  0.05924453  1  0  -0.923061  0  2.030082  0  0  -0.865394  0  2.301375  0  0  -0.890592  0  2.281133  0  -1.463531  0  -0.44627  -0.836152  0  2.318322  0
O  O98  1  0.01007179  0.35710542  0.55924184  1  0  -0.92303  0  2.030097  0  0  -0.865352  0  2.301388  0  0  -0.89055  0  2.281142  0  -1.463564  0  -0.446239  -0.836092  0  2.318341  0
O  O99  1  0.51006854  0.64289160  0.94075570  1  0  -0.923022  0  2.030159  0  0  -0.865367  0  2.301449  0  0  -0.890568  0  2.281177  0  -1.463708  0  -0.446263  -0.836121  0  2.318396  0
O  O100  1  0.02601097  0.02413686  0.60672287  1  0  -0.806323  0  1.870617  0  0  -0.740089  0  2.104501  0  0  -0.764738  0  2.08612  0  -1.460505  0  -0.369533  -0.722717  0  2.117282  0
O  O101  1  0.52599981  0.97587216  0.89327378  1  0  -0.806429  0  1.870614  0  0  -0.740154  0  2.104447  0  0  -0.764805  0  2.086079  0  -1.460555  0  -0.369558  -0.722781  0  2.117226  0
O  O102  1  0.97399383  0.97586386  0.39327414  1  0  -0.806401  0  1.870904  0  0  -0.740102  0  2.104723  0  0  -0.764752  0  2.086358  0  -1.460432  0  -0.369494  -0.722729  0  2.117503  0
O  O103  1  0.47400047  0.02412764  0.10672778  1  0  -0.806383  0  1.870648  0  0  -0.740127  0  2.10449  0  0  -0.764774  0  2.086126  0  -1.460635  0  -0.369529  -0.722766  0  2.117259  0
O  O104  1  0.23783852  0.19598607  0.61325961  1  0  -0.934809  0  2.048094  0  0  -0.876124  0  2.328135  0  0  -0.900998  0  2.305557  0  -1.459899  0  -0.459808  -0.847277  0  2.346148  0
O  O105  1  0.73783074  0.80402111  0.88674222  1  0  -0.934836  0  2.048037  0  0  -0.876121  0  2.328023  0  0  -0.900971  0  2.305387  0  -1.459937  0  -0.459815  -0.847284  0  2.346028  0
O  O106  1  0.76216629  0.80401649  0.38673550  1  0  -0.934829  0  2.048078  0  0  -0.876123  0  2.328054  0  0  -0.901  0  2.3055  0  -1.460103  0  -0.459804  -0.847271  0  2.346068  0
O  O107  1  0.26216841  0.19597684  0.11325797  1  0  -0.934868  0  2.047996  0  0  -0.876153  0  2.32797  0  0  -0.901031  0  2.305414  0  -1.460043  0  -0.459817  -0.847322  0  2.345975  0
O  O108  1  0.26278906  0.00097142  0.69638451  1  0  -0.724677  0  1.934565  0  0  -0.664454  0  2.147851  0  0  -0.683317  0  2.12534  0  -1.373861  0  -0.384564  -0.65137  0  2.163736  0
O  O109  1  0.76278355  0.99902838  0.80361050  1  0  -0.724592  0  1.934424  0  0  -0.664418  0  2.147726  0  0  -0.683282  0  2.125225  0  -1.37367  0  -0.384535  -0.651331  0  2.163607  0
O  O110  1  0.73721348  0.99903022  0.30361319  1  0  -0.724644  0  1.934499  0  0  -0.664487  0  2.147761  0  0  -0.683351  0  2.12526  0  -1.373799  0  -0.384561  -0.651402  0  2.163645  0
O  O111  1  0.23721899  0.00096865  0.19638835  1  0  -0.724608  0  1.934305  0  0  -0.664436  0  2.147615  0  0  -0.683301  0  2.125115  0  -1.373739  0  -0.384554  -0.651349  0  2.163496  0
O  O112  1  0.44303670  0.56448555  0.64325170  1  0  -0.700686  0  2.049454  0  0  -0.652654  0  2.285789  0  0  -0.676765  0  2.275261  0  -1.19884  0  -0.362045  -0.627737  0  2.294305  0
O  O113  1  0.94302553  0.43552162  0.85675145  1  0  -0.700909  0  2.049426  0  0  -0.652822  0  2.285845  0  0  -0.676878  0  2.275263  0  -1.198849  0  -0.362101  -0.627911  0  2.294356  0
O  O114  1  0.55696019  0.43551516  0.35674859  1  0  -0.700679  0  2.049262  0  0  -0.652638  0  2.285615  0  0  -0.67675  0  2.275082  0  -1.199067  0  -0.362029  -0.627715  0  2.294126  0
O  O115  1  0.05697023  0.56447541  0.14325133  1  0  -0.700706  0  2.049387  0  0  -0.652678  0  2.285751  0  0  -0.676747  0  2.275135  0  -1.198831  0  -0.362058  -0.627772  0  2.294259  0
O  O116  1  0.60662840  0.63907421  0.74753355  1  0  -0.639722  0  2.021003  0  0  -0.60754  0  2.260348  0  0  -0.628445  0  2.249305  0  -1.167586  0  -0.361102  -0.584546  0  2.26946  0
O  O117  1  0.10661695  0.36092927  0.75247471  1  0  -0.639716  0  2.021642  0  0  -0.607489  0  2.261043  0  0  -0.628389  0  2.249997  0  -1.167764  0  -0.361059  -0.584487  0  2.270155  0
O  O118  1  0.39335832  0.36092835  0.25247271  1  0  -0.639769  0  2.02113  0  0  -0.607577  0  2.260482  0  0  -0.628475  0  2.24944  0  -1.166956  0  -0.361091  -0.584588  0  2.269594  0
O  O119  1  0.89337767  0.63906867  0.24752548  1  0  -0.6397  0  2.021632  0  0  -0.607523  0  2.260959  0  0  -0.628423  0  2.249921  0  -1.167345  0  -0.361099  -0.584517  0  2.270073  0
O  O120  1  0.42749659  0.35043190  0.72469644  1  0  -0.662582  0  2.023108  0  0  -0.627125  0  2.265228  0  0  -0.648885  0  2.254106  0  -1.188538  0  -0.377787  -0.603304  0  2.274305  0
O  O121  1  0.92752273  0.64958173  0.77531546  1  0  -0.662428  0  2.023398  0  0  -0.626955  0  2.26553  0  0  -0.648664  0  2.25433  0  -1.188382  0  -0.377671  -0.603143  0  2.274612  0
O  O122  1  0.57249578  0.64956697  0.27530378  1  0  -0.662511  0  2.023186  0  0  -0.627066  0  2.265288  0  0  -0.648826  0  2.254169  0  -1.188494  0  -0.377749  -0.603236  0  2.274376  0
O  O123  1  0.07247529  0.35041714  0.22469066  1  0  -0.662421  0  2.023318  0  0  -0.626994  0  2.265403  0  0  -0.648754  0  2.254283  0  -1.188457  0  -0.377688  -0.603187  0  2.274489  0
O  O124  1  0.60518473  0.41929723  0.82185140  1  0  -0.675054  0  2.035911  0  0  -0.640215  0  2.283052  0  0  -0.663598  0  2.273367  0  -1.183765  0  -0.377976  -0.614583  0  2.291242  0
O  O125  1  0.10518572  0.58070164  0.67814357  1  0  -0.675109  0  2.03527  0  0  -0.640255  0  2.282409  0  0  -0.663648  0  2.272718  0  -1.183592  0  -0.378062  -0.614595  0  2.290609  0
O  O126  1  0.39481329  0.58070256  0.17814623  1  0  -0.675074  0  2.035624  0  0  -0.640256  0  2.282754  0  0  -0.663637  0  2.273071  0  -1.183796  0  -0.377978  -0.614618  0  2.290952  0
O  O127  1  0.89481004  0.41929631  0.32185989  1  0  -0.675193  0  2.035443  0  0  -0.640372  0  2.282534  0  0  -0.663762  0  2.272847  0  -1.183774  0  -0.378108  -0.614711  0  2.290742  0
O  O128  1  0.45684711  0.34499548  0.51900218  1  0  -0.878017  0  1.832764  0  0  -0.844082  0  2.021274  0  0  -0.860638  0  1.990053  0  -1.265436  0  -0.615373  -0.823093  0  2.048164  0
O  O129  1  0.95684951  0.65501446  0.98100762  1  0  -0.877982  0  1.832716  0  0  -0.844003  0  2.021239  0  0  -0.861249  0  1.989459  0  -1.265541  0  -0.615295  -0.823037  0  2.048146  0
O  O130  1  0.54315204  0.65500893  0.48099824  1  0  -0.87804  0  1.832821  0  0  -0.844108  0  2.021295  0  0  -0.860666  0  1.990069  0  -1.265486  0  -0.615357  -0.823115  0  2.048186  0
O  O131  1  0.04314511  0.34498717  0.01899467  1  0  -0.87797  0  1.832791  0  0  -0.844001  0  2.021299  0  0  -0.860542  0  1.990023  0  -1.265454  0  -0.615295  -0.823026  0  2.048178  0
