# generated using pymatgen
data_ZnH14C8S2(NO)4
_symmetry_space_group_name_H-M   'P 1'
_cell_length_a   8.58033739
_cell_length_b   8.57832259
_cell_length_c   12.18498621
_cell_angle_alpha   91.73265769
_cell_angle_beta   110.86526217
_cell_angle_gamma   116.81437988
_symmetry_Int_Tables_number   1
_chemical_formula_structural   ZnH14C8S2(NO)4
_chemical_formula_sum   'Zn2 H28 C16 S4 N8 O8'
_cell_volume   728.08277396
_cell_formula_units_Z   2
loop_
 _symmetry_equiv_pos_site_id
 _symmetry_equiv_pos_as_xyz
  1  'x, y, z'
loop_
 _atom_site_type_symbol
 _atom_site_label
 _atom_site_symmetry_multiplicity
 _atom_site_fract_x
 _atom_site_fract_y
 _atom_site_fract_z
 _atom_site_occupancy
 _atom_site_hle17_bader_spin_density
 _atom_site_hle17_ddec_charge
 _atom_site_hle17_ddec_spin_density
 _atom_site_hle17_ddec_sum_bond_order
 _atom_site_hle17_magmom
 _atom_site_hse06_10hf_bader_spin_density
 _atom_site_hse06_10hf_ddec_charge
 _atom_site_hse06_10hf_ddec_spin_density
 _atom_site_hse06_10hf_ddec_sum_bond_order
 _atom_site_hse06_10hf_magmom
 _atom_site_hse06_bader_spin_density
 _atom_site_hse06_ddec_charge
 _atom_site_hse06_ddec_spin_density
 _atom_site_hse06_ddec_sum_bond_order
 _atom_site_hse06_magmom
 _atom_site_pbe_bader_spin_density
 _atom_site_pbe_cm5_charge
 _atom_site_pbe_ddec_charge
 _atom_site_pbe_ddec_spin_density
 _atom_site_pbe_ddec_sum_bond_order
 _atom_site_pbe_magmom
Zn  Zn0  1  0.70994204  0.95993001  0.75000395  1  0  0.85658  0  2.056313  0  0  0.696947  0  2.532312  0  0  0.739641  0  2.482482  0  0  0.538084  0.667344  0  2.566441  0
Zn  Zn1  1  0.29005573  0.04006682  0.24999788  1  0  0.856605  0  2.056251  0  0  0.696977  0  2.532257  0  0  0.739666  0  2.482426  0  0  0.538079  0.667368  0  2.566382  0
H  H2  1  0.45532993  0.79222281  0.99132075  1  0  0.343259  0  0.919834  0  0  0.324337  0  0.982053  0  0  0.333976  0  0.973714  0  0  0.29585  0.317563  0  0.987868  0
H  H3  1  0.30095412  0.46392192  0.50884136  1  0  0.344439  0  0.918767  0  0  0.325108  0  0.981422  0  0  0.334716  0  0.973142  0  0  0.296131  0.318343  0  0.987237  0
H  H4  1  0.54466565  0.20777946  0.00867578  1  0  0.343281  0  0.919798  0  0  0.324308  0  0.982102  0  0  0.333948  0  0.97376  0  0  0.295834  0.317534  0  0.987915  0
H  H5  1  0.69904738  0.53607494  0.49115973  1  0  0.344452  0  0.918719  0  0  0.325131  0  0.981358  0  0  0.334738  0  0.973081  0  0  0.296161  0.318366  0  0.987174  0
H  H6  1  0.44312183  0.78897395  0.84500302  1  0  0.304655  0  0.937398  0  0  0.286931  0  1.008592  0  0  0.294161  0  1.002903  0  0  0.283772  0.281772  0  1.012725  0
H  H7  1  0.44392382  0.59807300  0.65514572  1  0  0.30446  0  0.937853  0  0  0.286299  0  1.009435  0  0  0.29354  0  1.00373  0  0  0.28344  0.281154  0  1.013542  0
H  H8  1  0.55688000  0.21102829  0.15499668  1  0  0.304645  0  0.937413  0  0  0.286921  0  1.00861  0  0  0.294151  0  1.00292  0  0  0.283765  0.281762  0  1.012742  0
H  H9  1  0.55607908  0.40192656  0.34485415  1  0  0.304481  0  0.937848  0  0  0.286317  0  1.009429  0  0  0.293558  0  1.003725  0  0  0.28345  0.281172  0  1.013537  0
H  H10  1  0.87967726  0.74794627  0.08581871  1  0  0.293163  0  0.943997  0  0  0.27044  0  1.014814  0  0  0.27889  0  1.008394  0  0  0.297945  0.264495  0  1.019371  0
H  H11  1  0.16213866  0.79380511  0.41427099  1  0  0.293026  0  0.944866  0  0  0.270528  0  1.015041  0  0  0.278933  0  1.008722  0  0  0.298121  0.264581  0  1.019598  0
H  H12  1  0.12032067  0.25205326  0.91418242  1  0  0.293134  0  0.94402  0  0  0.270451  0  1.014825  0  0  0.278902  0  1.008401  0  0  0.297932  0.264505  0  1.019384  0
H  H13  1  0.83786283  0.20619176  0.58572928  1  0  0.292984  0  0.944901  0  0  0.270477  0  1.015082  0  0  0.278883  0  1.008759  0  0  0.298094  0.264534  0  1.019637  0
H  H14  1  0.69490817  0.86121669  0.19177898  1  0  0.102682  0  0.92407  0  0  0.125738  0  0.980066  0  0  0.126163  0  0.980521  0  0  0.103651  0.125289  0  0.979875  0
H  H15  1  0.16931221  0.50294502  0.30830679  1  0  0.103393  0  0.92352  0  0  0.126507  0  0.979578  0  0  0.126919  0  0.98005  0  0  0.103851  0.126046  0  0.979413  0
H  H16  1  0.30509062  0.13878690  0.80822002  1  0  0.102645  0  0.923907  0  0  0.125642  0  0.979998  0  0  0.126068  0  0.980452  0  0  0.10361  0.125193  0  0.979807  0
H  H17  1  0.83069053  0.49705184  0.69169379  1  0  0.103367  0  0.923597  0  0  0.126469  0  0.979664  0  0  0.126881  0  0.980136  0  0  0.103818  0.125987  0  0.979521  0
H  H18  1  0.77815151  0.70785055  0.23834521  1  0  0.09871  0  0.942016  0  0  0.120033  0  1.004327  0  0  0.121077  0  1.003637  0  0  0.106009  0.119171  0  1.004915  0
H  H19  1  0.96943489  0.53964836  0.26180122  1  0  0.098437  0  0.942053  0  0  0.120115  0  1.003927  0  0  0.121132  0  1.003315  0  0  0.105929  0.119289  0  1.00444  0
H  H20  1  0.22184802  0.29215436  0.76165564  1  0  0.098714  0  0.942078  0  0  0.120044  0  1.004351  0  0  0.121087  0  1.003663  0  0  0.106016  0.119189  0  1.004946  0
H  H21  1  0.03056732  0.46034985  0.73819926  1  0  0.098427  0  0.942148  0  0  0.120128  0  1.003997  0  0  0.121145  0  1.003382  0  0  0.10593  0.1193  0  1.004509  0
H  H22  1  0.53596343  0.62552326  0.13328513  1  0  0.088291  0  0.954792  0  0  0.106463  0  1.024015  0  0  0.106383  0  1.025187  0  0  0.096778  0.106331  0  1.02335  0
H  H23  1  0.99223970  0.40252048  0.36685205  1  0  0.088021  0  0.954923  0  0  0.106318  0  1.024105  0  0  0.106248  0  1.025241  0  0  0.096815  0.106215  0  1.023418  0
H  H24  1  0.46403341  0.37447898  0.86671417  1  0  0.088305  0  0.954806  0  0  0.106474  0  1.024018  0  0  0.106395  0  1.025189  0  0  0.096776  0.106342  0  1.023353  0
H  H25  1  0.00776445  0.59747908  0.63314813  1  0  0.088002  0  0.954895  0  0  0.106304  0  1.024087  0  0  0.106228  0  1.025231  0  0  0.096813  0.106206  0  1.023393  0
H  H26  1  0.92207676  0.79933537  0.45181562  1  0  0.108398  0  0.965566  0  0  0.114145  0  1.035264  0  0  0.117887  0  1.033156  0  0  0.105738  0.111483  0  1.036884  0
H  H27  1  0.84769999  0.47044991  0.04824611  1  0  0.108798  0  0.965431  0  0  0.11486  0  1.034597  0  0  0.118609  0  1.032545  0  0  0.105925  0.112149  0  1.036245  0
H  H28  1  0.07790462  0.20065879  0.54818131  1  0  0.108459  0  0.965451  0  0  0.114179  0  1.035171  0  0  0.117909  0  1.033101  0  0  0.105782  0.111507  0  1.036821  0
H  H29  1  0.15230471  0.52954830  0.95175498  1  0  0.108824  0  0.965475  0  0  0.114887  0  1.034652  0  0  0.118637  0  1.032601  0  0  0.105953  0.112178  0  1.036297  0
C  C30  1  0.65644763  0.75209453  0.95512094  1  0  0.520709  0  3.824181  0  0  0.475356  0  4.120477  0  0  0.502546  0  4.126562  0  0  0.250459  0.457043  0  4.11573  0
C  C31  1  0.29693793  0.70123167  0.54498438  1  0  0.522532  0  3.820201  0  0  0.476189  0  4.117806  0  0  0.503374  0  4.123848  0  0  0.250713  0.457881  0  4.113084  0
C  C32  1  0.34355155  0.24790500  0.04488049  1  0  0.520656  0  3.824233  0  0  0.475338  0  4.120538  0  0  0.502529  0  4.126622  0  0  0.250454  0.457025  0  4.115788  0
C  C33  1  0.70306552  0.29876654  0.45501641  1  0  0.522572  0  3.82017  0  0  0.476173  0  4.117843  0  0  0.503357  0  4.123886  0  0  0.250705  0.457868  0  4.113113  0
C  C34  1  0.68492952  0.73346799  0.16199156  1  0  -0.10359  0  3.645798  0  0  -0.200765  0  3.897344  0  0  -0.196525  0  3.906874  0  0  -0.136316  -0.2033  0  3.890876  0
C  C35  1  0.07145183  0.52280896  0.33814001  1  0  -0.104586  0  3.64783  0  0  -0.202295  0  3.899673  0  0  -0.19802  0  3.90919  0  0  -0.136834  -0.204868  0  3.893186  0
C  C36  1  0.31506804  0.26653559  0.83800795  1  0  -0.103564  0  3.64565  0  0  -0.200649  0  3.897226  0  0  -0.196407  0  3.906753  0  0  -0.136254  -0.203197  0  3.890769  0
C  C37  1  0.92855286  0.47718925  0.66186108  1  0  -0.104506  0  3.647965  0  0  -0.202231  0  3.899757  0  0  -0.19795  0  3.909277  0  0  -0.136791  -0.204789  0  3.893271  0
C  C38  1  0.83479489  0.88185550  0.58081018  1  0  0.675544  0  3.894944  0  0  0.628921  0  4.181604  0  0  0.663109  0  4.173717  0  0  0.205887  0.605815  0  4.186114  0
C  C39  1  0.80098248  0.25407188  0.91912551  1  0  0.674418  0  3.89415  0  0  0.628265  0  4.180626  0  0  0.662519  0  4.172601  0  0  0.205871  0.605132  0  4.185192  0
C  C40  1  0.16520072  0.11814672  0.41918964  1  0  0.675736  0  3.8948  0  0  0.629071  0  4.181513  0  0  0.663262  0  4.173619  0  0  0.205905  0.605965  0  4.186019  0
C  C41  1  0.19902113  0.74592902  0.08087458  1  0  0.67435  0  3.894113  0  0  0.628197  0  4.180607  0  0  0.662452  0  4.172583  0  0  0.205834  0.605065  0  4.185174  0
C  C42  1  0.94221580  0.91779643  0.50379747  1  0  -0.160996  0  3.677377  0  0  -0.183234  0  3.938499  0  0  -0.188462  0  3.953043  0  0  -0.084493  -0.179782  0  3.928698  0
C  C43  1  0.91399396  0.43847780  0.99619086  1  0  -0.160978  0  3.675107  0  0  -0.183445  0  3.936198  0  0  -0.18871  0  3.950623  0  0  -0.084497  -0.179923  0  3.926431  0
C  C44  1  0.05777266  0.08220182  0.49619720  1  0  -0.161202  0  3.677338  0  0  -0.183401  0  3.9385  0  0  -0.188634  0  3.95304  0  0  -0.084562  -0.179954  0  3.928698  0
C  C45  1  0.08601091  0.56152309  0.00381035  1  0  -0.160993  0  3.675113  0  0  -0.183501  0  3.936232  0  0  -0.188769  0  3.950657  0  0  -0.084511  -0.17998  0  3.926461  0
S  S46  1  0.74626156  0.74382974  0.84883187  1  0  -0.468455  0  2.062709  0  0  -0.442851  0  2.418544  0  0  -0.458924  0  2.403658  0  0  -0.18951  -0.431648  0  2.428505  0
S  S47  1  0.39510771  0.89747622  0.65120420  1  0  -0.468695  0  2.061579  0  0  -0.442943  0  2.418013  0  0  -0.459019  0  2.403154  0  0  -0.189544  -0.431737  0  2.42797  0
S  S48  1  0.25373887  0.25616979  0.15116987  1  0  -0.46848  0  2.062662  0  0  -0.44288  0  2.418496  0  0  -0.458952  0  2.403607  0  0  -0.189521  -0.431678  0  2.428463  0
S  S49  1  0.60489325  0.10252198  0.34879681  1  0  -0.468704  0  2.061564  0  0  -0.442929  0  2.41801  0  0  -0.459004  0  2.40315  0  0  -0.189532  -0.431723  0  2.427961  0
N  N50  1  0.49514778  0.75983391  0.92641946  1  0  -0.641722  0  3.140583  0  0  -0.597667  0  3.370259  0  0  -0.619007  0  3.36612  0  0  -0.562784  -0.583091  0  3.37295  0
N  N51  1  0.33335221  0.56860263  0.57373407  1  0  -0.643728  0  3.139127  0  0  -0.598678  0  3.370249  0  0  -0.619973  0  3.366089  0  0  -0.563408  -0.584154  0  3.372946  0
N  N52  1  0.50485210  0.24016698  0.07358054  1  0  -0.641718  0  3.140646  0  0  -0.597609  0  3.370326  0  0  -0.61895  0  3.366185  0  0  -0.562764  -0.583032  0  3.373014  0
N  N53  1  0.66664999  0.43139558  0.42626642  1  0  -0.643778  0  3.139102  0  0  -0.598712  0  3.370228  0  0  -0.620008  0  3.366072  0  0  -0.563437  -0.584189  0  3.372923  0
N  N54  1  0.74820560  0.73920042  0.06556331  1  0  -0.363022  0  3.33674  0  0  -0.290473  0  3.587138  0  0  -0.311156  0  3.597541  0  0  -0.41743  -0.276559  0  3.579828  0
N  N55  1  0.17362345  0.68254649  0.43454186  1  0  -0.36292  0  3.338386  0  0  -0.289996  0  3.589294  0  0  -0.310699  0  3.599743  0  0  -0.417116  -0.276064  0  3.581965  0
N  N56  1  0.25179376  0.26080179  0.93443825  1  0  -0.362921  0  3.336678  0  0  -0.290515  0  3.587165  0  0  -0.311201  0  3.597566  0  0  -0.417435  -0.2766  0  3.57986  0
N  N57  1  0.82638123  0.31745173  0.56545841  1  0  -0.362937  0  3.338358  0  0  -0.28998  0  3.589278  0  0  -0.310681  0  3.599723  0  0  -0.417113  -0.276054  0  3.581943  0
O  O58  1  0.73145350  0.72216748  0.58190456  1  0  -0.594582  0  1.955352  0  0  -0.537159  0  2.166895  0  0  -0.56163  0  2.159554  0  0  -0.302396  -0.520147  0  2.171366  0
O  O59  1  0.64022095  0.14961259  0.91801800  1  0  -0.593153  0  1.954324  0  0  -0.536198  0  2.16582  0  0  -0.560684  0  2.158445  0  0  -0.301899  -0.519167  0  2.170289  0
O  O60  1  0.26854641  0.27783336  0.41809872  1  0  -0.594588  0  1.955438  0  0  -0.537126  0  2.166982  0  0  -0.561596  0  2.159638  0  0  -0.302324  -0.52011  0  2.171455  0
O  O61  1  0.35978213  0.85038966  0.08198200  1  0  -0.593129  0  1.954334  0  0  -0.536176  0  2.165811  0  0  -0.560661  0  2.158439  0  0  -0.301901  -0.519146  0  2.170281  0
O  O62  1  0.85490514  0.01920036  0.64480755  1  0  -0.631242  0  2.089826  0  0  -0.54851  0  2.346354  0  0  -0.578005  0  2.333585  0  0  -0.322105  -0.527953  0  2.35441  0
O  O63  1  0.87429553  0.21015616  0.85511434  1  0  -0.631842  0  2.091618  0  0  -0.549256  0  2.347991  0  0  -0.578973  0  2.335513  0  0  -0.322643  -0.528653  0  2.355995  0
O  O64  1  0.14509171  0.98080187  0.35519176  1  0  -0.63134  0  2.089681  0  0  -0.548612  0  2.346257  0  0  -0.578105  0  2.333481  0  0  -0.322133  -0.528071  0  2.354357  0
O  O65  1  0.12570668  0.78984203  0.14488697  1  0  -0.631783  0  2.091532  0  0  -0.549199  0  2.347916  0  0  -0.578915  0  2.335439  0  0  -0.322626  -0.528592  0  2.355916  0
