# generated using pymatgen
data_Zr3H5C27S5Cl5O18
_symmetry_space_group_name_H-M   'P 1'
_cell_length_a   16.44804456
_cell_length_b   16.45338224
_cell_length_c   16.52547581
_cell_angle_alpha   61.81731126
_cell_angle_beta   59.86609524
_cell_angle_gamma   60.30717821
_symmetry_Int_Tables_number   1
_chemical_formula_structural   Zr3H5C27S5Cl5O18
_chemical_formula_sum   'Zr6 H10 C54 S10 Cl10 O36'
_cell_volume   3207.68329290
_cell_formula_units_Z   2
loop_
 _symmetry_equiv_pos_site_id
 _symmetry_equiv_pos_as_xyz
  1  'x, y, z'
loop_
 _atom_site_type_symbol
 _atom_site_label
 _atom_site_symmetry_multiplicity
 _atom_site_fract_x
 _atom_site_fract_y
 _atom_site_fract_z
 _atom_site_occupancy
 _atom_site_pbe_bader_charge
 _atom_site_pbe_bader_spin_density
 _atom_site_pbe_cm5_charge
 _atom_site_pbe_ddec_charge
 _atom_site_pbe_ddec_spin_density
 _atom_site_pbe_ddec_sum_bond_order
 _atom_site_pbe_magmom
Zr  Zr0  1  0.88840065  0.90260046  0.59760526  1  2.636755  0  1.630891  2.376339  0  2.777787  0
Zr  Zr1  1  0.11126646  0.10312165  0.39719564  1  2.634749  0  1.631158  2.376386  0  2.77879  0
Zr  Zr2  1  0.10272147  0.89495429  0.60571170  1  2.637499  0  1.622411  2.380398  0  2.739499  0
Zr  Zr3  1  0.89642837  0.11133192  0.38947948  1  2.639784  0  1.621807  2.379712  0  2.740429  0
Zr  Zr4  1  0.10878477  0.89395896  0.38826465  1  2.637501  0  1.618787  2.3814  0  2.722153  0
Zr  Zr5  1  0.89056883  0.11207945  0.60663358  1  2.639475  0  1.621053  2.382464  0  2.727199  0
H  H6  1  0.07889014  0.75320408  0.57554879  1  0.608861  0  0.331038  0.424053  0  0.854625  0
H  H7  1  0.09214311  0.08124452  0.24762836  1  0.618879  0  0.331467  0.424615  0  0.855056  0
H  H8  1  0.08324203  0.08321888  0.58851275  1  0.598434  0  0.331762  0.427151  0  0.849098  0
H  H9  1  0.74486097  0.09393036  0.57792292  1  0.598642  0  0.331933  0.427049  0  0.848746  0
H  H10  1  0.10480491  0.63439784  0.86507744  1  0.120976  0  0.110203  0.116137  0  1.02999  0
H  H11  1  0.84750850  0.65020820  0.84548217  1  0.124362  0  0.119089  0.131688  0  0.985859  0
H  H12  1  0.89615225  0.37065514  0.12879190  1  0.106997  0  0.11056  0.117114  0  1.028843  0
H  H13  1  0.15719923  0.35083632  0.14476906  1  0.152591  0  0.118754  0.131295  0  0.987052  0
H  H14  1  0.11241905  0.63290204  0.99397328  1  0.613306  0  0.327225  0.358943  0  0.90251  0
H  H15  1  0.76137942  0.49979434  0.12782277  1  0.613111  0  0.32771  0.359867  0  0.897896  0
C  C16  1  0.99636389  0.73914625  0.48308437  1  1.580158  0  0.223696  0.657073  0  4.146526  0
C  C17  1  0.28142505  0.98857508  0.23381987  1  1.568274  0  0.223057  0.654591  0  4.147322  0
C  C18  1  0.99658539  0.27347028  0.50458606  1  1.577421  0  0.223321  0.655504  0  4.148619  0
C  C19  1  0.72573060  0.00944518  0.76842310  1  1.565907  0  0.223946  0.65659  0  4.14792  0
C  C20  1  0.98243486  0.74023898  0.76388515  1  1.57687  0  0.236363  0.63749  0  4.106421  0
C  C21  1  0.73147426  0.00402907  0.48837747  1  1.5804  0  0.223084  0.655898  0  4.150896  0
C  C22  1  0.01347087  0.26951055  0.23492983  1  1.56118  0  0.235329  0.635614  0  4.10703  0
C  C23  1  0.27606664  0.99371663  0.49859614  1  1.591642  0  0.223765  0.657162  0  4.151696  0
C  C24  1  0.27282355  0.73128212  0.49722533  1  1.596302  0  0.223562  0.656212  0  4.144303  0
C  C25  1  0.99226596  0.99727430  0.77632043  1  1.571941  0  0.223335  0.656906  0  4.146043  0
C  C26  1  0.73367696  0.28169344  0.49204336  1  1.570486  0  0.222837  0.656487  0  4.145547  0
C  C27  1  0.99804940  0.00275682  0.22594599  1  1.581045  0  0.222908  0.654446  0  4.145716  0
C  C28  1  0.92610649  0.42337871  0.56431698  1  0.15624  0  0.011503  0.104698  0  4.080724  0
C  C29  1  0.06394520  0.59169423  0.42079684  1  0.120504  0  0.008662  0.102473  0  4.083989  0
C  C30  1  0.99364785  0.36507868  0.50204660  1  -0.128287  0  -0.028779  -0.189502  0  3.928311  0
C  C31  1  0.99676763  0.64974584  0.48334167  1  -0.08986  0  -0.028626  -0.192571  0  3.930343  0
C  C32  1  0.03799506  0.50918218  0.45031842  1  -0.122638  0  -0.02898  -0.075677  0  4.102912  0
C  C33  1  0.95177438  0.50623712  0.53448121  1  -0.094748  0  -0.026692  -0.072847  0  4.091693  0
C  C34  1  0.42422743  0.92550529  0.08708059  1  0.104892  0  0.009118  0.102213  0  4.084851  0
C  C35  1  0.58722502  0.06864648  0.91882475  1  0.176154  0  0.011554  0.104895  0  4.08093  0
C  C36  1  0.37069535  0.98826611  0.14492132  1  -0.070554  0  -0.028358  -0.191209  0  3.929903  0
C  C37  1  0.64006125  0.00647729  0.86043641  1  -0.154629  0  -0.028643  -0.189987  0  3.928131  0
C  C38  1  0.50854399  0.03886335  0.00172033  1  -0.126609  0  -0.02739  -0.074083  0  4.094592  0
C  C39  1  0.50340358  0.95475778  0.00470413  1  -0.135919  0  -0.029042  -0.07518  0  4.103796  0
C  C40  1  0.05682385  0.92800766  0.91846047  1  0.120628  0  0.006565  0.095152  0  4.088946  0
C  C41  1  0.92868792  0.06928221  0.08772409  1  0.106822  0  0.01092  0.103944  0  4.073582  0
C  C42  1  0.99255081  0.99528874  0.86608130  1  -0.077012  0  -0.028741  -0.190667  0  3.924141  0
C  C43  1  0.99370904  0.00229214  0.13944405  1  -0.063221  0  -0.028012  -0.187588  0  3.914827  0
C  C44  1  0.95157043  0.04187325  0.00729577  1  -0.153878  0  -0.027697  -0.073983  0  4.093242  0
C  C45  1  0.03330713  0.95482251  0.99942033  1  -0.122037  0  -0.030146  -0.07693  0  4.108329  0
C  C46  1  0.41301715  0.59240734  0.56455942  1  0.141435  0  0.010627  0.102918  0  4.074741  0
C  C47  1  0.59577214  0.42333292  0.42315182  1  0.114575  0  0.006536  0.095645  0  4.087909  0
C  C48  1  0.36364091  0.64434637  0.49723022  1  -0.105072  0  -0.027571  -0.186837  0  3.913007  0
C  C49  1  0.64516256  0.37104063  0.49041300  1  -0.086052  0  -0.028727  -0.191321  0  3.921408  0
C  C50  1  0.51136421  0.50412029  0.45006873  1  -0.145619  0  -0.029747  -0.076426  0  4.106584  0
C  C51  1  0.49791735  0.51188815  0.53727164  1  -0.143743  0  -0.027813  -0.074044  0  4.09103  0
C  C52  1  0.04456439  0.60568961  0.89686337  1  -0.080629  0  -0.07772  -0.143178  0  3.933983  0
C  C53  1  0.89890587  0.61471531  0.88492074  1  0.020291  0  -0.068385  -0.095035  0  3.935217  0
C  C54  1  0.88976039  0.53415444  0.96657084  1  -0.09099  0  -0.012788  -0.100559  0  3.978127  0
C  C55  1  0.95850258  0.48635076  0.01748334  1  -0.029419  0  0.000297  0.059274  0  3.96817  0
C  C56  1  0.95331620  0.40240239  0.10017398  1  -0.060966  0  -0.078123  -0.144709  0  3.934253  0
C  C57  1  0.10186634  0.39029523  0.10926595  1  -0.03293  0  -0.067277  -0.093637  0  3.934551  0
C  C58  1  0.11013427  0.47186805  0.02861313  1  -0.069951  0  -0.012745  -0.100498  0  3.976219  0
C  C59  1  0.03823998  0.52295820  0.98082272  1  0.043237  0  9.7e-05  0.058723  0  3.968585  0
C  C60  1  0.97531805  0.65169280  0.85114852  1  0.015821  0  -0.011849  -0.020039  0  3.974473  0
C  C61  1  0.02216330  0.35663725  0.14628150  1  0.060293  0  -0.01253  -0.020091  0  3.974739  0
C  C62  1  0.41925650  0.05963157  0.42700910  1  0.064918  0  0.010507  0.105127  0  4.074702  0
C  C63  1  0.59421925  0.93221014  0.55400571  1  0.157681  0  0.010751  0.104807  0  4.072688  0
C  C64  1  0.36744092  0.99404509  0.49335569  1  -0.052621  0  -0.028078  -0.188466  0  3.927829  0
C  C65  1  0.64498602  0.99883340  0.48872903  1  -0.125655  0  -0.028079  -0.188323  0  3.926581  0
C  C66  1  0.51212107  0.95426309  0.53103916  1  -0.147613  0  -0.027764  -0.073122  0  4.101804  0
C  C67  1  0.50230100  0.03665116  0.44902093  1  -0.11729  0  -0.02807  -0.074372  0  4.103832  0
C  C68  1  0.19981615  0.49928868  0.99306576  1  1.528766  0  0.230071  0.579791  0  4.108168  0
C  C69  1  0.80820426  0.49840053  0.99445059  1  1.512685  0  0.230336  0.579565  0  4.108924  0
S  S70  1  0.08814700  0.41123066  0.40748423  1  0.283787  0  0.092439  0.15811  0  2.789249  0
S  S71  1  0.90215781  0.60375130  0.57774262  1  0.313676  0  0.103565  0.174534  0  2.791361  0
S  S72  1  0.41720717  0.08242654  0.09899806  1  0.336127  0  0.103545  0.174648  0  2.791149  0
S  S73  1  0.59394744  0.91190831  0.90671452  1  0.303363  0  0.092447  0.158236  0  2.789859  0
S  S74  1  0.90325657  0.09092945  0.91632577  1  0.310531  0  0.10135  0.169018  0  2.782859  0
S  S75  1  0.08231212  0.90609885  0.08976864  1  0.311945  0  0.093748  0.157891  0  2.78976  0
S  S76  1  0.42104039  0.59465235  0.40102856  1  0.308084  0  0.093233  0.157321  0  2.788209  0
S  S77  1  0.58818805  0.42104449  0.58632657  1  0.318816  0  0.100718  0.168422  0  2.779342  0
S  S78  1  0.42053542  0.90445734  0.58160111  1  0.329167  0  0.097735  0.161601  0  2.788448  0
S  S79  1  0.59287591  0.08746021  0.39949167  1  0.314715  0  0.097759  0.161874  0  2.789386  0
Cl  Cl80  1  0.82465127  0.40240159  0.66471212  1  -0.140031  0  0.025304  -0.010898  0  1.512437  0
Cl  Cl81  1  0.16593500  0.61234800  0.32069905  1  -0.152707  0  0.016298  -0.022512  0  1.510078  0
Cl  Cl82  1  0.40156897  0.82545470  0.10780804  1  -0.153849  0  0.016311  -0.022414  0  1.510675  0
Cl  Cl83  1  0.60937189  0.16898498  0.89783008  1  -0.144886  0  0.025244  -0.011061  0  1.513551  0
Cl  Cl84  1  0.15342411  0.82452487  0.89356619  1  -0.149543  0  0.025473  -0.009644  0  1.574363  0
Cl  Cl85  1  0.83291753  0.17315782  0.11212987  1  -0.14594  0  0.024288  -0.009836  0  1.520188  0
Cl  Cl86  1  0.38025945  0.61673972  0.66856452  1  -0.143584  0  0.02461  -0.009095  0  1.521535  0
Cl  Cl87  1  0.62781866  0.39867245  0.31944804  1  -0.152766  0  0.025795  -0.009225  0  1.574009  0
Cl  Cl88  1  0.39163033  0.15721617  0.33057623  1  -0.144895  0  0.021638  -0.018795  0  1.532512  0
Cl  Cl89  1  0.62114590  0.83527013  0.65111970  1  -0.14728  0  0.021651  -0.018525  0  1.531565  0
O  O90  1  0.92497926  0.77586965  0.55175895  1  -1.177456  0  -0.354332  -0.612368  0  2.28211  0
O  O91  1  0.24725064  0.05740503  0.27037931  1  -1.166858  0  -0.354104  -0.611631  0  2.281237  0
O  O92  1  0.06946052  0.23543901  0.43729464  1  -1.17224  0  -0.35548  -0.61414  0  2.278163  0
O  O93  1  0.75807358  0.94230541  0.73023728  1  -1.173001  0  -0.355873  -0.6148  0  2.277128  0
O  O94  1  0.05319509  0.77084688  0.73408147  1  -1.175578  0  -0.344952  -0.60644  0  2.276844  0
O  O95  1  0.76516402  0.07302789  0.42198970  1  -1.17525  0  -0.349708  -0.609944  0  2.246096  0
O  O96  1  0.94184952  0.23982098  0.26544384  1  -1.177893  0  -0.344095  -0.605038  0  2.273489  0
O  O97  1  0.23977780  0.92730972  0.56757825  1  -1.182023  0  -0.349919  -0.61022  0  2.246056  0
O  O98  1  0.24121119  0.76343249  0.42729872  1  -1.174233  0  -0.349142  -0.60989  0  2.246718  0
O  O99  1  0.92481765  0.06855032  0.74226181  1  -1.169971  0  -0.349406  -0.60933  0  2.252787  0
O  O100  1  0.76406897  0.24776139  0.56319183  1  -1.174985  0  -0.34929  -0.609327  0  2.250175  0
O  O101  1  0.06763252  0.93299209  0.25790641  1  -1.175973  0  -0.348698  -0.609015  0  2.247248  0
O  O102  1  0.06055639  0.92834904  0.73871650  1  -1.184777  0  -0.364495  -0.622723  0  2.321791  0
O  O103  1  0.77214413  0.24423006  0.42294636  1  -1.163922  0  -0.364146  -0.622566  0  2.322273  0
O  O104  1  0.93243306  0.07369342  0.26156758  1  -1.177778  0  -0.365034  -0.619964  0  2.325389  0
O  O105  1  0.23212373  0.76710336  0.56797690  1  -1.177323  0  -0.365477  -0.621308  0  2.326743  0
O  O106  1  0.91608389  0.77770301  0.72555540  1  -1.18657  0  -0.357852  -0.612102  0  2.304873  0
O  O107  1  0.23918749  0.06218177  0.43328615  1  -1.180852  0  -0.369561  -0.620187  0  2.355645  0
O  O108  1  0.08058023  0.23118003  0.27253646  1  -1.178078  0  -0.357639  -0.61116  0  2.307273  0
O  O109  1  0.76523458  0.93868042  0.55681174  1  -1.173018  0  -0.369304  -0.619199  0  2.354341  0
O  O110  1  0.76058803  0.07818016  0.73336568  1  -1.168583  0  -0.361929  -0.617086  0  2.315911  0
O  O111  1  0.06724839  0.77201972  0.41671552  1  -1.182661  0  -0.362229  -0.617726  0  2.309525  0
O  O112  1  0.24376461  0.92247283  0.26640492  1  -1.173257  0  -0.362019  -0.616303  0  2.308441  0
O  O113  1  0.92779061  0.23862692  0.57303623  1  -1.178765  0  -0.361694  -0.616877  0  2.314764  0
O  O114  1  0.81728745  0.06898257  0.55450385  1  -1.226588  0  -0.693455  -1.068802  0  2.349623  0
O  O115  1  0.05914605  0.05988022  0.56351693  1  -1.226485  0  -0.693495  -1.069493  0  2.350561  0
O  O116  1  0.06592826  0.05900988  0.31865544  1  -1.249635  0  -0.69389  -1.070181  0  2.360237  0
O  O117  1  0.05633573  0.82422383  0.55328791  1  -1.239239  0  -0.693504  -1.069079  0  2.357873  0
O  O118  1  0.13388753  0.95423630  0.45559711  1  -1.196424  0  -0.789834  -1.148152  0  2.121982  0
O  O119  1  0.95608529  0.96122436  0.44869709  1  -1.202674  0  -0.78957  -1.148358  0  2.122722  0
O  O120  1  0.95787220  0.13468756  0.45643724  1  -1.198224  0  -0.790241  -1.150908  0  2.123881  0
O  O121  1  0.95094184  0.96187511  0.62915656  1  -1.199547  0  -0.79048  -1.151299  0  2.12334  0
O  O122  1  0.18373791  0.59469621  0.97691595  1  -1.105262  0  -0.341592  -0.484099  0  2.265568  0
O  O123  1  0.28397307  0.44010760  0.98084391  1  -1.109037  0  -0.279705  -0.441321  0  2.033917  0
O  O124  1  0.74519806  0.48244579  0.08994565  1  -1.109711  0  -0.342095  -0.485001  0  2.261568  0
O  O125  1  0.79532678  0.48575802  0.93562130  1  -1.09141  0  -0.279136  -0.440542  0  2.034064  0
