# generated using pymatgen
data_SrH14C4(N4O3)3
_symmetry_space_group_name_H-M   'P 1'
_cell_length_a   6.51565776
_cell_length_b   10.18010146
_cell_length_c   13.00965070
_cell_angle_alpha   90.00003114
_cell_angle_beta   89.99981834
_cell_angle_gamma   106.24997312
_symmetry_Int_Tables_number   1
_chemical_formula_structural   SrH14C4(N4O3)3
_chemical_formula_sum   'Sr2 H28 C8 N24 O18'
_cell_volume   828.45677346
_cell_formula_units_Z   2
loop_
 _symmetry_equiv_pos_site_id
 _symmetry_equiv_pos_as_xyz
  1  'x, y, z'
loop_
 _atom_site_type_symbol
 _atom_site_label
 _atom_site_symmetry_multiplicity
 _atom_site_fract_x
 _atom_site_fract_y
 _atom_site_fract_z
 _atom_site_occupancy
 _atom_site_hle17_bader_spin_density
 _atom_site_hle17_ddec_charge
 _atom_site_hle17_ddec_spin_density
 _atom_site_hle17_ddec_sum_bond_order
 _atom_site_hle17_magmom
 _atom_site_hse06_10hf_bader_spin_density
 _atom_site_hse06_10hf_ddec_charge
 _atom_site_hse06_10hf_ddec_spin_density
 _atom_site_hse06_10hf_ddec_sum_bond_order
 _atom_site_hse06_10hf_magmom
 _atom_site_hse06_bader_spin_density
 _atom_site_hse06_ddec_charge
 _atom_site_hse06_ddec_spin_density
 _atom_site_hse06_ddec_sum_bond_order
 _atom_site_hse06_magmom
 _atom_site_pbe_bader_spin_density
 _atom_site_pbe_cm5_charge
 _atom_site_pbe_ddec_charge
 _atom_site_pbe_ddec_spin_density
 _atom_site_pbe_ddec_sum_bond_order
 _atom_site_pbe_magmom
Sr  Sr0  1  0.05982743  0.64395461  0.75000024  1  0  1.557723  0  1.137913  0  0  1.405046  0  1.517742  0  0  1.439872  0  1.474256  0  0  0.936902  1.379636  0  1.54824  0
Sr  Sr1  1  0.94017150  0.35604255  0.24999756  1  0  1.557777  0  1.137861  0  0  1.405099  0  1.517686  0  0  1.439916  0  1.474202  0  0  0.936907  1.37969  0  1.548184  0
H  H2  1  0.74752170  0.34623571  0.68913479  1  0  0.405413  0  0.896748  0  0  0.373491  0  0.962417  0  0  0.383249  0  0.948206  0  0  0.28799  0.366579  0  0.972493  0
H  H3  1  0.25246839  0.65376142  0.18913338  1  0  0.405478  0  0.896663  0  0  0.373546  0  0.96235  0  0  0.383305  0  0.948136  0  0  0.287988  0.366632  0  0.972428  0
H  H4  1  0.25247262  0.65376143  0.31086608  1  0  0.405457  0  0.896695  0  0  0.373516  0  0.962396  0  0  0.383275  0  0.948183  0  0  0.287988  0.366604  0  0.972472  0
H  H5  1  0.74751781  0.34623464  0.81086520  1  0  0.405576  0  0.89653  0  0  0.373547  0  0.962393  0  0  0.383305  0  0.948179  0  0  0.28801  0.366635  0  0.97247  0
H  H6  1  0.40210105  0.92742836  0.69131051  1  0  0.38923  0  0.928708  0  0  0.348626  0  1.009861  0  0  0.359852  0  0.993531  0  0  0.276901  0.340756  0  1.021285  0
H  H7  1  0.59789272  0.07257389  0.19131288  1  0  0.389253  0  0.928701  0  0  0.348646  0  1.009854  0  0  0.359873  0  0.993522  0  0  0.276916  0.340775  0  1.021279  0
H  H8  1  0.59789808  0.07257288  0.30868806  1  0  0.389248  0  0.928691  0  0  0.348655  0  1.009829  0  0  0.359881  0  0.993498  0  0  0.276901  0.340785  0  1.021254  0
H  H9  1  0.40209674  0.92742627  0.80868646  1  0  0.389235  0  0.92873  0  0  0.348628  0  1.009861  0  0  0.359856  0  0.993526  0  0  0.276909  0.340758  0  1.021285  0
H  H10  1  0.55880855  0.78389281  0.09054864  1  0  0.340166  0  0.869909  0  0  0.325115  0  0.928005  0  0  0.331481  0  0.922865  0  0  0.314696  0.320669  0  0.931653  0
H  H11  1  0.44118936  0.21611053  0.59054590  1  0  0.340072  0  0.870009  0  0  0.325025  0  0.928084  0  0  0.331386  0  0.922948  0  0  0.314669  0.320582  0  0.93173  0
H  H12  1  0.44118817  0.21610638  0.90945454  1  0  0.34011  0  0.870098  0  0  0.325054  0  0.928177  0  0  0.331418  0  0.923041  0  0  0.314708  0.320612  0  0.931824  0
H  H13  1  0.55880842  0.78389478  0.40944960  1  0  0.340132  0  0.869896  0  0  0.325074  0  0.928009  0  0  0.331441  0  0.922867  0  0  0.314681  0.320628  0  0.93166  0
H  H14  1  0.50209851  0.62511309  0.83842884  1  0  0.426724  0  0.853879  0  0  0.399666  0  0.919817  0  0  0.408956  0  0.90595  0  0  0.310318  0.393054  0  0.929681  0
H  H15  1  0.49790006  0.37488812  0.33843382  1  0  0.426734  0  0.853944  0  0  0.399694  0  0.919789  0  0  0.408983  0  0.905924  0  0  0.310333  0.393084  0  0.92965  0
H  H16  1  0.49789894  0.37487692  0.16157434  1  0  0.426802  0  0.853759  0  0  0.399665  0  0.919826  0  0  0.408955  0  0.90596  0  0  0.310323  0.393055  0  0.929688  0
H  H17  1  0.50209815  0.62511822  0.66157091  1  0  0.426702  0  0.853972  0  0  0.399646  0  0.919862  0  0  0.408937  0  0.905994  0  0  0.310314  0.393034  0  0.929726  0
H  H18  1  0.37148848  0.69369556  0.00779483  1  0  0.344473  0  0.892823  0  0  0.320008  0  0.97111  0  0  0.327983  0  0.963756  0  0  0.304926  0.314259  0  0.976512  0
H  H19  1  0.62850664  0.30631086  0.50779181  1  0  0.344584  0  0.892843  0  0  0.320128  0  0.971126  0  0  0.328105  0  0.963768  0  0  0.304934  0.314379  0  0.976527  0
H  H20  1  0.62849680  0.30630560  0.99220989  1  0  0.34457  0  0.892896  0  0  0.320135  0  0.971141  0  0  0.328113  0  0.963786  0  0  0.304972  0.314387  0  0.976543  0
H  H21  1  0.37149662  0.69369653  0.49220753  1  0  0.34446  0  0.892857  0  0  0.320012  0  0.971119  0  0  0.327988  0  0.963763  0  0  0.304921  0.314265  0  0.976516  0
H  H22  1  0.75818370  0.81969628  0.68917332  1  0  0.397403  0  0.915166  0  0  0.356473  0  0.999626  0  0  0.367366  0  0.983907  0  0  0.292277  0.348775  0  1.010732  0
H  H23  1  0.24181076  0.18030394  0.18917171  1  0  0.397402  0  0.915191  0  0  0.356484  0  0.999615  0  0  0.367378  0  0.983897  0  0  0.292283  0.348787  0  1.010721  0
H  H24  1  0.24181869  0.18030907  0.31082448  1  0  0.397411  0  0.91519  0  0  0.35651  0  0.999583  0  0  0.367404  0  0.983865  0  0  0.292305  0.348813  0  1.010687  0
H  H25  1  0.75817895  0.81969316  0.81082609  1  0  0.397412  0  0.915163  0  0  0.35649  0  0.999598  0  0  0.367384  0  0.983878  0  0  0.29228  0.348792  0  1.010704  0
H  H26  1  0.33398991  0.50092929  0.89203762  1  0  0.419583  0  0.880204  0  0  0.384855  0  0.949947  0  0  0.396325  0  0.932883  0  0  0.298868  0.376767  0  0.961942  0
H  H27  1  0.66602045  0.49906789  0.39204160  1  0  0.419373  0  0.880501  0  0  0.384726  0  0.950102  0  0  0.3962  0  0.933035  0  0  0.298791  0.376656  0  0.962081  0
H  H28  1  0.66599917  0.49906271  0.10795941  1  0  0.419386  0  0.88048  0  0  0.384734  0  0.950092  0  0  0.396207  0  0.933026  0  0  0.298822  0.376661  0  0.962075  0
H  H29  1  0.33399671  0.50093245  0.60795928  1  0  0.419448  0  0.880397  0  0  0.384782  0  0.950033  0  0  0.396253  0  0.93297  0  0  0.298854  0.376707  0  0.96202  0
C  C30  1  0.31579614  0.86619849  0.06373262  1  0  0.522806  0  3.800073  0  0  0.460923  0  4.098919  0  0  0.4834  0  4.10775  0  0  0.342477  0.445726  0  4.092705  0
C  C31  1  0.68420152  0.13380384  0.56372867  1  0  0.522801  0  3.800061  0  0  0.460841  0  4.098968  0  0  0.483317  0  4.1078  0  0  0.34245  0.445669  0  4.092732  0
C  C32  1  0.68419030  0.13379451  0.93627134  1  0  0.522835  0  3.800168  0  0  0.460947  0  4.098988  0  0  0.483434  0  4.107815  0  0  0.342475  0.445779  0  4.092752  0
C  C33  1  0.31580679  0.86620461  0.43626990  1  0  0.522711  0  3.800231  0  0  0.460871  0  4.099017  0  0  0.483347  0  4.107847  0  0  0.342493  0.445703  0  4.092775  0
C  C34  1  0.08877624  0.98250841  0.02334435  1  0  0.206833  0  3.783274  0  0  0.166332  0  4.074934  0  0  0.178969  0  4.083721  0  0  0.227465  0.157745  0  4.069259  0
C  C35  1  0.91121484  0.01749593  0.52333844  1  0  0.207058  0  3.783092  0  0  0.166458  0  4.074878  0  0  0.179103  0  4.083658  0  0  0.227413  0.157863  0  4.069217  0
C  C36  1  0.91120331  0.01749373  0.97666883  1  0  0.207228  0  3.783008  0  0  0.166571  0  4.074789  0  0  0.179225  0  4.083565  0  0  0.227469  0.157989  0  4.069109  0
C  C37  1  0.08878910  0.98250942  0.47666244  1  0  0.207049  0  3.783027  0  0  0.166392  0  4.074876  0  0  0.179033  0  4.083657  0  0  0.227425  0.157811  0  4.069198  0
N  N38  1  0.37845351  0.98661616  0.11073846  1  0  -0.347354  0  2.963392  0  0  -0.308024  0  3.239857  0  0  -0.323436  0  3.251428  0  0  -0.228823  -0.297367  0  3.23193  0
N  N39  1  0.62154428  0.01338717  0.61073457  1  0  -0.347441  0  2.963393  0  0  -0.308055  0  3.239831  0  0  -0.323467  0  3.251401  0  0  -0.228845  -0.297408  0  3.231899  0
N  N40  1  0.62153706  0.01338299  0.88926779  1  0  -0.347485  0  2.963374  0  0  -0.308141  0  3.239797  0  0  -0.323554  0  3.25136  0  0  -0.228867  -0.297495  0  3.231867  0
N  N41  1  0.37845744  0.98662021  0.38926324  1  0  -0.347381  0  2.963342  0  0  -0.308095  0  3.23981  0  0  -0.323505  0  3.251377  0  0  -0.228845  -0.297448  0  3.231875  0
N  N42  1  0.23499018  0.05909273  0.08588299  1  0  -0.253282  0  3.019298  0  0  -0.228896  0  3.303626  0  0  -0.235906  0  3.315558  0  0  -0.213857  -0.224  0  3.295714  0
N  N43  1  0.76500820  0.94091164  0.58587695  1  0  -0.253283  0  3.019156  0  0  -0.228859  0  3.303476  0  0  -0.235868  0  3.315403  0  0  -0.213831  -0.223959  0  3.295565  0
N  N44  1  0.76499885  0.94090641  0.91412865  1  0  -0.253283  0  3.01889  0  0  -0.228867  0  3.303241  0  0  -0.23588  0  3.315166  0  0  -0.213911  -0.223971  0  3.295326  0
N  N45  1  0.23499309  0.05909472  0.41412393  1  0  -0.253284  0  3.01905  0  0  -0.228829  0  3.303399  0  0  -0.235838  0  3.315327  0  0  -0.213857  -0.223933  0  3.295482  0
N  N46  1  0.13365685  0.85888309  0.00830238  1  0  -0.101049  0  3.581741  0  0  -0.020057  0  3.816277  0  0  -0.033674  0  3.836723  0  0  -0.127367  -0.011165  0  3.802561  0
N  N47  1  0.86633937  0.14112231  0.50829890  1  0  -0.101197  0  3.581917  0  0  -0.02015  0  3.816482  0  0  -0.033773  0  3.836928  0  0  -0.127351  -0.011264  0  3.802766  0
N  N48  1  0.86632270  0.14111905  0.99170311  1  0  -0.101284  0  3.581838  0  0  -0.020254  0  3.816452  0  0  -0.033889  0  3.836896  0  0  -0.127365  -0.011371  0  3.802733  0
N  N49  1  0.13366851  0.85888511  0.49169967  1  0  -0.101042  0  3.581643  0  0  -0.020006  0  3.816219  0  0  -0.033619  0  3.836659  0  0  -0.127366  -0.011124  0  3.802497  0
N  N50  1  0.40130225  0.75876771  0.07040295  1  0  -0.680398  0  3.06792  0  0  -0.640838  0  3.30675  0  0  -0.659783  0  3.300749  0  0  -0.562258  -0.627387  0  3.310894  0
N  N51  1  0.59869599  0.24123973  0.57040073  1  0  -0.680414  0  3.067898  0  0  -0.640828  0  3.306694  0  0  -0.659766  0  3.300689  0  0  -0.562225  -0.627385  0  3.310833  0
N  N52  1  0.59868433  0.24123652  0.92960177  1  0  -0.680537  0  3.068061  0  0  -0.640954  0  3.306844  0  0  -0.659883  0  3.300797  0  0  -0.562336  -0.627515  0  3.310987  0
N  N53  1  0.40130376  0.75876662  0.42959784  1  0  -0.680394  0  3.06798  0  0  -0.640837  0  3.306758  0  0  -0.659778  0  3.300751  0  0  -0.562261  -0.627394  0  3.310889  0
N  N54  1  0.04199519  0.75445899  0.94075790  1  0  -0.314341  0  2.789245  0  0  -0.32345  0  3.085009  0  0  -0.335052  0  3.095414  0  0  -0.180411  -0.315571  0  3.078121  0
N  N55  1  0.95801130  0.24554427  0.44075437  1  0  -0.314361  0  2.789224  0  0  -0.323471  0  3.084967  0  0  -0.335072  0  3.095373  0  0  -0.180418  -0.315583  0  3.078075  0
N  N56  1  0.95800437  0.24554328  0.05924451  1  0  -0.314214  0  2.789052  0  0  -0.323315  0  3.084796  0  0  -0.33491  0  3.095201  0  0  -0.180404  -0.315433  0  3.077908  0
N  N57  1  0.04200427  0.75446320  0.55924497  1  0  -0.31423  0  2.789209  0  0  -0.323381  0  3.08503  0  0  -0.334981  0  3.095433  0  0  -0.180426  -0.3155  0  3.078143  0
N  N58  1  0.87897616  0.66092806  0.98335711  1  0  0.599177  0  4.042481  0  0  0.615469  0  4.360585  0  0  0.640256  0  4.370441  0  0  0.107453  0.598879  0  4.353574  0
N  N59  1  0.12103603  0.33907113  0.48335423  1  0  0.599161  0  4.042461  0  0  0.61545  0  4.360571  0  0  0.640234  0  4.370429  0  0  0.10739  0.598859  0  4.353557  0
N  N60  1  0.12102321  0.33907012  0.01663993  1  0  0.598963  0  4.042315  0  0  0.615214  0  4.360486  0  0  0.639996  0  4.370346  0  0  0.107329  0.598626  0  4.353478  0
N  N61  1  0.87899480  0.66092522  0.51664358  1  0  0.598751  0  4.042766  0  0  0.615049  0  4.360897  0  0  0.639836  0  4.370752  0  0  0.107339  0.598461  0  4.353879  0
O  O62  1  0.80736618  0.67197918  0.07252333  1  0  -0.460595  0  1.766548  0  0  -0.430683  0  1.969298  0  0  -0.444608  0  1.961533  0  0  -0.167266  -0.421313  0  1.974756  0
O  O63  1  0.19263036  0.32801702  0.57252412  1  0  -0.460532  0  1.766518  0  0  -0.430667  0  1.96932  0  0  -0.444578  0  1.961535  0  0  -0.167175  -0.421288  0  1.974773  0
O  O64  1  0.19262314  0.32800976  0.92747139  1  0  -0.460525  0  1.76641  0  0  -0.430584  0  1.969197  0  0  -0.444505  0  1.961423  0  0  -0.167157  -0.421206  0  1.97464  0
O  O65  1  0.80737959  0.67197715  0.42747829  1  0  -0.46059  0  1.766755  0  0  -0.430638  0  1.969452  0  0  -0.444581  0  1.961711  0  0  -0.167278  -0.421268  0  1.974906  0
O  O66  1  0.79877751  0.55899759  0.92602279  1  0  -0.483978  0  1.767633  0  0  -0.454091  0  1.989005  0  0  -0.470592  0  1.984176  0  0  -0.186876  -0.442696  0  1.992424  0
O  O67  1  0.20126543  0.44099367  0.42601982  1  0  -0.484014  0  1.76767  0  0  -0.454086  0  1.989001  0  0  -0.470563  0  1.984129  0  0  -0.186922  -0.442722  0  1.992486  0
O  O68  1  0.20123854  0.44100377  0.07396579  1  0  -0.483947  0  1.767723  0  0  -0.454008  0  1.989074  0  0  -0.470484  0  1.984206  0  0  -0.186898  -0.442616  0  1.992491  0
O  O69  1  0.79880724  0.55899275  0.57397490  1  0  -0.483661  0  1.767636  0  0  -0.453803  0  1.989039  0  0  -0.470301  0  1.984223  0  0  -0.186759  -0.442405  0  1.992451  0
O  O70  1  0.30783323  0.88600053  0.74999702  1  0  -0.888124  0  1.847838  0  0  -0.834227  0  2.04463  0  0  -0.852498  0  2.010904  0  0  -0.661457  -0.821056  0  2.068064  0
O  O71  1  0.69216109  0.11399661  0.24999925  1  0  -0.888203  0  1.847799  0  0  -0.834313  0  2.044516  0  0  -0.85259  0  2.010805  0  0  -0.661473  -0.821144  0  2.067954  0
O  O72  1  0.74577191  0.75777022  0.74999970  1  0  -0.886171  0  1.914447  0  0  -0.821317  0  2.113769  0  0  -0.841552  0  2.080706  0  0  -0.613654  -0.806775  0  2.136722  0
O  O73  1  0.25422611  0.24223204  0.24999810  1  0  -0.8862  0  1.914525  0  0  -0.821394  0  2.113779  0  0  -0.841628  0  2.080706  0  0  -0.613709  -0.80685  0  2.136733  0
O  O74  1  0.36010924  0.59745290  0.87006470  1  0  -0.867231  0  1.865304  0  0  -0.811899  0  2.049469  0  0  -0.830972  0  2.018505  0  0  -0.607712  -0.79827  0  2.071066  0
O  O75  1  0.63989356  0.40254424  0.37006484  1  0  -0.86705  0  1.86576  0  0  -0.811787  0  2.049815  0  0  -0.830861  0  2.018847  0  0  -0.607634  -0.798177  0  2.07136  0
O  O76  1  0.63988445  0.40253913  0.12993464  1  0  -0.867104  0  1.865539  0  0  -0.811763  0  2.049832  0  0  -0.83084  0  2.018868  0  0  -0.607654  -0.798154  0  2.071383  0
O  O77  1  0.36011480  0.59745706  0.62992989  1  0  -0.86708  0  1.865625  0  0  -0.811792  0  2.049675  0  0  -0.830868  0  2.01871  0  0  -0.607677  -0.798181  0  2.07123  0
O  O78  1  0.82291546  0.39408884  0.75000187  1  0  -0.870757  0  1.841848  0  0  -0.815621  0  2.01112  0  0  -0.833575  0  1.979977  0  0  -0.639283  -0.802773  0  2.032869  0
O  O79  1  0.17707425  0.60590826  0.25000055  1  0  -0.870692  0  1.841952  0  0  -0.815612  0  2.011189  0  0  -0.833568  0  1.980035  0  0  -0.639254  -0.802761  0  2.03294  0
