# generated using pymatgen
data_AlH5C12NO7F
_symmetry_space_group_name_H-M   'P 1'
_cell_length_a   6.82235591
_cell_length_b   11.21532312
_cell_length_c   17.87340466
_cell_angle_alpha   83.11564367
_cell_angle_beta   77.37979566
_cell_angle_gamma   71.18174184
_symmetry_Int_Tables_number   1
_chemical_formula_structural   AlH5C12NO7F
_chemical_formula_sum   'Al2 H10 C24 N2 O14 F2'
_cell_volume   1261.39821237
_cell_formula_units_Z   2
loop_
 _symmetry_equiv_pos_site_id
 _symmetry_equiv_pos_as_xyz
  1  'x, y, z'
loop_
 _atom_site_type_symbol
 _atom_site_label
 _atom_site_symmetry_multiplicity
 _atom_site_fract_x
 _atom_site_fract_y
 _atom_site_fract_z
 _atom_site_occupancy
 _atom_site_pbe_bader_charge
 _atom_site_pbe_bader_spin_density
 _atom_site_pbe_cm5_charge
 _atom_site_pbe_ddec_charge
 _atom_site_pbe_ddec_spin_density
 _atom_site_pbe_ddec_sum_bond_order
 _atom_site_pbe_magmom
Al  Al0  1  0.50167824  0.50064544  0.50055075  1  2.506752  0  0.408608  1.642188  0  2.542112  0
Al  Al1  1  0.00193132  0.50065389  0.49992118  1  2.508189  0  0.399685  1.656156  0  2.546905  0
H  H2  1  0.24128000  0.61162067  0.41985379  1  0.609518  0  0.34509  0.429363  0  0.861373  0
H  H3  1  0.76521523  0.38781631  0.57982623  1  0.60656  0  0.344859  0.428745  0  0.86299  0
H  H4  1  0.77168335  0.11308649  0.47143692  1  0.200535  0  0.120011  0.126673  0  1.086263  0
H  H5  1  0.23242672  0.88821207  0.52751900  1  0.176998  0  0.120189  0.127847  0  1.083312  0
H  H6  1  0.60249722  0.44557518  0.27861024  1  0.122625  0  0.115376  0.1241  0  0.988383  0
H  H7  1  0.65978032  0.44153909  0.13612983  1  0.087967  0  0.107295  0.112537  0  0.994828  0
H  H8  1  0.22087687  0.55300830  0.11724333  1  0.084885  0  0.115839  0.141373  0  0.982286  0
H  H9  1  0.76834325  0.44803403  0.88065281  1  0.106736  0  0.115257  0.140462  0  0.98347  0
H  H10  1  0.39769498  0.55059535  0.72476511  1  0.116775  0  0.114904  0.123922  0  0.990203  0
H  H11  1  0.33295977  0.55297655  0.86755397  1  0.064601  0  0.106763  0.111871  0  0.996445  0
C  C12  1  0.83935079  0.49557296  0.36378702  1  1.576255  0  0.272784  0.670474  0  4.077802  0
C  C13  1  0.62439380  0.72564506  0.50403939  1  1.646929  0  0.27603  0.649485  0  4.085562  0
C  C14  1  0.16304057  0.50533640  0.63662331  1  1.588826  0  0.272566  0.669463  0  4.078269  0
C  C15  1  0.37948892  0.27557640  0.49582992  1  1.636058  0  0.273973  0.647843  0  4.085348  0
C  C16  1  0.56198163  0.86677397  0.50454849  1  0.064171  0  0.007327  -0.051134  0  3.913355  0
C  C17  1  0.44215320  0.13452225  0.49441683  1  0.031738  0  0.008254  -0.04997  0  3.910855  0
C  C18  1  0.71025074  0.93257044  0.48970996  1  0.158804  0  0.094103  0.065579  0  3.935223  0
C  C19  1  0.29384884  0.06876008  0.50898627  1  0.137086  0  0.093116  0.06539  0  3.934449  0
C  C20  1  0.65441955  0.06316146  0.48380230  1  0.06094  0  -0.068296  -0.126179  0  3.920432  0
C  C21  1  0.34972139  0.93816895  0.51506364  1  0.08602  0  -0.068835  -0.129208  0  3.922014  0
C  C22  1  0.88064547  0.49533851  0.27845616  1  0.063085  0  -0.017738  -0.155477  0  3.950428  0
C  C23  1  0.73892992  0.46674951  0.24220525  1  -0.011856  0  -0.070652  -0.054565  0  3.974061  0
C  C24  1  0.77003153  0.46542921  0.16298066  1  0.007358  0  -0.086215  -0.145279  0  3.948061  0
C  C25  1  0.94482534  0.49610751  0.11631718  1  0.118664  0  0.008812  0.174464  0  4.122261  0
C  C26  1  0.08691023  0.52660798  0.15155824  1  0.070548  0  -0.093405  -0.262136  0  3.938012  0
C  C27  1  0.05381002  0.52482866  0.23091171  1  0.386854  0  0.11144  0.289649  0  4.047006  0
C  C28  1  0.97808399  0.49765882  0.03538705  1  -0.555725  0  -0.03808  -0.098834  0  4.097614  0
C  C29  1  0.00942946  0.49952344  0.96540616  1  0.111885  0  -0.038637  -0.098774  0  4.09666  0
C  C30  1  0.04581791  0.50152277  0.88439731  1  0.17684  0  0.00771  0.172546  0  4.122265  0
C  C31  1  0.90484588  0.47318023  0.84751351  1  0.033524  0  -0.092272  -0.26034  0  3.935518  0
C  C32  1  0.94222300  0.47571552  0.76805148  1  0.399553  0  0.11224  0.29065  0  4.038556  0
C  C33  1  0.11846005  0.50401615  0.72202584  1  0.087293  0  -0.017871  -0.155451  0  3.949121  0
C  C34  1  0.25899048  0.53029735  0.75994713  1  0.023785  0  -0.071681  -0.055743  0  3.974946  0
C  C35  1  0.22385093  0.53067469  0.83929434  1  -0.062897  0  -0.085075  -0.143905  0  3.950272  0
N  N36  1  0.93543317  0.86463955  0.48659672  1  0.386978  0  0.06067  0.519326  0  4.223004  0
N  N37  1  0.06869753  0.13673293  0.51198763  1  0.412917  0  0.060981  0.518619  0  4.221031  0
O  O38  1  0.64737162  0.51339406  0.39727505  1  -1.262856  0  -0.233023  -0.595068  0  2.335803  0
O  O39  1  0.82198941  0.66989798  0.49046006  1  -1.246562  0  -0.226307  -0.593338  0  2.411978  0
O  O40  1  0.00847171  0.52228492  0.60348775  1  -1.256009  0  -0.233204  -0.591223  0  2.357744  0
O  O41  1  0.52525755  0.32589854  0.48682771  1  -1.239524  0  -0.220045  -0.558545  0  2.33464  0
O  O42  1  0.35548251  0.48823304  0.60383782  1  -1.259026  0  -0.233121  -0.593965  0  2.328813  0
O  O43  1  0.18182684  0.33124250  0.50916585  1  -1.252839  0  -0.226866  -0.594371  0  2.413252  0
O  O44  1  0.99516617  0.47928404  0.39617124  1  -1.243362  0  -0.233759  -0.591559  0  2.351795  0
O  O45  1  0.47841599  0.67528171  0.51406276  1  -1.242482  0  -0.221531  -0.559173  0  2.333037  0
O  O46  1  0.24344494  0.55512004  0.46545674  1  -1.409197  0  -0.449691  -0.993305  0  2.160095  0
O  O47  1  0.76081718  0.44582223  0.53489758  1  -1.404643  0  -0.450245  -0.993479  0  2.161289  0
O  O48  1  0.98623346  0.82933461  0.54990454  1  -0.43462  0  -0.094509  -0.279954  0  1.953295  0
O  O49  1  0.05654124  0.85501898  0.42359596  1  -0.431001  0  -0.113456  -0.309155  0  1.885516  0
O  O50  1  0.94728634  0.14612813  0.57492390  1  -0.43875  0  -0.112551  -0.307959  0  1.886579  0
O  O51  1  0.01814649  0.17221395  0.44865132  1  -0.446183  0  -0.095265  -0.280727  0  1.95221  0
F  F52  1  0.19444881  0.55721623  0.26136894  1  -0.6312  0  -0.091108  -0.134913  0  1.353337  0
F  F53  1  0.80241640  0.44528957  0.73597194  1  -0.629521  0  -0.090438  -0.134998  0  1.354525  0
