# generated using pymatgen
data_DyCuH16C22S2N2O11
_symmetry_space_group_name_H-M   'P 1'
_cell_length_a   9.36344914
_cell_length_b   11.32229483
_cell_length_c   12.34500000
_cell_angle_alpha   99.29464089
_cell_angle_beta   100.37366739
_cell_angle_gamma   113.75497434
_symmetry_Int_Tables_number   1
_chemical_formula_structural   DyCuH16C22S2N2O11
_chemical_formula_sum   'Dy2 Cu2 H32 C44 S4 N4 O22'
_cell_volume   1137.78984423
_cell_formula_units_Z   2
loop_
 _symmetry_equiv_pos_site_id
 _symmetry_equiv_pos_as_xyz
  1  'x, y, z'
loop_
 _atom_site_type_symbol
 _atom_site_label
 _atom_site_symmetry_multiplicity
 _atom_site_fract_x
 _atom_site_fract_y
 _atom_site_fract_z
 _atom_site_occupancy
 _atom_site_hle17_bader_spin_density
 _atom_site_hle17_ddec_charge
 _atom_site_hle17_ddec_spin_density
 _atom_site_hle17_ddec_sum_bond_order
 _atom_site_hle17_magmom
 _atom_site_hse06_10hf_bader_spin_density
 _atom_site_hse06_10hf_ddec_charge
 _atom_site_hse06_10hf_ddec_spin_density
 _atom_site_hse06_10hf_ddec_sum_bond_order
 _atom_site_hse06_10hf_magmom
 _atom_site_hse06_bader_spin_density
 _atom_site_hse06_ddec_charge
 _atom_site_hse06_ddec_spin_density
 _atom_site_hse06_ddec_sum_bond_order
 _atom_site_hse06_magmom
 _atom_site_pbe_bader_charge
 _atom_site_pbe_bader_spin_density
 _atom_site_pbe_cm5_charge
 _atom_site_pbe_ddec_charge
 _atom_site_pbe_ddec_spin_density
 _atom_site_pbe_ddec_sum_bond_order
 _atom_site_pbe_magmom
Dy  Dy0  1  0.30527255  0.46444099  0.09610603  1  0  2.330135  0  1.592919  0  0  2.265523  0  1.922117  0  0  2.311178  0  1.87988  0  2.215104  0  1.5356  2.161727  0  2.084117  0
Dy  Dy1  1  0.69472275  0.53555506  0.90389194  1  0  2.330129  0  1.59294  0  0  2.26551  0  1.922126  0  0  2.311166  0  1.879891  0  2.215069  0  1.53561  2.161734  0  2.084088  0
Cu  Cu2  1  0.25502838  0.97621808  0.59610788  1  0  0.501892  0  1.532726  0  0  0.36494  0  1.942019  0  0  0.375076  0  1.90277  0  0.642782  0  0.544785  0.361736  0  1.966978  0
Cu  Cu3  1  0.74496800  0.02377997  0.40389215  1  0  0.501898  0  1.53277  0  0  0.364937  0  1.942074  0  0  0.375043  0  1.902767  0  0.642836  0  0.544818  0.36173  0  1.967021  0
H  H4  1  0.73551646  0.54538844  0.41424125  1  0  0.100119  0  0.961338  0  0  0.113005  0  1.018535  0  0  0.115454  0  1.018201  0  0.096983  0  0.103501  0.110952  0  1.019689  0
H  H5  1  0.26448317  0.45461161  0.58575141  1  0  0.100133  0  0.961387  0  0  0.113013  0  1.018588  0  0  0.115432  0  1.018295  0  0.097189  0  0.103494  0.110959  0  1.019742  0
H  H6  1  0.90060582  0.67268065  0.29893591  1  0  0.118911  0  0.956207  0  0  0.125872  0  1.019098  0  0  0.129537  0  1.017124  0  0.115713  0  0.107575  0.123126  0  1.021002  0
H  H7  1  0.09939547  0.32731241  0.70105432  1  0  0.118841  0  0.956312  0  0  0.125886  0  1.019094  0  0  0.129553  0  1.017117  0  0.115568  0  0.10759  0.123141  0  1.020995  0
H  H8  1  0.28970986  0.58192981  0.43699708  1  0  0.112759  0  0.954285  0  0  0.1228  0  1.018031  0  0  0.125623  0  1.016903  0  0.098562  0  0.10825  0.120139  0  1.020202  0
H  H9  1  0.71029085  0.41807224  0.56300170  1  0  0.112778  0  0.954278  0  0  0.12283  0  1.01801  0  0  0.12564  0  1.016898  0  0.098581  0  0.10825  0.12017  0  1.020184  0
H  H10  1  0.44796788  0.25004148  0.22952871  1  0  0.102172  0  1.003027  0  0  0.111221  0  1.066336  0  0  0.113119  0  1.066758  0  0.103014  0  0.11119  0.109837  0  1.066426  0
H  H11  1  0.55203391  0.74996056  0.77047589  1  0  0.102196  0  1.003038  0  0  0.111173  0  1.06639  0  0  0.113069  0  1.066828  0  0.103008  0  0.111185  0.109782  0  1.066506  0
H  H12  1  0.49978206  0.10824405  0.35284009  1  0  0.091292  0  0.931105  0  0  0.102923  0  0.988707  0  0  0.10519  0  0.98747  0  0.112708  0  0.121136  0.100749  0  0.990661  0
H  H13  1  0.50021487  0.89175100  0.64715714  1  0  0.091299  0  0.931054  0  0  0.102922  0  0.988671  0  0  0.105188  0  0.987437  0  0.112722  0  0.121127  0.100748  0  0.990625  0
H  H14  1  0.94092326  0.18767252  0.28050352  1  0  0.074163  0  0.977487  0  0  0.082385  0  1.045327  0  0  0.084234  0  1.044218  0  0.11457  0  0.113456  0.080548  0  1.047408  0
H  H15  1  0.05907907  0.81233053  0.71949887  1  0  0.074171  0  0.977419  0  0  0.082344  0  1.045302  0  0  0.084192  0  1.044195  0  0.114559  0  0.113436  0.080508  0  1.047385  0
H  H16  1  0.90772721  0.33274874  0.15939359  1  0  0.12466  0  0.965895  0  0  0.134548  0  1.02577  0  0  0.137943  0  1.024026  0  0.133969  0  0.11974  0.13177  0  1.027821  0
H  H17  1  0.09227294  0.66725630  0.84061204  1  0  0.124618  0  0.965818  0  0  0.134477  0  1.025756  0  0  0.137887  0  1.023994  0  0.133962  0  0.119722  0.131697  0  1.027808  0
H  H18  1  0.57506413  0.17710864  0.86335938  1  0  0.113642  0  0.964906  0  0  0.119601  0  1.034588  0  0  0.123648  0  1.03112  0  0.131194  0  0.11076  0.1166  0  1.0372  0
H  H19  1  0.42493930  0.82289041  0.13664014  1  0  0.113627  0  0.964867  0  0  0.119568  0  1.034578  0  0  0.12363  0  1.031089  0  0.130104  0  0.110758  0.116567  0  1.03719  0
H  H20  1  0.76586143  0.08045278  0.90913344  1  0  0.111789  0  0.950361  0  0  0.122932  0  1.006942  0  0  0.126171  0  1.005596  0  0.121534  0  0.107263  0.120573  0  1.008172  0
H  H21  1  0.23414038  0.91954327  0.09086541  1  0  0.111797  0  0.95041  0  0  0.122936  0  1.006996  0  0  0.126168  0  1.005646  0  0.121561  0  0.107263  0.120577  0  1.008224  0
H  H22  1  0.15782132  0.07327562  0.99671302  1  0  0.112589  0  0.933647  0  0  0.125617  0  0.988361  0  0  0.128945  0  0.986353  0  0.096884  0  0.114262  0.123173  0  0.990075  0
H  H23  1  0.84217833  0.92671844  0.00328362  1  0  0.112531  0  0.933609  0  0  0.125563  0  0.988334  0  0  0.128887  0  0.986323  0  0.096939  0  0.114258  0.12309  0  0.990084  0
H  H24  1  0.41009308  0.25762437  0.62745807  1  0  0.110352  0  0.94571  0  0  0.117674  0  1.005886  0  0  0.12098  0  1.002631  0  0.195305  0  0.1269  0.115077  0  1.008484  0
H  H25  1  0.58990655  0.74237368  0.37254727  1  0  0.110198  0  0.945891  0  0  0.117668  0  1.00592  0  0  0.120938  0  1.00271  0  0.195395  0  0.126892  0.11507  0  1.008517  0
H  H26  1  0.43434409  0.40849170  0.50000943  1  0  0.110542  0  0.975108  0  0  0.118722  0  1.041611  0  0  0.12261  0  1.038548  0  0.08113  0  0.109247  0.115608  0  1.044924  0
H  H27  1  0.56566151  0.59150935  0.50000121  1  0  0.110508  0  0.975117  0  0  0.118716  0  1.041583  0  0  0.122604  0  1.038526  0  0.080975  0  0.109265  0.1156  0  1.044901  0
H  H28  1  0.08751676  0.06568973  0.22658996  1  0  0.127429  0  0.926699  0  0  0.138602  0  0.981604  0  0  0.141864  0  0.980457  0  0.136107  0  0.118385  0.136342  0  0.982636  0
H  H29  1  0.91248717  0.93432231  0.77341155  1  0  0.127412  0  0.926687  0  0  0.138598  0  0.981578  0  0  0.141859  0  0.980429  0  0.135441  0  0.118377  0.136337  0  0.982612  0
H  H30  1  0.08081869  0.92577008  0.36249432  1  0  0.099723  0  0.958441  0  0  0.104908  0  1.026719  0  0  0.108104  0  1.023205  0  0.160602  0  0.119363  0.102539  0  1.029343  0
H  H31  1  0.91917928  0.07423697  0.63750563  1  0  0.099779  0  0.958412  0  0  0.104932  0  1.026709  0  0  0.108125  0  1.023201  0  0.160506  0  0.119417  0.102565  0  1.029332  0
H  H32  1  0.97422681  0.31730615  0.92885183  1  0  0.447531  0  0.84729  0  0  0.417086  0  0.909706  0  0  0.427525  0  0.894469  0  0.657693  0  0.303871  0.409284  0  0.920952  0
H  H33  1  0.02577121  0.68268890  0.07114392  1  0  0.447521  0  0.847301  0  0  0.417095  0  0.909687  0  0  0.427534  0  0.89445  0  0.657811  0  0.303877  0.409295  0  0.92093  0
H  H34  1  0.93977684  0.40703668  0.02258729  1  0  0.442309  0  0.836522  0  0  0.414005  0  0.905778  0  0  0.424031  0  0.890687  0  0.639869  0  0.313014  0.406357  0  0.917047  0
H  H35  1  0.06021685  0.59295438  0.97740729  1  0  0.44221  0  0.836711  0  0  0.413903  0  0.90593  0  0  0.42393  0  0.890837  0  0.639695  0  0.312958  0.406257  0  0.917194  0
C  C36  1  0.85791128  0.55588936  0.42160103  1  0  -0.103761  0  3.730842  0  0  -0.123232  0  3.980335  0  0  -0.126087  0  4.002469  0  -0.028391  0  -0.088006  -0.12103  0  3.965883  0
C  C37  1  0.14208618  0.44411069  0.57839215  1  0  -0.103816  0  3.730763  0  0  -0.123274  0  3.980292  0  0  -0.126112  0  4.002438  0  -0.02746  0  -0.087974  -0.121073  0  3.96584  0
C  C38  1  0.94827957  0.62569132  0.35645975  1  0  -0.075163  0  3.75251  0  0  -0.101412  0  4.00977  0  0  -0.101895  0  4.028938  0  -0.035857  0  -0.090177  -0.101141  0  3.997242  0
C  C39  1  0.05171736  0.37430374  0.64353505  1  0  -0.075054  0  3.752492  0  0  -0.101373  0  4.009751  0  0  -0.101849  0  4.028905  0  -0.036937  0  -0.090142  -0.1011  0  3.997218  0
C  C40  1  0.10467212  0.63430451  0.36301684  1  0  -0.116858  0  3.751358  0  0  -0.092541  0  4.004431  0  0  -0.097817  0  4.024009  0  -0.147895  0  -0.017925  -0.089351  0  3.991495  0
C  C41  1  0.89532861  0.36569154  0.63697943  1  0  -0.116871  0  3.751384  0  0  -0.092544  0  4.004465  0  0  -0.097822  0  4.024044  0  -0.147904  0  -0.017969  -0.08935  0  3.991526  0
C  C42  1  0.17012853  0.57618068  0.43468819  1  0  -0.099393  0  3.695379  0  0  -0.133283  0  3.945698  0  0  -0.132724  0  3.964617  0  -0.04351  0  -0.081591  -0.13314  0  3.933569  0
C  C43  1  0.82987435  0.42382137  0.56530684  1  0  -0.099363  0  3.695435  0  0  -0.133267  0  3.945717  0  0  -0.132698  0  3.964645  0  -0.043435  0  -0.081523  -0.133122  0  3.93358  0
C  C44  1  0.92004328  0.49460366  0.49654357  1  0  0.05529  0  3.78012  0  0  0.072325  0  4.00876  0  0  0.071618  0  4.033447  0  -0.004658  0  -0.007299  0.072827  0  3.991441  0
C  C45  1  0.07995472  0.50539739  0.50345145  1  0  0.055328  0  3.779988  0  0  0.072316  0  4.008674  0  0  0.071612  0  4.033356  0  -0.052546  0  -0.007328  0.072817  0  3.991354  0
C  C46  1  0.56018504  0.24111950  0.24228919  1  0  -0.102213  0  3.713286  0  0  -0.125559  0  3.957144  0  0  -0.130818  0  3.980386  0  0.015574  0  -0.070374  -0.122299  0  3.943033  0
C  C47  1  0.43981512  0.75888355  0.75771452  1  0  -0.10235  0  3.713392  0  0  -0.125629  0  3.957271  0  0  -0.130888  0  3.980502  0  0.016432  0  -0.070381  -0.122359  0  3.943148  0
C  C48  1  0.58763172  0.16167504  0.30970822  1  0  0.115999  0  3.671632  0  0  0.087922  0  3.914998  0  0  0.093643  0  3.932753  0  0.463036  0  0.046166  0.083945  0  3.904433  0
C  C49  1  0.41236845  0.83832601  0.69029277  1  0  0.116078  0  3.671572  0  0  0.088017  0  3.914944  0  0  0.093736  0  3.932701  0  0.463027  0  0.04617  0.084036  0  3.904381  0
C  C50  1  0.83471463  0.20612508  0.26932578  1  0  0.124149  0  3.671898  0  0  0.094364  0  3.917253  0  0  0.100171  0  3.935764  0  0.439113  0  0.047278  0.090461  0  3.905639  0
C  C51  1  0.16528825  0.79387897  0.73067845  1  0  0.124225  0  3.671961  0  0  0.094525  0  3.917311  0  0  0.100331  0  3.935826  0  0.439537  0  0.047361  0.090617  0  3.905699  0
C  C52  1  0.81494937  0.28764114  0.20153734  1  0  -0.093683  0  3.671634  0  0  -0.117168  0  3.915306  0  0  -0.122347  0  3.936943  0  0.0012  0  -0.06816  -0.114064  0  3.90242  0
C  C53  1  0.18505296  0.71236390  0.79846859  1  0  -0.09352  0  3.671418  0  0  -0.117044  0  3.915157  0  0  -0.122236  0  3.936786  0  0.000492  0  -0.068121  -0.113931  0  3.902269  0
C  C54  1  0.50164061  0.12053177  0.91305102  1  0  -0.093734  0  3.700778  0  0  -0.127516  0  3.951763  0  0  -0.126469  0  3.969247  0  -0.03796  0  -0.076607  -0.128126  0  3.940661  0
C  C55  1  0.49836445  0.87946828  0.08694968  1  0  -0.09362  0  3.700749  0  0  -0.127424  0  3.951714  0  0  -0.1264  0  3.969219  0  -0.037652  0  -0.076575  -0.128032  0  3.940615  0
C  C56  1  0.54959930  0.03673524  0.96759161  1  0  0.055399  0  3.780043  0  0  0.072682  0  4.004776  0  0  0.07179  0  4.029921  0  -0.021768  0  -0.005597  0.073081  0  3.987883  0
C  C57  1  0.45040630  0.96326581  0.03241012  1  0  0.055429  0  3.779932  0  0  0.072684  0  4.00471  0  0  0.071786  0  4.029856  0  -0.054085  0  -0.005649  0.073081  0  3.98782  0
C  C58  1  0.69244815  0.02405379  0.95928054  1  0  -0.090933  0  3.691388  0  0  -0.108625  0  3.940122  0  0  -0.111043  0  3.960443  0  -0.06581  0  -0.078322  -0.106571  0  3.926155  0
C  C59  1  0.30755475  0.97594426  0.04071957  1  0  -0.090866  0  3.691301  0  0  -0.108541  0  3.940008  0  0  -0.110945  0  3.96032  0  -0.065173  0  -0.078281  -0.106488  0  3.926052  0
C  C60  1  0.26407409  0.05932202  0.98770781  1  0  -0.061281  0  3.734851  0  0  -0.089795  0  3.991368  0  0  -0.090112  0  4.010907  0  0.038441  0  -0.081252  -0.089564  0  3.978315  0
C  C61  1  0.73592773  0.94067403  0.01229266  1  0  -0.061065  0  3.734814  0  0  -0.089621  0  3.99132  0  0  -0.089929  0  4.010855  0  0.039207  0  -0.081212  -0.089367  0  3.978274  0
C  C62  1  0.36311952  0.13147739  0.92406703  1  0  -0.128017  0  3.768036  0  0  -0.100751  0  4.014102  0  0  -0.107028  0  4.035226  0  -0.192529  0  -0.017553  -0.096777  0  4.000989  0
C  C63  1  0.63688391  0.86852166  0.07593249  1  0  -0.128296  0  3.768413  0  0  -0.100898  0  4.01434  0  0  -0.10718  0  4.035464  0  -0.192072  0  -0.017617  -0.09692  0  4.001212  0
C  C64  1  0.34127587  0.21919427  0.53833084  1  0  0.140653  0  3.630266  0  0  0.11273  0  3.866404  0  0  0.120015  0  3.882686  0  0.436424  0  0.050433  0.107872  0  3.856259  0
C  C65  1  0.65872375  0.78080777  0.46167589  1  0  0.14086  0  3.630205  0  0  0.11274  0  3.866418  0  0  0.120051  0  3.882717  0  0.436172  0  0.050483  0.107885  0  3.85627  0
C  C66  1  0.35291696  0.30259407  0.46624004  1  0  -0.119589  0  3.706495  0  0  -0.142261  0  3.952896  0  0  -0.148765  0  3.974263  0  -0.025007  0  -0.073731  -0.138343  0  3.941033  0
C  C67  1  0.64708645  0.69741098  0.53376846  1  0  -0.119622  0  3.706524  0  0  -0.142358  0  3.952908  0  0  -0.14887  0  3.974272  0  -0.024968  0  -0.073894  -0.13844  0  3.941043  0
C  C68  1  0.26112783  0.24929099  0.35247372  1  0  -0.013981  0  3.741271  0  0  0.007612  0  3.96756  0  0  0.005806  0  3.988165  0  -0.018643  0  0.001103  0.008076  0  3.956245  0
C  C69  1  0.73887611  0.75071705  0.64753693  1  0  -0.014103  0  3.74139  0  0  0.00773  0  3.967361  0  0  0.005934  0  3.987947  0  -0.019939  0  0.001162  0.008194  0  3.956042  0
C  C70  1  0.16047247  0.11172670  0.31465913  1  0  -0.113574  0  3.689219  0  0  -0.134619  0  3.934817  0  0  -0.139628  0  3.95347  0  -0.032903  0  -0.072884  -0.13246  0  3.92512  0
C  C71  1  0.83952659  0.88828034  0.68534584  1  0  -0.113402  0  3.689097  0  0  -0.134536  0  3.934642  0  0  -0.139547  0  3.953291  0  -0.031881  0  -0.072828  -0.132377  0  3.924942  0
C  C72  1  0.15617356  0.03304873  0.39046674  1  0  0.120481  0  3.673707  0  0  0.08796  0  3.922232  0  0  0.096369  0  3.935926  0  0.429202  0  0.046288  0.082117  0  3.914353  0
C  C73  1  0.84382388  0.96695732  0.60953543  1  0  0.120292  0  3.673802  0  0  0.087791  0  3.92233  0  0  0.0962  0  3.936024  0  0.429811  0  0.046136  0.081947  0  3.914449  0
C  C74  1  0.67424046  0.30566300  0.18648218  1  0  -0.014507  0  3.696267  0  0  0.00654  0  3.919943  0  0  0.00413  0  3.940132  0  -0.020518  0  0.006102  0.007251  0  3.908466  0
C  C75  1  0.32576078  0.69434205  0.81352359  1  0  -0.014565  0  3.696227  0  0  0.006538  0  3.919926  0  0  0.00413  0  3.940116  0  -0.021104  0  0.006065  0.007235  0  3.908449  0
C  C76  1  0.64015469  0.38631864  0.10889637  1  0  0.716134  0  3.854591  0  0  0.670534  0  4.147589  0  0  0.705454  0  4.135487  0  1.591986  0  0.235529  0.646154  0  4.150704  0
C  C77  1  0.35984223  0.61367841  0.89110196  1  0  0.716299  0  3.854459  0  0  0.6706  0  4.147631  0  0  0.705519  0  4.13553  0  1.591991  0  0.235491  0.646228  0  4.150737  0
C  C78  1  0.27419729  0.33517211  0.27061020  1  0  0.608622  0  3.985726  0  0  0.564608  0  4.285531  0  0  0.598268  0  4.275469  0  1.576981  0  0.183811  0.542932  0  4.283324  0
C  C79  1  0.72580720  0.66483493  0.72939551  1  0  0.608603  0  3.98603  0  0  0.564514  0  4.285831  0  0  0.598174  0  4.275768  0  1.577324  0  0.18381  0.54284  0  4.283617  0
S  S80  1  0.30583430  0.23536438  0.85186537  1  0  1.384732  0  5.562945  0  0  1.290335  0  6.077524  0  0  1.339569  0  6.050218  0  3.195257  0  0.545549  1.254934  0  6.091259  0
S  S81  1  0.69416317  0.76463168  0.14813451  1  0  1.384595  0  5.563201  0  0  1.290123  0  6.077831  0  0  1.339358  0  6.050527  0  3.195405  0  0.545436  1.254725  0  6.091563  0
S  S82  1  0.21683738  0.71558573  0.27216172  1  0  1.341757  0  5.597413  0  0  1.248834  0  6.110825  0  0  1.296899  0  6.086016  0  3.180721  0  0.529596  1.214968  0  6.125823  0
S  S83  1  0.78316171  0.28441332  0.72783153  1  0  1.341677  0  5.597658  0  0  1.248742  0  6.111069  0  0  1.296806  0  6.086264  0  3.180685  0  0.529579  1.214873  0  6.126066  0
N  N84  1  0.24563253  0.08577619  0.50055130  1  0  -0.285777  0  3.438349  0  0  -0.194739  0  3.722616  0  0  -0.20816  0  3.730694  0  -1.215853  0  -0.380848  -0.18656  0  3.717172  0
N  N85  1  0.75436599  0.91422986  0.49945183  1  0  -0.285781  0  3.43837  0  0  -0.194688  0  3.722637  0  0  -0.208094  0  3.730666  0  -1.215611  0  -0.380802  -0.186511  0  3.717186  0
N  N86  1  0.72302912  0.14290469  0.32249572  1  0  -0.297818  0  3.471356  0  0  -0.210506  0  3.766637  0  0  -0.223214  0  3.775141  0  -1.226372  0  -0.38459  -0.202782  0  3.760733  0
N  N87  1  0.27696943  0.85709336  0.67750623  1  0  -0.297983  0  3.471605  0  0  -0.210696  0  3.766893  0  0  -0.223417  0  3.775439  0  -1.226341  0  -0.384622  -0.202972  0  3.761001  0
O  O88  1  0.18178007  0.27936172  0.16863455  1  0  -0.694786  0  1.968841  0  0  -0.659925  0  2.212175  0  0  -0.683371  0  2.202142  0  -1.177709  0  -0.391741  -0.634806  0  2.21884  0
O  O89  1  0.81822607  0.72063833  0.83136953  1  0  -0.694776  0  1.968954  0  0  -0.659918  0  2.212281  0  0  -0.683368  0  2.202251  0  -1.177872  0  -0.391737  -0.6348  0  2.218937  0
O  O90  1  0.37844881  0.45715790  0.30123525  1  0  -0.664017  0  1.951366  0  0  -0.628689  0  2.190918  0  0  -0.651824  0  2.182207  0  -1.182948  0  -0.350384  -0.605194  0  2.19599  0
O  O91  1  0.62155459  0.54285115  0.69877141  1  0  -0.663962  0  1.951473  0  0  -0.628608  0  2.19099  0  0  -0.651741  0  2.182278  0  -1.182923  0  -0.350364  -0.605115  0  2.196058  0
O  O92  1  0.22055691  0.60406089  0.19161397  1  0  -0.808807  0  2.076293  0  0  -0.760345  0  2.355128  0  0  -0.783508  0  2.33969  0  -1.349925  0  -0.440781  -0.733053  0  2.368306  0
O  O93  1  0.77943784  0.39593616  0.80837354  1  0  -0.808689  0  2.076391  0  0  -0.760207  0  2.355173  0  0  -0.783365  0  2.339745  0  -1.349745  0  -0.440767  -0.732916  0  2.368348  0
O  O94  1  0.23476452  0.29823500  0.92640836  1  0  -0.757612  0  2.046642  0  0  -0.712881  0  2.321235  0  0  -0.734529  0  2.304701  0  -1.334437  0  -0.399213  -0.687106  0  2.333265  0
O  O95  1  0.76523405  0.70175905  0.07359381  1  0  -0.757532  0  2.046682  0  0  -0.712779  0  2.321245  0  0  -0.734423  0  2.30471  0  -1.334461  0  -0.399207  -0.687009  0  2.333274  0
O  O96  1  0.12165957  0.77232849  0.21041769  1  0  -0.65689  0  1.966421  0  0  -0.598621  0  2.200207  0  0  -0.620121  0  2.186647  0  -1.332917  0  -0.325952  -0.584091  0  2.210533  0
O  O97  1  0.87833408  0.22767256  0.78957592  1  0  -0.656891  0  1.966478  0  0  -0.598631  0  2.200293  0  0  -0.620127  0  2.186731  0  -1.332763  0  -0.325997  -0.5841  0  2.210626  0
O  O98  1  0.37672534  0.81426123  0.34298027  1  0  -0.657739  0  1.925794  0  0  -0.619793  0  2.186759  0  0  -0.639074  0  2.170965  0  -1.339659  0  -0.335375  -0.606228  0  2.197332  0
O  O99  1  0.62327646  0.18573882  0.65701026  1  0  -0.657764  0  1.925785  0  0  -0.61981  0  2.186745  0  0  -0.639097  0  2.170961  0  -1.339789  0  -0.335338  -0.60625  0  2.197332  0
O  O100  1  0.51770732  0.40853966  0.10823885  1  0  -0.772495  0  2.135992  0  0  -0.737799  0  2.406917  0  0  -0.76239  0  2.39528  0  -1.200852  0  -0.39445  -0.707731  0  2.41318  0
O  O101  1  0.48228961  0.59145739  0.89175624  1  0  -0.772594  0  2.135996  0  0  -0.737805  0  2.406826  0  0  -0.762397  0  2.39519  0  -1.200825  0  -0.394408  -0.707744  0  2.41309  0
O  O102  1  0.45660710  0.33370510  0.83541694  1  0  -0.784704  0  2.109566  0  0  -0.743133  0  2.392871  0  0  -0.764004  0  2.375319  0  -1.35119  0  -0.408189  -0.7174  0  2.404937  0
O  O103  1  0.54338874  0.66629195  0.16458125  1  0  -0.784674  0  2.109655  0  0  -0.743051  0  2.392913  0  0  -0.763919  0  2.375359  0  -1.35128  0  -0.408134  -0.71732  0  2.404979  0
O  O104  1  0.18887179  0.14905554  0.74384221  1  0  -0.653129  0  1.958435  0  0  -0.602629  0  2.221462  0  0  -0.624649  0  2.206693  0  -1.335842  0  -0.323165  -0.587498  0  2.232427  0
O  O105  1  0.81112460  0.85093851  0.25615965  1  0  -0.653047  0  1.95837  0  0  -0.602553  0  2.221444  0  0  -0.624566  0  2.206668  0  -1.335955  0  -0.323123  -0.58741  0  2.232383  0
O  O106  1  0.73453722  0.42547825  0.04608665  1  0  -0.727025  0  2.054507  0  0  -0.68358  0  2.303094  0  0  -0.708521  0  2.292166  0  -1.186189  0  -0.377102  -0.65715  0  2.311753  0
O  O107  1  0.26545809  0.57451381  0.95390829  1  0  -0.727059  0  2.054437  0  0  -0.683589  0  2.303076  0  0  -0.708521  0  2.292129  0  -1.186235  0  -0.37708  -0.657157  0  2.311733  0
O  O108  1  0.01745451  0.37224912  0.00949486  1  0  -0.907798  0  1.883132  0  0  -0.869527  0  2.084341  0  0  -0.886966  0  2.051756  0  -1.272708  0  -0.638926  -0.848413  0  2.111985  0
O  O109  1  0.98253972  0.62774293  0.99049993  1  0  -0.907709  0  1.883332  0  0  -0.869431  0  2.084469  0  0  -0.88687  0  2.051892  0  -1.272657  0  -0.638871  -0.848321  0  2.112109  0
