# generated using pymatgen
data_ZnH8(C4N3)4
_symmetry_space_group_name_H-M   'P 1'
_cell_length_a   8.06291759
_cell_length_b   8.78708314
_cell_length_c   23.06675047
_cell_angle_alpha   90.00002815
_cell_angle_beta   90.00003425
_cell_angle_gamma   89.99972136
_symmetry_Int_Tables_number   1
_chemical_formula_structural   ZnH8(C4N3)4
_chemical_formula_sum   'Zn4 H32 C64 N48'
_cell_volume   1634.26836423
_cell_formula_units_Z   4
loop_
 _symmetry_equiv_pos_site_id
 _symmetry_equiv_pos_as_xyz
  1  'x, y, z'
loop_
 _atom_site_type_symbol
 _atom_site_label
 _atom_site_symmetry_multiplicity
 _atom_site_fract_x
 _atom_site_fract_y
 _atom_site_fract_z
 _atom_site_occupancy
 _atom_site_hle17_bader_spin_density
 _atom_site_hle17_ddec_charge
 _atom_site_hle17_ddec_spin_density
 _atom_site_hle17_ddec_sum_bond_order
 _atom_site_hle17_magmom
 _atom_site_pbe_bader_spin_density
 _atom_site_pbe_cm5_charge
 _atom_site_pbe_ddec_charge
 _atom_site_pbe_ddec_spin_density
 _atom_site_pbe_ddec_sum_bond_order
 _atom_site_pbe_magmom
Zn  Zn0  1  0.33918573  0.00241023  0.95961375  1  0  0.811674  0  2.059875  0  0  0.713671  0.566377  0  2.54623  0
Zn  Zn1  1  0.16081423  0.99759037  0.45961275  1  0  0.811597  0  2.059952  0  0  0.713652  0.566328  0  2.546293  0
Zn  Zn2  1  0.66081576  0.50240906  0.54038746  1  0  0.811699  0  2.059837  0  0  0.71366  0.566424  0  2.546178  0
Zn  Zn3  1  0.83918874  0.49759217  0.04038597  1  0  0.811713  0  2.059863  0  0  0.713676  0.566424  0  2.546238  0
H  H4  1  0.23519716  0.92723712  0.73894685  1  0  0.102373  0  0.996609  0  0  0.105501  0.113023  0  1.051842  0
H  H5  1  0.26479250  0.07276433  0.23894656  1  0  0.102421  0  0.996548  0  0  0.105494  0.113076  0  1.051787  0
H  H6  1  0.76480332  0.42723954  0.76105357  1  0  0.102428  0  0.996604  0  0  0.10552  0.113087  0  1.051831  0
H  H7  1  0.73519535  0.57277336  0.26105381  1  0  0.10239  0  0.996485  0  0  0.105495  0.113044  0  1.051727  0
H  H8  1  0.36539395  0.16763093  0.70734329  1  0  0.100471  0  0.947351  0  0  0.110335  0.104026  0  1.017592  0
H  H9  1  0.13459565  0.83237275  0.20734009  1  0  0.100453  0  0.947218  0  0  0.110277  0.104005  0  1.017467  0
H  H10  1  0.63460294  0.66763248  0.79265924  1  0  0.100453  0  0.947241  0  0  0.110277  0.103985  0  1.017505  0
H  H11  1  0.86539331  0.33237932  0.29265990  1  0  0.100498  0  0.94742  0  0  0.110332  0.1041  0  1.017587  0
H  H12  1  0.48725019  0.34217555  0.78302628  1  0  0.105639  0  0.96729  0  0  0.107051  0.11091  0  1.031699  0
H  H13  1  0.01274699  0.65782254  0.28302302  1  0  0.105554  0  0.967235  0  0  0.107017  0.110821  0  1.031642  0
H  H14  1  0.51274826  0.84217640  0.71697585  1  0  0.105579  0  0.967328  0  0  0.107032  0.110853  0  1.031725  0
H  H15  1  0.98724166  0.15782847  0.21697736  1  0  0.105567  0  0.967385  0  0  0.107031  0.11085  0  1.031767  0
H  H16  1  0.49725930  0.25140030  0.88581362  1  0  0.083844  0  0.957202  0  0  0.117658  0.07966  0  1.038819  0
H  H17  1  0.00274673  0.74860020  0.38581081  1  0  0.083929  0  0.957346  0  0  0.117644  0.079719  0  1.038937  0
H  H18  1  0.50274831  0.75139993  0.61418763  1  0  0.083918  0  0.95732  0  0  0.11766  0.079707  0  1.038946  0
H  H19  1  0.99725259  0.24859912  0.11419133  1  0  0.08392  0  0.957211  0  0  0.117663  0.079715  0  1.038847  0
H  H20  1  0.97273317  0.83038992  0.74628085  1  0  0.108958  0  0.972337  0  0  0.104854  0.114115  0  1.036805  0
H  H21  1  0.52726920  0.16960931  0.24628487  1  0  0.108979  0  0.972384  0  0  0.104848  0.114116  0  1.036868  0
H  H22  1  0.02726534  0.33038766  0.75371782  1  0  0.108965  0  0.972359  0  0  0.104851  0.114128  0  1.036817  0
H  H23  1  0.47272062  0.66961267  0.25371595  1  0  0.108975  0  0.972252  0  0  0.104846  0.114071  0  1.036808  0
H  H24  1  0.95158211  0.76372614  0.64285101  1  0  0.09921  0  0.996669  0  0  0.106074  0.102074  0  1.067167  0
H  H25  1  0.54843497  0.23626385  0.14285418  1  0  0.099212  0  0.996573  0  0  0.106044  0.102028  0  1.067138  0
H  H26  1  0.04841551  0.26372733  0.85714764  1  0  0.099177  0  0.996687  0  0  0.106078  0.102059  0  1.067161  0
H  H27  1  0.45157186  0.73627541  0.35714665  1  0  0.09919  0  0.996744  0  0  0.106077  0.102078  0  1.067203  0
H  H28  1  0.12840172  0.54805683  0.60364816  1  0  0.109298  0  0.927114  0  0  0.10588  0.117206  0  0.981604  0
H  H29  1  0.37161747  0.45193192  0.10364840  1  0  0.109326  0  0.927159  0  0  0.105904  0.117224  0  0.98165  0
H  H30  1  0.87160077  0.04805896  0.89635088  1  0  0.109304  0  0.927141  0  0  0.105897  0.117227  0  0.981614  0
H  H31  1  0.62839442  0.95193591  0.39635247  1  0  0.109347  0  0.927164  0  0  0.10589  0.117207  0  0.981704  0
H  H32  1  0.30962191  0.40676613  0.67305326  1  0  0.067178  0  0.96976  0  0  0.104727  0.066768  0  1.047867  0
H  H33  1  0.19038871  0.59322612  0.17305002  1  0  0.06721  0  0.969776  0  0  0.10473  0.066793  0  1.047888  0
H  H34  1  0.69037495  0.90677089  0.82694585  1  0  0.067168  0  0.969753  0  0  0.104742  0.066799  0  1.047836  0
H  H35  1  0.80961888  0.09322275  0.32694818  1  0  0.067172  0  0.969715  0  0  0.104691  0.06671  0  1.047908  0
C  C36  1  0.12635301  0.75548819  0.00622809  1  0  0.237454  0  3.811653  0  0  0.207021  0.205968  0  4.062951  0
C  C37  1  0.37364865  0.24450840  0.50622741  1  0  0.237488  0  3.811509  0  0  0.207054  0.205966  0  4.0629  0
C  C38  1  0.87365124  0.25548816  0.49377144  1  0  0.237269  0  3.811716  0  0  0.206953  0.205802  0  4.063037  0
C  C39  1  0.62635155  0.74451139  0.99377123  1  0  0.237493  0  3.81154  0  0  0.207004  0.205873  0  4.062992  0
C  C40  1  0.11604576  0.42921219  0.94981264  1  0  0.242333  0  3.767626  0  0  0.22044  0.212552  0  4.025914  0
C  C41  1  0.38395294  0.57078726  0.44981421  1  0  0.242344  0  3.767565  0  0  0.22047  0.212554  0  4.025852  0
C  C42  1  0.88395719  0.92921004  0.55018647  1  0  0.242385  0  3.767593  0  0  0.220473  0.212603  0  4.025876  0
C  C43  1  0.61604609  0.07078779  0.05018703  1  0  0.242214  0  3.767816  0  0  0.220383  0.212492  0  4.026016  0
C  C44  1  0.13590257  0.71842188  0.94481890  1  0  0.128241  0  3.740448  0  0  0.137812  0.111658  0  3.980303  0
C  C45  1  0.36409737  0.28157756  0.44481738  1  0  0.128044  0  3.740523  0  0  0.137715  0.111425  0  3.980501  0
C  C46  1  0.86410150  0.21841904  0.55518104  1  0  0.128215  0  3.740385  0  0  0.137771  0.111574  0  3.980336  0
C  C47  1  0.63591046  0.78158107  0.05518043  1  0  0.128175  0  3.740626  0  0  0.137837  0.111698  0  3.980418  0
C  C48  1  0.12004886  0.57452545  0.91849051  1  0  0.129186  0  3.724912  0  0  0.144434  0.118207  0  3.976844  0
C  C49  1  0.37994854  0.42547395  0.41849075  1  0  0.129261  0  3.724756  0  0  0.144464  0.118304  0  3.976705  0
C  C50  1  0.87995225  0.07452486  0.58150897  1  0  0.129212  0  3.724938  0  0  0.144412  0.118234  0  3.97688  0
C  C51  1  0.62004860  0.92547643  0.08150881  1  0  0.129156  0  3.724998  0  0  0.144384  0.118122  0  3.976922  0
C  C52  1  0.16521080  0.68475300  0.82784144  1  0  0.143973  0  3.659196  0  0  0.147598  0.133373  0  3.906065  0
C  C53  1  0.33479017  0.31524970  0.32784251  1  0  0.143895  0  3.659364  0  0  0.147579  0.133295  0  3.90621  0
C  C54  1  0.83479344  0.18475158  0.67215720  1  0  0.143911  0  3.659006  0  0  0.147592  0.133275  0  3.9059  0
C  C55  1  0.66520136  0.81525210  0.17215660  1  0  0.143877  0  3.6593  0  0  0.147576  0.133307  0  3.906173  0
C  C56  1  0.21001310  0.82486540  0.85492503  1  0  0.127447  0  3.669631  0  0  0.139465  0.106985  0  3.916146  0
C  C57  1  0.28998544  0.17513848  0.35492303  1  0  0.127352  0  3.6696  0  0  0.139467  0.106892  0  3.91614  0
C  C58  1  0.78999288  0.32486756  0.64507624  1  0  0.127436  0  3.669556  0  0  0.139456  0.106991  0  3.916144  0
C  C59  1  0.71001303  0.67513495  0.14507562  1  0  0.127382  0  3.669353  0  0  0.139389  0.106831  0  3.91595  0
C  C60  1  0.29315755  0.96122444  0.82961763  1  0  0.180953  0  3.723601  0  0  0.120309  0.171112  0  3.956061  0
C  C61  1  0.20683598  0.03877940  0.32962036  1  0  0.180932  0  3.72373  0  0  0.120324  0.171089  0  3.956242  0
C  C62  1  0.70684150  0.46122473  0.67038019  1  0  0.180968  0  3.723664  0  0  0.120323  0.170992  0  3.956339  0
C  C63  1  0.79315702  0.53877895  0.17038347  1  0  0.180902  0  3.723685  0  0  0.120315  0.171132  0  3.956112  0
C  C64  1  0.29402698  0.00003399  0.77083509  1  0  -0.14274  0  3.705398  0  0  -0.079935  -0.158574  0  3.936212  0
C  C65  1  0.20597017  0.99997432  0.27083020  1  0  -0.142611  0  3.704719  0  0  -0.079817  -0.158489  0  3.935566  0
C  C66  1  0.70598072  0.50003173  0.72916871  1  0  -0.142696  0  3.704847  0  0  -0.079905  -0.158521  0  3.935691  0
C  C67  1  0.79402038  0.49996861  0.22916678  1  0  -0.142624  0  3.705044  0  0  -0.079923  -0.158513  0  3.935873  0
C  C68  1  0.36574010  0.13684258  0.75316899  1  0  0.013601  0  3.687023  0  0  -0.058997  -0.008064  0  3.929404  0
C  C69  1  0.13425206  0.86314864  0.25317186  1  0  0.013566  0  3.687492  0  0  -0.05898  -0.008073  0  3.9298  0
C  C70  1  0.63425447  0.63685318  0.74682877  1  0  0.013569  0  3.687372  0  0  -0.058945  -0.008032  0  3.929652  0
C  C71  1  0.86573425  0.36315856  0.24683376  1  0  0.013413  0  3.687058  0  0  -0.059033  -0.008251  0  3.929395  0
C  C72  1  0.43621809  0.23183530  0.79449819  1  0  -0.082398  0  3.68164  0  0  -0.070705  -0.095263  0  3.922947  0
C  C73  1  0.06379026  0.76817419  0.29449236  1  0  -0.08222  0  3.682075  0  0  -0.070591  -0.095052  0  3.923263  0
C  C74  1  0.56378962  0.73182795  0.70550782  1  0  -0.082259  0  3.682045  0  0  -0.070612  -0.095122  0  3.92326  0
C  C75  1  0.93621144  0.26817009  0.20550458  1  0  -0.082279  0  3.681562  0  0  -0.070641  -0.095154  0  3.922853  0
C  C76  1  0.43878806  0.18338239  0.85201648  1  0  0.151854  0  3.679647  0  0  0.059938  0.111186  0  3.927377  0
C  C77  1  0.06121171  0.81661465  0.35201932  1  0  0.151675  0  3.679421  0  0  0.059905  0.111058  0  3.927088  0
C  C78  1  0.56121371  0.68338863  0.64798129  1  0  0.151783  0  3.679345  0  0  0.059932  0.11114  0  3.927024  0
C  C79  1  0.93878105  0.31662184  0.14798673  1  0  0.151914  0  3.679568  0  0  0.059955  0.111247  0  3.927321  0
C  C80  1  0.15483493  0.65440161  0.76431363  1  0  0.166738  0  3.787252  0  0  0.117239  0.165303  0  4.018574  0
C  C81  1  0.34516717  0.34559987  0.26431385  1  0  0.16663  0  3.7874  0  0  0.11719  0.165278  0  4.018585  0
C  C82  1  0.84516203  0.15439682  0.73568587  1  0  0.16674  0  3.787314  0  0  0.117176  0.165367  0  4.018557  0
C  C83  1  0.65482792  0.84559670  0.23568614  1  0  0.166719  0  3.78708  0  0  0.117207  0.165305  0  4.018359  0
C  C84  1  0.04849600  0.73865390  0.72879974  1  0  -0.156231  0  3.731879  0  0  -0.085748  -0.164347  0  3.955448  0
C  C85  1  0.45151224  0.26133956  0.22880300  1  0  -0.156207  0  3.731801  0  0  -0.08575  -0.164335  0  3.955315  0
C  C86  1  0.95150052  0.23865323  0.77119848  1  0  -0.156257  0  3.731711  0  0  -0.085768  -0.164397  0  3.955266  0
C  C87  1  0.54848453  0.76134944  0.27119784  1  0  -0.156198  0  3.731717  0  0  -0.085729  -0.164291  0  3.955313  0
C  C88  1  0.03678069  0.70064810  0.67035067  1  0  -0.002059  0  3.71597  0  0  -0.073086  -0.023696  0  3.952925  0
C  C89  1  0.46323117  0.29934415  0.17035350  1  0  -0.002085  0  3.715798  0  0  -0.073038  -0.023676  0  3.952715  0
C  C90  1  0.96321727  0.20064405  0.82964927  1  0  -0.002003  0  3.71592  0  0  -0.073047  -0.023644  0  3.952869  0
C  C91  1  0.53676540  0.79935074  0.32964778  1  0  -0.002009  0  3.715731  0  0  -0.073019  -0.023652  0  3.952634  0
C  C92  1  0.13249076  0.58089255  0.64920898  1  0  -0.113102  0  3.715151  0  0  -0.08668  -0.122902  0  3.953469  0
C  C93  1  0.36752851  0.41909740  0.14920922  1  0  -0.113024  0  3.714877  0  0  -0.086679  -0.122817  0  3.95315  0
C  C94  1  0.86750659  0.08089464  0.85079007  1  0  -0.113154  0  3.71528  0  0  -0.086728  -0.122975  0  3.953624  0
C  C95  1  0.63248479  0.91911042  0.35079165  1  0  -0.113184  0  3.71507  0  0  -0.086717  -0.122949  0  3.953367  0
C  C96  1  0.23328206  0.50161917  0.68814988  1  0  0.10515  0  3.755399  0  0  0.036869  0.079649  0  4.003666  0
C  C97  1  0.26672735  0.49837424  0.18815011  1  0  0.105036  0  3.755131  0  0  0.036858  0.07955  0  4.003384  0
C  C98  1  0.76671571  0.00161938  0.81184959  1  0  0.10523  0  3.755271  0  0  0.036898  0.079682  0  4.003543  0
C  C99  1  0.73327437  0.99837424  0.31185034  1  0  0.105247  0  3.755661  0  0  0.03694  0.079793  0  4.003852  0
N  N100  1  0.21739792  0.87215243  0.02726229  1  0  -0.306326  0  3.180442  0  0  -0.22612  -0.236829  0  3.467963  0
N  N101  1  0.28260129  0.12784532  0.52726200  1  0  -0.30628  0  3.180348  0  0  -0.22611  -0.236778  0  3.467894  0
N  N102  1  0.78260323  0.37215164  0.47273814  1  0  -0.306253  0  3.180329  0  0  -0.226083  -0.236758  0  3.467839  0
N  N103  1  0.71739953  0.62784788  0.97273663  1  0  -0.306356  0  3.180384  0  0  -0.226131  -0.236831  0  3.467946  0
N  N104  1  0.18384310  0.87916511  0.08418708  1  0  -0.077027  0  2.912324  0  0  -0.100735  -0.077645  0  3.19649  0
N  N105  1  0.31615497  0.12083841  0.58418723  1  0  -0.077099  0  2.912158  0  0  -0.100776  -0.077708  0  3.196317  0
N  N106  1  0.81615677  0.37915954  0.41581335  1  0  -0.077096  0  2.912311  0  0  -0.100794  -0.077697  0  3.196456  0
N  N107  1  0.68384465  0.62083763  0.91581140  1  0  -0.077088  0  2.912175  0  0  -0.100761  -0.077684  0  3.196303  0
N  N108  1  0.07561955  0.77117617  0.09713730  1  0  -0.092871  0  2.936107  0  0  -0.098674  -0.084971  0  3.233617  0
N  N109  1  0.42438227  0.22882737  0.59713706  1  0  -0.092771  0  2.93604  0  0  -0.098602  -0.084851  0  3.233512  0
N  N110  1  0.92438338  0.27117010  0.40286311  1  0  -0.092825  0  2.936127  0  0  -0.098602  -0.084928  0  3.233629  0
N  N111  1  0.57561802  0.72882705  0.90286202  1  0  -0.092811  0  2.935954  0  0  -0.098617  -0.084901  0  3.23344  0
N  N112  1  0.03746852  0.69130444  0.04880278  1  0  -0.300839  0  3.101475  0  0  -0.217905  -0.241648  0  3.377909  0
N  N113  1  0.46253570  0.30869221  0.54880170  1  0  -0.300943  0  3.101511  0  0  -0.217973  -0.241756  0  3.377988  0
N  N114  1  0.96253607  0.19130282  0.45119761  1  0  -0.300689  0  3.10155  0  0  -0.217851  -0.241496  0  3.377959  0
N  N115  1  0.53746665  0.80869668  0.95119740  1  0  -0.300784  0  3.101399  0  0  -0.21788  -0.241568  0  3.37787  0
N  N116  1  0.02977689  0.38734073  0.99758399  1  0  -0.296969  0  3.214804  0  0  -0.225575  -0.21895  0  3.50138  0
N  N117  1  0.47022437  0.61266106  0.49758515  1  0  -0.296991  0  3.214736  0  0  -0.225607  -0.218969  0  3.501305  0
N  N118  1  0.97022504  0.88733813  0.50241555  1  0  -0.296958  0  3.214748  0  0  -0.225595  -0.218935  0  3.501303  0
N  N119  1  0.52977567  0.11266078  0.00241696  1  0  -0.296904  0  3.214799  0  0  -0.225564  -0.218891  0  3.501331  0
N  N120  1  0.07216803  0.24279031  0.00903121  1  0  -0.051039  0  2.884723  0  0  -0.088188  -0.061546  0  3.163389  0
N  N121  1  0.42783239  0.75721311  0.50903237  1  0  -0.051074  0  2.884678  0  0  -0.088202  -0.061578  0  3.163333  0
N  N122  1  0.92783381  0.74278740  0.49096746  1  0  -0.051059  0  2.884487  0  0  -0.088171  -0.061561  0  3.163148  0
N  N123  1  0.57216774  0.25720987  0.99096758  1  0  -0.051071  0  2.884582  0  0  -0.088194  -0.061577  0  3.163248  0
N  N124  1  0.18083558  0.20106923  0.96907889  1  0  -0.099005  0  3.203884  0  0  -0.099965  -0.041315  0  3.506413  0
N  N125  1  0.31916563  0.79893252  0.46907918  1  0  -0.099016  0  3.203935  0  0  -0.099981  -0.041332  0  3.506466  0
N  N126  1  0.81916609  0.70106734  0.53092019  1  0  -0.099062  0  3.203642  0  0  -0.100042  -0.041397  0  3.506201  0
N  N127  1  0.68083591  0.29893160  0.03091993  1  0  -0.098998  0  3.20381  0  0  -0.099989  -0.041324  0  3.50636  0
N  N128  1  0.21046349  0.31353991  0.93161242  1  0  -0.255387  0  2.988492  0  0  -0.199341  -0.233397  0  3.255175  0
N  N129  1  0.28953642  0.68646065  0.43161312  1  0  -0.255364  0  2.98852  0  0  -0.199314  -0.233369  0  3.255201  0
N  N130  1  0.78953883  0.81353820  0.56838754  1  0  -0.255397  0  2.988422  0  0  -0.199293  -0.23339  0  3.255104  0
N  N131  1  0.71046323  0.18646421  0.06838727  1  0  -0.255343  0  2.98855  0  0  -0.199255  -0.233348  0  3.255189  0
N  N132  1  0.18643356  0.83575192  0.91219924  1  0  -0.317457  0  3.292821  0  0  -0.300255  -0.249422  0  3.548118  0
N  N133  1  0.31356507  0.16424634  0.41219942  1  0  -0.31723  0  3.292556  0  0  -0.300207  -0.249216  0  3.547909  0
N  N134  1  0.81356740  0.33575163  0.58780073  1  0  -0.317402  0  3.292657  0  0  -0.300241  -0.249343  0  3.547978  0
N  N135  1  0.68643718  0.66425422  0.08779793  1  0  -0.317345  0  3.292617  0  0  -0.300212  -0.249315  0  3.547904  0
N  N136  1  0.13008739  0.56358092  0.86061760  1  0  -0.258055  0  3.020987  0  0  -0.267069  -0.236297  0  3.283437  0
N  N137  1  0.36991240  0.43642182  0.36061654  1  0  -0.257954  0  3.020824  0  0  -0.267027  -0.236196  0  3.28327  0
N  N138  1  0.86991625  0.06357475  0.63938144  1  0  -0.258014  0  3.020834  0  0  -0.266996  -0.236218  0  3.283266  0
N  N139  1  0.63008221  0.93642092  0.13938303  1  0  -0.25794  0  3.021023  0  0  -0.267015  -0.236172  0  3.283459  0
N  N140  1  0.36852354  0.05264293  0.86911943  1  0  -0.329679  0  3.25227  0  0  -0.315767  -0.242957  0  3.503462  0
N  N141  1  0.13148867  0.94736665  0.36911711  1  0  -0.329698  0  3.252679  0  0  -0.315834  -0.24299  0  3.503824  0
N  N142  1  0.63148885  0.55263973  0.63088222  1  0  -0.32979  0  3.252549  0  0  -0.315861  -0.243016  0  3.503719  0
N  N143  1  0.86851580  0.44736162  0.13088116  1  0  -0.329804  0  3.252549  0  0  -0.315788  -0.243071  0  3.503655  0
N  N144  1  0.24384768  0.53537669  0.74470879  1  0  -0.334432  0  3.080623  0  0  -0.312165  -0.292399  0  3.331662  0
N  N145  1  0.25615811  0.46461793  0.24470857  1  0  -0.334361  0  3.080808  0  0  -0.312164  -0.292361  0  3.331815  0
N  N146  1  0.75614868  0.03537574  0.75528982  1  0  -0.334431  0  3.080652  0  0  -0.312144  -0.292416  0  3.331685  0
N  N147  1  0.74384502  0.96462236  0.25529317  1  0  -0.334522  0  3.080773  0  0  -0.312202  -0.292498  0  3.331792  0
