# generated using pymatgen
data_Zn4H24C36N4O13
_symmetry_space_group_name_H-M   'P 1'
_cell_length_a   18.37562083
_cell_length_b   18.37562825
_cell_length_c   25.22493465
_cell_angle_alpha   68.64255177
_cell_angle_beta   68.64267056
_cell_angle_gamma   90.00708456
_symmetry_Int_Tables_number   1
_chemical_formula_structural   Zn4H24C36N4O13
_chemical_formula_sum   'Zn8 H48 C72 N8 O26'
_cell_volume   7300.81443457
_cell_formula_units_Z   2
loop_
 _symmetry_equiv_pos_site_id
 _symmetry_equiv_pos_as_xyz
  1  'x, y, z'
loop_
 _atom_site_type_symbol
 _atom_site_label
 _atom_site_symmetry_multiplicity
 _atom_site_fract_x
 _atom_site_fract_y
 _atom_site_fract_z
 _atom_site_occupancy
 _atom_site_pbe_bader_charge
 _atom_site_pbe_bader_spin_density
 _atom_site_pbe_cm5_charge
 _atom_site_pbe_ddec_charge
 _atom_site_pbe_ddec_spin_density
 _atom_site_pbe_ddec_sum_bond_order
 _atom_site_pbe_magmom
Zn  Zn0  1  0.22724472  0.63704154  0.55284516  1  1.314473  0  0.670972  0.96475  0  2.373075  0
Zn  Zn1  1  0.78002087  0.36298966  0.44716014  1  1.318482  0  0.67093  0.964325  0  2.373786  0
Zn  Zn2  1  0.63701310  0.21997941  0.55283932  1  1.318424  0  0.670889  0.964319  0  2.373972  0
Zn  Zn3  1  0.36295395  0.77275271  0.44715819  1  1.314483  0  0.670922  0.964702  0  2.373081  0
Zn  Zn4  1  0.21992092  0.81018175  0.55283501  1  1.307055  0  0.670689  0.963959  0  2.37362  0
Zn  Zn5  1  0.77282419  0.18983000  0.44716392  1  1.305558  0  0.670501  0.963891  0  2.374212  0
Zn  Zn6  1  0.81016843  0.22717597  0.55283384  1  1.305563  0  0.670483  0.963865  0  2.37437  0
Zn  Zn7  1  0.18981902  0.78007702  0.44716689  1  1.306888  0  0.670669  0.963966  0  2.373672  0
H  H8  1  0.95860416  0.44852855  0.25795530  1  0.079341  0  0.104726  0.108801  0  0.994642  0
H  H9  1  0.21905405  0.55443357  0.74198471  1  0.092024  0  0.104467  0.108742  0  0.993889  0
H  H10  1  0.44556851  0.78095039  0.25801393  1  0.092383  0  0.104449  0.108767  0  0.993861  0
H  H11  1  0.55147342  0.04139917  0.74204565  1  0.079483  0  0.104724  0.108778  0  0.994648  0
H  H12  1  0.78348380  0.29356101  0.25793157  1  0.069318  0  0.104465  0.108501  0  0.995033  0
H  H13  1  0.03890523  0.70356920  0.74203686  1  0.075944  0  0.10433  0.108277  0  0.99473  0
H  H14  1  0.29643092  0.96109594  0.25796591  1  0.075874  0  0.104326  0.108232  0  0.99481  0
H  H15  1  0.70644153  0.21651982  0.74206757  1  0.069197  0  0.104443  0.108464  0  0.995026  0
H  H16  1  0.07325617  0.45720073  0.57062949  1  0.091095  0  0.10863  0.114184  0  0.993121  0
H  H17  1  0.93035415  0.54722628  0.42987009  1  0.100293  0  0.108651  0.114091  0  0.992934  0
H  H18  1  0.45716421  0.35612626  0.57063636  1  0.128361  0  0.108812  0.114111  0  0.99295  0
H  H19  1  0.54720042  0.63982138  0.42989700  1  0.121428  0  0.108855  0.114352  0  0.992998  0
H  H20  1  0.35610086  0.97213725  0.57064105  1  0.107938  0  0.108733  0.114332  0  0.993332  0
H  H21  1  0.63977545  0.02294714  0.42985923  1  0.086145  0  0.10866  0.114304  0  0.993568  0
H  H22  1  0.97219570  0.07323054  0.57062602  1  0.094458  0  0.108659  0.114222  0  0.992943  0
H  H23  1  0.02298131  0.93036927  0.42982930  1  0.09955  0  0.108498  0.113723  0  0.992949  0
H  H24  1  0.64387089  0.54283943  0.42936549  1  0.12845  0  0.108796  0.114047  0  0.993011  0
H  H25  1  0.36017830  0.45279336  0.57010602  1  0.121373  0  0.108803  0.11428  0  0.993035  0
H  H26  1  0.02786719  0.64390038  0.42936028  1  0.107978  0  0.108759  0.114384  0  0.993271  0
H  H27  1  0.97704911  0.36022239  0.57014166  1  0.086169  0  0.108685  0.114333  0  0.993465  0
H  H28  1  0.92677094  0.02780279  0.42937082  1  0.094251  0  0.108652  0.114156  0  0.992954  0
H  H29  1  0.06963122  0.97702205  0.57017089  1  0.099825  0  0.108486  0.11374  0  0.992942  0
H  H30  1  0.54279659  0.92674047  0.42937287  1  0.091136  0  0.108615  0.114203  0  0.99299  0
H  H31  1  0.45277866  0.06964737  0.57012953  1  0.100276  0  0.108661  0.11408  0  0.992906  0
H  H32  1  0.01853117  0.50324634  0.14307754  1  0.021274  0  0.098763  0.100758  0  1.000926  0
H  H33  1  0.16415709  0.49995780  0.85681861  1  0.051851  0  0.09821  0.100226  0  0.999972  0
H  H34  1  0.50004375  0.83585032  0.14318067  1  0.052038  0  0.098259  0.100304  0  0.999968  0
H  H35  1  0.49675031  0.98147381  0.85692377  1  0.02125  0  0.098763  0.100794  0  1.000918  0
H  H36  1  0.83841833  0.35369619  0.14306830  1  0.051585  0  0.098349  0.099968  0  1.000983  0
H  H37  1  0.97900803  0.64320835  0.85688988  1  0.056763  0  0.098327  0.100194  0  1.000471  0
H  H38  1  0.35678940  0.02099445  0.14311337  1  0.056836  0  0.098294  0.100165  0  1.000495  0
H  H39  1  0.64630377  0.16158863  0.85693046  1  0.051366  0  0.098343  0.099917  0  1.001111  0
H  H40  1  0.02512638  0.31133313  0.05533963  1  0.397523  0  0.286662  0.270209  0  0.965721  0
H  H41  1  0.93570820  0.30447937  0.05674648  1  0.391009  0  0.28502  0.264095  0  0.974677  0
H  H42  1  0.07462172  0.69049167  0.94468499  1  0.394133  0  0.286728  0.270192  0  0.965855  0
H  H43  1  0.98647235  0.69412516  0.94322920  1  0.387252  0  0.285351  0.264479  0  0.975177  0
H  H44  1  0.30951077  0.92538764  0.05531558  1  0.393881  0  0.286633  0.270048  0  0.965931  0
H  H45  1  0.30587274  0.01353515  0.05677300  1  0.387061  0  0.28533  0.26446  0  0.975251  0
H  H46  1  0.68866868  0.97488545  0.94464778  1  0.397416  0  0.286631  0.270116  0  0.965513  0
H  H47  1  0.69551887  0.06429179  0.94326594  1  0.391011  0  0.285037  0.263961  0  0.974853  0
H  H48  1  0.91951640  0.63326942  0.05539663  1  0.390408  0  0.28671  0.270476  0  0.965782  0
H  H49  1  0.00757800  0.63886140  0.05670328  1  0.393417  0  0.285542  0.264423  0  0.975386  0
H  H50  1  0.98070729  0.36484640  0.94469878  1  0.38926  0  0.28682  0.270821  0  0.965591  0
H  H51  1  0.07033066  0.36261829  0.94319786  1  0.378545  0  0.285556  0.264827  0  0.974836  0
H  H52  1  0.63512245  0.01929894  0.05533470  1  0.389478  0  0.286775  0.270781  0  0.965803  0
H  H53  1  0.63741593  0.92970889  0.05676719  1  0.37934  0  0.285418  0.264668  0  0.974962  0
H  H54  1  0.36673173  0.08049441  0.94460271  1  0.390908  0  0.286689  0.270485  0  0.965841  0
H  H55  1  0.36113643  0.99243154  0.94329963  1  0.384131  0  0.285487  0.264373  0  0.975555  0
C  C56  1  0.93325777  0.42735341  0.23235491  1  -0.135498  0  -0.087968  -0.098262  0  3.994595  0
C  C57  1  0.16699964  0.57433534  0.76757038  1  -0.088006  0  -0.087998  -0.099181  0  3.994039  0
C  C58  1  0.52824050  0.57751588  0.46031905  1  -0.029595  0  -0.080465  -0.093261  0  3.970793  0
C  C59  1  0.41829703  0.98394924  0.53993824  1  0.025723  0  -0.080292  -0.092296  0  3.972442  0
C  C60  1  0.57747426  0.01146598  0.46028735  1  -0.010847  0  -0.079666  -0.092159  0  3.971664  0
C  C61  1  0.98400299  0.04172813  0.53992865  1  0.059866  0  -0.079737  -0.091791  0  3.972335  0
C  C62  1  0.01151857  0.96223554  0.46026100  1  -0.103329  0  -0.079558  -0.091352  0  3.971391  0
C  C63  1  0.58167609  0.52393255  0.46008114  1  -0.027338  0  -0.079814  -0.090303  0  3.969066  0
C  C64  1  0.42248172  0.47175292  0.53968545  1  -0.029755  0  -0.080407  -0.093127  0  3.970527  0
C  C65  1  0.01605370  0.58170406  0.46006332  1  0.025763  0  -0.080315  -0.09236  0  3.972527  0
C  C66  1  0.98853052  0.42252613  0.53971275  1  -0.010741  0  -0.079651  -0.0921  0  3.971694  0
C  C67  1  0.95827403  0.01599805  0.46006871  1  0.059996  0  -0.079739  -0.091714  0  3.972423  0
C  C68  1  0.42566668  0.83300406  0.23242993  1  -0.088295  0  -0.088059  -0.099166  0  3.994015  0
C  C69  1  0.03776761  0.98848239  0.53973746  1  -0.103576  0  -0.079556  -0.091437  0  3.971406  0
C  C70  1  0.52388644  0.95821394  0.46009249  1  -0.015263  0  -0.080026  -0.091852  0  3.971916  0
C  C71  1  0.47174595  0.03776856  0.53970682  1  -0.069199  0  -0.079898  -0.092188  0  3.970434  0
C  C72  1  0.04178423  0.47610963  0.53991035  1  -0.015541  0  -0.080068  -0.091821  0  3.971695  0
C  C73  1  0.96223149  0.52825732  0.46029275  1  -0.069377  0  -0.07984  -0.092069  0  3.970299  0
C  C74  1  0.47607052  0.41832347  0.53992023  1  -0.027302  0  -0.079901  -0.090507  0  3.969328  0
C  C75  1  0.57264753  0.06674472  0.76764656  1  -0.135567  0  -0.087953  -0.098176  0  3.994724  0
C  C76  1  0.94832298  0.44834969  0.50001431  1  -0.036837  0  -0.013816  -0.029734  0  3.965454  0
C  C77  1  0.83442424  0.34033399  0.23232877  1  -0.126439  0  -0.087846  -0.097879  0  3.993885  0
C  C78  1  0.05597050  0.55595098  0.49998702  1  -0.059119  0  -0.013888  -0.031719  0  3.966502  0
C  C79  1  0.44832465  0.55167347  0.50000030  1  -0.137462  0  -0.013436  -0.029621  0  3.965157  0
C  C80  1  0.55592396  0.44407416  0.50000267  1  0.002852  0  -0.014191  -0.03298  0  3.96475  0
C  C81  1  0.55165157  0.05167442  0.49998727  1  -0.03777  0  -0.013807  -0.029519  0  3.965196  0
C  C82  1  0.44404907  0.94403041  0.50001239  1  -0.059112  0  -0.01385  -0.031697  0  3.966548  0
C  C83  1  0.05167540  0.94832600  0.49999922  1  0.051148  0  -0.014318  -0.03019  0  3.966577  0
C  C84  1  0.94408668  0.05591373  0.49999919  1  -0.099556  0  -0.014271  -0.032063  0  3.967278  0
C  C85  1  0.06535965  0.65807614  0.76761895  1  -0.073362  0  -0.087695  -0.097359  0  3.993894  0
C  C86  1  0.34192447  0.93464183  0.23238275  1  -0.073421  0  -0.087716  -0.097213  0  3.993888  0
C  C87  1  0.65966806  0.16558017  0.76767044  1  -0.12655  0  -0.087827  -0.097796  0  3.993943  0
C  C88  1  0.93267323  0.43267827  0.13467504  1  0.070721  0  -0.001414  0.108414  0  3.9724  0
C  C89  1  0.06738944  0.56737164  0.86528288  1  0.065294  0  -0.001603  0.107469  0  3.974651  0
C  C90  1  0.43262955  0.93261814  0.13471816  1  0.065316  0  -0.001637  0.10734  0  3.97462  0
C  C91  1  0.56732143  0.06733408  0.86532527  1  0.070797  0  -0.001336  0.108582  0  3.972279  0
C  C92  1  0.96612088  0.45832819  0.16803838  1  0.094742  0  -0.090965  -0.125726  0  3.994091  0
C  C93  1  0.13557628  0.54345538  0.83188378  1  0.019029  0  -0.090181  -0.123992  0  3.993171  0
C  C94  1  0.45654647  0.86443126  0.16811566  1  0.019145  0  -0.090139  -0.124105  0  3.99306  0
C  C95  1  0.54167006  0.03388202  0.83196349  1  0.094493  0  -0.090963  -0.125845  0  3.994159  0
C  C96  1  0.86586844  0.37368487  0.16801312  1  0.128357  0  -0.090288  -0.124506  0  3.99413  0
C  C97  1  0.03251533  0.62464929  0.83194262  1  0.063165  0  -0.090224  -0.125074  0  3.994957  0
C  C98  1  0.37534843  0.96748775  0.16806005  1  0.062958  0  -0.090154  -0.125028  0  3.995024  0
C  C99  1  0.62631575  0.13413645  0.83198567  1  0.12887  0  -0.090343  -0.124598  0  3.994566  0
C  C100  1  0.86750026  0.36748408  0.26502588  1  0.0222  0  -0.022296  -0.037282  0  3.993487  0
C  C101  1  0.13250383  0.63255277  0.73491612  1  0.009882  0  -0.022132  -0.036994  0  3.993405  0
C  C102  1  0.36745068  0.86749860  0.26508467  1  0.009872  0  -0.022116  -0.037099  0  3.993439  0
C  C103  1  0.63251806  0.13250083  0.73497428  1  0.022167  0  -0.022283  -0.03731  0  3.993407  0
C  C104  1  0.98550454  0.41760078  0.03261159  1  0.294373  0  0.069966  0.122732  0  4.028475  0
C  C105  1  0.01574947  0.58244455  0.96736906  1  0.241078  0  0.070495  0.123447  0  4.027697  0
C  C106  1  0.41755613  0.98426517  0.03263257  1  0.2411  0  0.070584  0.123261  0  4.02772  0
C  C107  1  0.58239948  0.01450658  0.96738892  1  0.294769  0  0.070013  0.122648  0  4.028438  0
C  C108  1  0.98197995  0.54981174  0.03261673  1  0.367985  0  0.070318  0.123756  0  4.029982  0
C  C109  1  0.01700263  0.45019432  0.96735620  1  0.362316  0  0.071155  0.125091  0  4.027868  0
C  C110  1  0.54980545  0.98300837  0.03264543  1  0.362254  0  0.071259  0.125097  0  4.027989  0
C  C111  1  0.45018816  0.01802959  0.96738473  1  0.368171  0  0.070178  0.123717  0  4.029886  0
C  C112  1  0.03309065  0.53301789  0.93397182  1  0.005603  0  -0.005282  -0.066125  0  3.937857  0
C  C113  1  0.96703236  0.46701813  0.06599539  1  -0.053623  0  -0.005331  -0.066165  0  3.937603  0
C  C114  1  0.53298123  0.03297566  0.93400538  1  -0.05395  0  -0.005422  -0.066208  0  3.937623  0
C  C115  1  0.46698216  0.96692321  0.06602990  1  0.005426  0  -0.005346  -0.065916  0  3.937883  0
C  C116  1  0.33297159  0.83306827  0.33386084  1  1.495884  0  0.225291  0.60622  0  4.160315  0
C  C117  1  0.66698118  0.16693886  0.66619696  1  1.497622  0  0.225274  0.606396  0  4.161899  0
C  C118  1  0.83306258  0.33302270  0.33380336  1  1.497668  0  0.225248  0.606359  0  4.161917  0
C  C119  1  0.16693205  0.66702944  0.66614058  1  1.495974  0  0.225348  0.606269  0  4.160175  0
C  C120  1  0.39081407  0.60917600  0.50000295  1  1.54813  0  0.228268  0.603192  0  4.16575  0
C  C121  1  0.61349191  0.38651335  0.49999864  1  1.551832  0  0.229397  0.606699  0  4.158612  0
C  C122  1  0.60918266  0.10917105  0.49999081  1  1.566769  0  0.227368  0.601843  0  4.169598  0
C  C123  1  0.38647598  0.88646153  0.50000222  1  1.553988  0  0.230159  0.608001  0  4.159237  0
C  C124  1  0.10917298  0.89082825  0.50000138  1  1.548063  0  0.227195  0.600104  0  4.172433  0
C  C125  1  0.88652345  0.11347550  0.49999862  1  1.556926  0  0.230734  0.609145  0  4.157209  0
C  C126  1  0.89082442  0.39082515  0.50000564  1  1.566403  0  0.227457  0.60196  0  4.169389  0
C  C127  1  0.11354005  0.61351740  0.50000136  1  1.554386  0  0.230182  0.607997  0  4.159181  0
N  N128  1  0.97315454  0.33339819  0.06674428  1  -1.142544  0  -0.615517  -0.627542  0  3.290813  0
N  N129  1  0.03511602  0.66677593  0.93324968  1  -1.137089  0  -0.615784  -0.62776  0  3.290895  0
N  N130  1  0.33322460  0.96489300  0.06675203  1  -1.136586  0  -0.615689  -0.627551  0  3.290897  0
N  N131  1  0.66660044  0.02685848  0.93325717  1  -1.142376  0  -0.615508  -0.627231  0  3.290645  0
N  N132  1  0.96016255  0.59988061  0.06674559  1  -1.132509  0  -0.615978  -0.62807  0  3.292836  0
N  N133  1  0.03167397  0.39997312  0.93324808  1  -1.102047  0  -0.616376  -0.629361  0  3.291801  0
N  N134  1  0.60002811  0.96832577  0.06675280  1  -1.103109  0  -0.616239  -0.629167  0  3.291934  0
N  N135  1  0.40011910  0.03984610  0.93325550  1  -1.123841  0  -0.61586  -0.627994  0  3.292924  0
O  O136  1  0.24996957  0.75002637  0.50000234  1  -1.216802  0  -0.574801  -1.032064  0  2.548166  0
O  O137  1  0.62236410  0.15879780  0.63920625  1  -1.167903  0  -0.319597  -0.553817  0  2.317516  0
O  O138  1  0.79793408  0.26142011  0.36075378  1  -1.179273  0  -0.319526  -0.553849  0  2.316442  0
O  O139  1  0.15834180  0.73847567  0.63920545  1  -1.177403  0  -0.319935  -0.553983  0  2.314089  0
O  O140  1  0.26152541  0.84165598  0.36079534  1  -1.177348  0  -0.319858  -0.553875  0  2.314068  0
O  O141  1  0.73857843  0.20206369  0.63924637  1  -1.179351  0  -0.319566  -0.553871  0  2.316854  0
O  O142  1  0.84120380  0.37763436  0.36079313  1  -1.168053  0  -0.319571  -0.553786  0  2.317803  0
O  O143  1  0.20254390  0.62260636  0.63914069  1  -1.170317  0  -0.319207  -0.553357  0  2.315516  0
O  O144  1  0.37739618  0.79745906  0.36086087  1  -1.170298  0  -0.319197  -0.553359  0  2.315621  0
O  O145  1  0.75000502  0.24999377  0.49999882  1  -1.217633  0  -0.574687  -1.031654  0  2.547551  0
O  O146  1  0.41928754  0.68211171  0.46736114  1  -1.172051  0  -0.314507  -0.545642  0  2.332172  0
O  O147  1  0.58745088  0.31636693  0.54115873  1  -1.178013  0  -0.314903  -0.547361  0  2.332271  0
O  O148  1  0.68208164  0.11346193  0.46725212  1  -1.170374  0  -0.313894  -0.544899  0  2.333821  0
O  O149  1  0.31636758  0.87130590  0.54119731  1  -1.180121  0  -0.315097  -0.547813  0  2.334012  0
O  O150  1  0.11334559  0.85055817  0.46734521  1  -1.171949  0  -0.313781  -0.543798  0  2.335066  0
O  O151  1  0.87146386  0.14251639  0.54112399  1  -1.18229  0  -0.315522  -0.548597  0  2.332653  0
O  O152  1  0.85068128  0.41925998  0.46724044  1  -1.172109  0  -0.314126  -0.544864  0  2.33597  0
O  O153  1  0.14246101  0.58752100  0.54120404  1  -1.167691  0  -0.315449  -0.548155  0  2.332837  0
O  O154  1  0.88653392  0.31791896  0.53274664  1  -1.170547  0  -0.313929  -0.544942  0  2.33344  0
O  O155  1  0.12869778  0.68363092  0.45880260  1  -1.179929  0  -0.315151  -0.547895  0  2.333752  0
O  O156  1  0.14943987  0.88665565  0.53265348  1  -1.17204  0  -0.313823  -0.543812  0  2.335384  0
O  O157  1  0.85748304  0.12853387  0.45887522  1  -1.182449  0  -0.31555  -0.548563  0  2.332856  0
O  O158  1  0.58074511  0.14931917  0.53275782  1  -1.17209  0  -0.31408  -0.544867  0  2.335708  0
O  O159  1  0.41247552  0.85753741  0.45879796  1  -1.16702  0  -0.315429  -0.548136  0  2.332564  0
O  O160  1  0.31788808  0.58070676  0.53264166  1  -1.172332  0  -0.314543  -0.545631  0  2.332512  0
O  O161  1  0.68362762  0.41254867  0.45884341  1  -1.178125  0  -0.314819  -0.54723  0  2.332769  0
