# generated using pymatgen
data_H12PbC13N4Cl2O
_symmetry_space_group_name_H-M   'P 1'
_cell_length_a   7.83720657
_cell_length_b   8.69682598
_cell_length_c   11.04772761
_cell_angle_alpha   100.84439866
_cell_angle_beta   93.06559966
_cell_angle_gamma   95.10534655
_symmetry_Int_Tables_number   1
_chemical_formula_structural   H12PbC13N4Cl2O
_chemical_formula_sum   'H24 Pb2 C26 N8 Cl4 O2'
_cell_volume   734.71857018
_cell_formula_units_Z   2
loop_
 _symmetry_equiv_pos_site_id
 _symmetry_equiv_pos_as_xyz
  1  'x, y, z'
loop_
 _atom_site_type_symbol
 _atom_site_label
 _atom_site_symmetry_multiplicity
 _atom_site_fract_x
 _atom_site_fract_y
 _atom_site_fract_z
 _atom_site_occupancy
 _atom_site_pbe_bader_spin_density
 _atom_site_pbe_cm5_charge
 _atom_site_pbe_ddec_charge
 _atom_site_pbe_ddec_spin_density
 _atom_site_pbe_ddec_sum_bond_order
 _atom_site_pbe_magmom
H  H0  1  0.19772844  0.85156474  0.31816313  1  0  0.11439  0.084167  0  1.003864  0
H  H1  1  0.80227496  0.14843740  0.68183717  1  0  0.114414  0.084202  0  1.003888  0
H  H2  1  0.77952814  0.74597104  0.53920462  1  0  0.096644  0.095185  0  1.067124  0
H  H3  1  0.22046848  0.25402757  0.46079492  1  0  0.096669  0.095238  0  1.067197  0
H  H4  1  0.59936119  0.89578481  0.41878378  1  0  0.102548  0.109465  0  1.011575  0
H  H5  1  0.40064286  0.10422323  0.58121921  1  0  0.10254  0.109441  0  1.011595  0
H  H6  1  0.72866870  0.01547743  0.25160116  1  0  0.103027  0.080176  0  1.027933  0
H  H7  1  0.27132906  0.98451999  0.74839554  1  0  0.103042  0.080215  0  1.027954  0
H  H8  1  0.31296918  0.63016329  0.67640366  1  0  0.291466  0.250445  0  1.015906  0
H  H9  1  0.68702744  0.36983533  0.32359770  1  0  0.291452  0.250515  0  1.015798  0
H  H10  1  0.50193791  0.19950543  0.01442141  1  0  0.101033  0.082969  0  1.047415  0
H  H11  1  0.49806229  0.80049084  0.98557973  1  0  0.101032  0.082957  0  1.047462  0
H  H12  1  0.64414790  0.33407116  0.86136056  1  0  0.105293  0.118646  0  1.005539  0
H  H13  1  0.35585153  0.66592981  0.13863943  1  0  0.105294  0.118648  0  1.005584  0
H  H14  1  0.04045545  0.37868982  0.94768570  1  0  0.113964  0.085734  0  1.035219  0
H  H15  1  0.95954117  0.62130880  0.05231566  1  0  0.113968  0.085739  0  1.035172  0
H  H16  1  0.47638120  0.50155879  0.74839742  1  0  0.101696  0.102649  0  1.030406  0
H  H17  1  0.52361736  0.49844574  0.25160848  1  0  0.101684  0.102693  0  1.030318  0
H  H18  1  0.38846867  0.72695730  0.47497209  1  0  0.090808  0.148261  0  1.023293  0
H  H19  1  0.61153178  0.27304130  0.52502487  1  0  0.090819  0.148268  0  1.023253  0
H  H20  1  0.25345418  0.61275632  0.34709230  1  0  0.097678  0.151955  0  1.024673  0
H  H21  1  0.74654653  0.38724465  0.65290683  1  0  0.09766  0.151901  0  1.024699  0
H  H22  1  0.30748138  0.53181199  0.47806900  1  0  0.097235  0.14362  0  1.012061  0
H  H23  1  0.69252317  0.46818898  0.52193118  1  0  0.097234  0.143616  0  1.01203  0
Pb  Pb24  1  0.12441620  0.15622626  0.15967492  1  0  0.5066  0.90906  0  2.120415  0
Pb  Pb25  1  0.87559167  0.84377002  0.84032742  1  0  0.506599  0.909054  0  2.120402  0
C  C26  1  0.06504047  0.85584172  0.34309971  1  0  0.051168  0.05977  0  3.930747  0
C  C27  1  0.93496074  0.14415219  0.65689841  1  0  0.051137  0.059744  0  3.930866  0
C  C28  1  0.00457046  0.78311706  0.43795479  1  0  -0.00699  -0.01714  0  3.95782  0
C  C29  1  0.99542400  0.21688509  0.56204519  1  0  -0.006961  -0.017144  0  3.957786  0
C  C30  1  0.83325685  0.79859128  0.46572754  1  0  -0.067696  -0.070155  0  3.936298  0
C  C31  1  0.16674707  0.20141557  0.53427347  1  0  -0.067758  -0.070282  0  3.936268  0
C  C32  1  0.73246603  0.88187775  0.39905886  1  0  -0.088402  -0.128438  0  3.984155  0
C  C33  1  0.26753328  0.11812204  0.60094005  1  0  -0.08841  -0.12838  0  3.984179  0
C  C34  1  0.80413592  0.94955371  0.30618726  1  0  0.045514  0.093905  0  3.961762  0
C  C35  1  0.19586876  0.05044844  0.69381491  1  0  0.045463  0.093824  0  3.961805  0
C  C36  1  0.43117964  0.27224350  0.96331677  1  0  0.054115  0.102042  0  3.936649  0
C  C37  1  0.56882223  0.72775631  0.03668495  1  0  0.054105  0.102056  0  3.93668  0
C  C38  1  0.50971267  0.34734878  0.87690442  1  0  -0.082256  -0.118498  0  3.949416  0
C  C39  1  0.49028179  0.65265337  0.12309736  1  0  -0.082273  -0.118548  0  3.949347  0
C  C40  1  0.24237620  0.45285046  0.83873081  1  0  -0.011232  -0.077095  0  3.970137  0
C  C41  1  0.75762312  0.54714934  0.16127172  1  0  -0.011278  -0.07719  0  3.970069  0
C  C42  1  0.17451579  0.37355726  0.92733313  1  0  0.061309  0.091662  0  3.908443  0
C  C43  1  0.82547636  0.62644723  0.07266438  1  0  0.061351  0.09169  0  3.908501  0
C  C44  1  0.41488564  0.43955045  0.81417492  1  0  -0.062518  -0.048034  0  3.92595  0
C  C45  1  0.58511481  0.56044817  0.18582658  1  0  -0.062507  -0.048059  0  3.925739  0
C  C46  1  0.12067286  0.53767172  0.77393278  1  0  0.240589  0.440709  0  4.134211  0
C  C47  1  0.87932760  0.46232690  0.22606781  1  0  0.240565  0.440825  0  4.134327  0
C  C48  1  0.11908772  0.69768164  0.50592093  1  0  0.145835  0.262299  0  3.91373  0
C  C49  1  0.88091402  0.30231700  0.49408243  1  0  0.145828  0.262269  0  3.91375  0
C  C50  1  0.27591788  0.63975592  0.44780558  1  0  -0.24523  -0.470734  0  3.922416  0
C  C51  1  0.72407989  0.36024151  0.55219293  1  0  -0.245226  -0.470667  0  3.922254  0
N  N52  1  0.96819176  0.93737547  0.27975662  1  0  -0.307273  -0.266626  0  3.483532  0
N  N53  1  0.03180895  0.06262550  0.72024341  1  0  -0.307231  -0.266575  0  3.483528  0
N  N54  1  0.26684218  0.28667073  0.98847313  1  0  -0.299117  -0.24087  0  3.464482  0
N  N55  1  0.73315713  0.71332906  0.01152759  1  0  -0.299125  -0.240851  0  3.464684  0
N  N56  1  0.07274924  0.67663874  0.61357115  1  0  -0.203565  -0.196913  0  3.293479  0
N  N57  1  0.92725261  0.32336103  0.38642514  1  0  -0.203484  -0.196773  0  3.293441  0
N  N58  1  0.18205797  0.60350175  0.67993360  1  0  -0.294601  -0.228156  0  3.66268  0
N  N59  1  0.81794926  0.39650038  0.32006413  1  0  -0.294613  -0.228337  0  3.662763  0
Cl  Cl60  1  0.19266297  0.88249079  0.99846671  1  0  -0.257386  -0.499642  0  1.14326  0
Cl  Cl61  1  0.80733519  0.11751017  0.00153051  1  0  -0.257391  -0.499655  0  1.14322  0
Cl  Cl62  1  0.44978872  0.20210160  0.29475399  1  0  -0.315705  -0.560254  0  0.991069  0
Cl  Cl63  1  0.55020803  0.79789819  0.70524482  1  0  -0.315714  -0.560247  0  0.991003  0
O  O64  1  0.96748569  0.53898658  0.80009712  1  0  -0.278934  -0.490163  0  2.2398  0
O  O65  1  0.03250951  0.46101084  0.19989948  1  0  -0.278891  -0.490184  0  2.239878  0
