# generated using pymatgen
data_LiH5C7O3
_symmetry_space_group_name_H-M   'P 1'
_cell_length_a   5.10533916
_cell_length_b   8.15044183
_cell_length_c   14.63543892
_cell_angle_alpha   95.39601288
_cell_angle_beta   89.99947047
_cell_angle_gamma   90.00021715
_symmetry_Int_Tables_number   1
_chemical_formula_structural   LiH5C7O3
_chemical_formula_sum   'Li4 H20 C28 O12'
_cell_volume   606.29313895
_cell_formula_units_Z   4
loop_
 _symmetry_equiv_pos_site_id
 _symmetry_equiv_pos_as_xyz
  1  'x, y, z'
loop_
 _atom_site_type_symbol
 _atom_site_label
 _atom_site_symmetry_multiplicity
 _atom_site_fract_x
 _atom_site_fract_y
 _atom_site_fract_z
 _atom_site_occupancy
 _atom_site_hle17_bader_spin_density
 _atom_site_hle17_ddec_charge
 _atom_site_hle17_ddec_spin_density
 _atom_site_hle17_ddec_sum_bond_order
 _atom_site_hle17_magmom
 _atom_site_hse06_10hf_bader_spin_density
 _atom_site_hse06_10hf_ddec_charge
 _atom_site_hse06_10hf_ddec_spin_density
 _atom_site_hse06_10hf_ddec_sum_bond_order
 _atom_site_hse06_10hf_magmom
 _atom_site_hse06_bader_spin_density
 _atom_site_hse06_ddec_charge
 _atom_site_hse06_ddec_spin_density
 _atom_site_hse06_ddec_sum_bond_order
 _atom_site_hse06_magmom
 _atom_site_pbe_bader_spin_density
 _atom_site_pbe_cm5_charge
 _atom_site_pbe_ddec_charge
 _atom_site_pbe_ddec_spin_density
 _atom_site_pbe_ddec_sum_bond_order
 _atom_site_pbe_magmom
Li  Li0  1  0.00982673  0.49364078  0.40819237  1  0  0.851707  0  0.412164  0  0  0.815671  0  0.508413  0  0  0.824704  0  0.492284  0  0  0.53924  0.809044  0  0.520131  0
Li  Li1  1  0.50984479  0.50636517  0.09181080  1  0  0.851638  0  0.412281  0  0  0.815609  0  0.508531  0  0  0.824643  0  0.4924  0  0  0.539264  0.808981  0  0.520251  0
Li  Li2  1  0.99015487  0.50635765  0.59181205  1  0  0.851622  0  0.412223  0  0  0.815606  0  0.508448  0  0  0.824636  0  0.492322  0  0  0.539228  0.808982  0  0.520164  0
Li  Li3  1  0.49019361  0.49364435  0.90819280  1  0  0.851703  0  0.412238  0  0  0.815641  0  0.508533  0  0  0.824677  0  0.492401  0  0  0.539253  0.809007  0  0.520261  0
H  H4  1  0.73738841  0.42101101  0.25989283  1  0  0.415702  0  0.894225  0  0  0.386541  0  0.956136  0  0  0.396454  0  0.941565  0  0  0.295945  0.379584  0  0.966361  0
H  H5  1  0.23739293  0.57899173  0.24010878  1  0  0.415619  0  0.894323  0  0  0.386472  0  0.95623  0  0  0.396389  0  0.941651  0  0  0.295872  0.379515  0  0.966455  0
H  H6  1  0.26261669  0.57899229  0.74010432  1  0  0.415741  0  0.8942  0  0  0.38657  0  0.956119  0  0  0.396481  0  0.941552  0  0  0.295955  0.379614  0  0.966342  0
H  H7  1  0.76262196  0.42100793  0.75989434  1  0  0.415642  0  0.894309  0  0  0.386482  0  0.956233  0  0  0.3964  0  0.941654  0  0  0.29591  0.379523  0  0.96646  0
H  H8  1  0.55852583  0.51059364  0.33850734  1  0  0.420038  0  0.889137  0  0  0.390926  0  0.950506  0  0  0.401659  0  0.934752  0  0  0.297096  0.383368  0  0.961589  0
H  H9  1  0.05852218  0.48940003  0.16148892  1  0  0.419967  0  0.889216  0  0  0.390867  0  0.950564  0  0  0.401606  0  0.934801  0  0  0.29705  0.383305  0  0.961653  0
H  H10  1  0.44147340  0.48939860  0.66149336  1  0  0.420067  0  0.889074  0  0  0.390955  0  0.95045  0  0  0.401692  0  0.934689  0  0  0.297116  0.383396  0  0.961535  0
H  H11  1  0.94151230  0.51059708  0.83850587  1  0  0.419987  0  0.889137  0  0  0.390847  0  0.95057  0  0  0.40159  0  0.9348  0  0  0.297045  0.383285  0  0.961657  0
H  H12  1  0.65228006  0.77242711  0.28566709  1  0  0.109797  0  0.94348  0  0  0.121128  0  1.003427  0  0  0.124981  0  1.00191  0  0  0.114014  0.118311  0  1.004806  0
H  H13  1  0.15230887  0.22759263  0.21432948  1  0  0.109822  0  0.943636  0  0  0.121203  0  1.003517  0  0  0.125013  0  1.002036  0  0  0.11407  0.118386  0  1.004897  0
H  H14  1  0.34768391  0.22757375  0.71433404  1  0  0.109779  0  0.94356  0  0  0.121169  0  1.003437  0  0  0.124986  0  1.001961  0  0  0.114038  0.118351  0  1.004814  0
H  H15  1  0.84771778  0.77240821  0.78566891  1  0  0.109778  0  0.943501  0  0  0.121112  0  1.003449  0  0  0.124978  0  1.001914  0  0  0.114032  0.118295  0  1.004827  0
H  H16  1  0.72776170  0.07442264  0.30317605  1  0  0.086208  0  0.972998  0  0  0.096708  0  1.03531  0  0  0.098599  0  1.035479  0  0  0.100785  0.095302  0  1.035201  0
H  H17  1  0.22777117  0.92558376  0.19682509  1  0  0.086195  0  0.972781  0  0  0.096638  0  1.035181  0  0  0.09853  0  1.035348  0  0  0.100741  0.095225  0  1.035082  0
H  H18  1  0.27220227  0.92557076  0.69681720  1  0  0.086182  0  0.973016  0  0  0.096654  0  1.035365  0  0  0.098547  0  1.035533  0  0  0.100762  0.095243  0  1.035268  0
H  H19  1  0.77221826  0.07441467  0.80317865  1  0  0.086213  0  0.972829  0  0  0.096641  0  1.035226  0  0  0.09853  0  1.035392  0  0  0.100772  0.095235  0  1.035118  0
H  H20  1  0.43845588  0.25749427  0.40257629  1  0  0.10781  0  0.968915  0  0  0.114667  0  1.034952  0  0  0.11958  0  1.031104  0  0  0.116351  0.111105  0  1.037899  0
H  H21  1  0.93846525  0.74253107  0.09742511  1  0  0.10796  0  0.968921  0  0  0.114782  0  1.03496  0  0  0.119689  0  1.031121  0  0  0.116416  0.111218  0  1.037911  0
H  H22  1  0.56154335  0.74250165  0.59742254  1  0  0.107773  0  0.969017  0  0  0.114609  0  1.035055  0  0  0.11952  0  1.031212  0  0  0.116322  0.111046  0  1.038001  0
H  H23  1  0.06154964  0.25746234  0.90256881  1  0  0.107882  0  0.969094  0  0  0.114691  0  1.035113  0  0  0.119591  0  1.031288  0  0  0.116398  0.111131  0  1.038055  0
C  C24  1  0.96278759  0.82289526  0.49693333  1  0  0.42991  0  3.746108  0  0  0.41129  0  4.005199  0  0  0.437871  0  4.004653  0  0  0.163371  0.393677  0  4.004788  0
C  C25  1  0.46278849  0.17710783  0.00305323  1  0  0.42981  0  3.745879  0  0  0.411045  0  4.005136  0  0  0.437627  0  4.004593  0  0  0.163297  0.39342  0  4.004743  0
C  C26  1  0.03719792  0.17712149  0.50305287  1  0  0.430127  0  3.746198  0  0  0.411452  0  4.005326  0  0  0.438028  0  4.004778  0  0  0.163415  0.393839  0  4.004912  0
C  C27  1  0.53725775  0.82289920  0.99694821  1  0  0.429986  0  3.74548  0  0  0.411207  0  4.004816  0  0  0.437791  0  4.004268  0  0  0.163352  0.393588  0  4.004406  0
C  C28  1  0.15431338  0.88617986  0.43664228  1  0  -0.206701  0  3.712462  0  0  -0.198455  0  3.950095  0  0  -0.214947  0  3.977015  0  0  -0.026703  -0.187753  0  3.931971  0
C  C29  1  0.65434188  0.11383382  0.06336424  1  0  -0.206748  0  3.711592  0  0  -0.198371  0  3.949107  0  0  -0.214858  0  3.976032  0  0  -0.026586  -0.187673  0  3.930979  0
C  C30  1  0.84563883  0.11381354  0.56335097  1  0  -0.206864  0  3.711829  0  0  -0.198528  0  3.949362  0  0  -0.215013  0  3.976288  0  0  -0.026569  -0.187829  0  3.931239  0
C  C31  1  0.34569065  0.88617818  0.93664222  1  0  -0.206656  0  3.71186  0  0  -0.198432  0  3.949573  0  0  -0.214919  0  3.976495  0  0  -0.026629  -0.187738  0  3.931451  0
C  C32  1  0.31548832  0.77954270  0.37551239  1  0  0.401579  0  3.79553  0  0  0.383542  0  4.054926  0  0  0.402488  0  4.067215  0  0  0.118097  0.370865  0  4.04628  0
C  C33  1  0.81552554  0.22047628  0.12449661  1  0  0.40153  0  3.796335  0  0  0.383539  0  4.055585  0  0  0.402479  0  4.067874  0  0  0.118015  0.370871  0  4.046927  0
C  C34  1  0.68445410  0.22046065  0.62449160  1  0  0.40158  0  3.796159  0  0  0.383607  0  4.055444  0  0  0.402544  0  4.067739  0  0  0.117955  0.370938  0  4.04678  0
C  C35  1  0.18451482  0.77953692  0.87550650  1  0  0.401392  0  3.795795  0  0  0.383487  0  4.055061  0  0  0.402425  0  4.067363  0  0  0.11805  0.370816  0  4.046398  0
C  C36  1  0.52479747  0.85354203  0.32940537  1  0  -0.192065  0  3.685604  0  0  -0.213726  0  3.944293  0  0  -0.222532  0  3.962454  0  0  -0.091915  -0.208093  0  3.932095  0
C  C37  1  0.02479763  0.14650208  0.17059145  1  0  -0.192478  0  3.68634  0  0  -0.214172  0  3.944941  0  0  -0.222945  0  3.963144  0  0  -0.092101  -0.208534  0  3.932728  0
C  C38  1  0.47520764  0.14647234  0.67059096  1  0  -0.192359  0  3.686236  0  0  -0.214074  0  3.944917  0  0  -0.222859  0  3.963102  0  0  -0.09205  -0.208432  0  3.932707  0
C  C39  1  0.97522118  0.85351356  0.82940905  1  0  -0.19223  0  3.685924  0  0  -0.213942  0  3.944621  0  0  -0.22276  0  3.962784  0  0  -0.092071  -0.208308  0  3.932417  0
C  C40  1  0.56579143  0.02154308  0.33895292  1  0  -0.016602  0  3.765606  0  0  -0.033587  0  4.024863  0  0  -0.029956  0  4.04371  0  0  -0.077125  -0.035411  0  4.011566  0
C  C41  1  0.06577276  0.97846170  0.16104456  1  0  -0.016104  0  3.764815  0  0  -0.033061  0  4.024047  0  0  -0.029426  0  4.042877  0  0  -0.076788  -0.034881  0  4.010743  0
C  C42  1  0.43419996  0.97843807  0.66104792  1  0  -0.016387  0  3.765316  0  0  -0.033405  0  4.024614  0  0  -0.029769  0  4.043455  0  0  -0.077022  -0.035234  0  4.011309  0
C  C43  1  0.93420884  0.02153301  0.83895695  1  0  -0.016269  0  3.765352  0  0  -0.033203  0  4.02461  0  0  -0.029564  0  4.043454  0  0  -0.07692  -0.03503  0  4.011307  0
C  C44  1  0.40105361  0.12564074  0.39475651  1  0  -0.091584  0  3.714694  0  0  -0.123214  0  3.977513  0  0  -0.12794  0  3.99763  0  0  -0.082192  -0.120305  0  3.963997  0
C  C45  1  0.90104585  0.87436849  0.10524354  1  0  -0.091851  0  3.715358  0  0  -0.123434  0  3.978167  0  0  -0.128153  0  3.998278  0  0  -0.082314  -0.120525  0  3.964652  0
C  C46  1  0.59893190  0.87435521  0.60524643  1  0  -0.091592  0  3.715326  0  0  -0.123102  0  3.978087  0  0  -0.127836  0  3.998214  0  0  -0.08216  -0.120177  0  3.964563  0
C  C47  1  0.09893575  0.12562370  0.89475170  1  0  -0.091912  0  3.715467  0  0  -0.123438  0  3.978235  0  0  -0.128161  0  3.99835  0  0  -0.082308  -0.120525  0  3.964716  0
C  C48  1  0.19761871  0.05999451  0.44289887  1  0  -0.031878  0  3.76743  0  0  -0.0203  0  4.002256  0  0  -0.022984  0  4.027797  0  0  -0.008067  -0.018322  0  3.984792  0
C  C49  1  0.69764980  0.94000328  0.05711082  1  0  -0.031836  0  3.767864  0  0  -0.020309  0  4.002765  0  0  -0.022996  0  4.028298  0  0  -0.00819  -0.01833  0  3.985304  0
C  C50  1  0.80233155  0.94000264  0.55710071  1  0  -0.031771  0  3.767626  0  0  -0.020355  0  4.002586  0  0  -0.023031  0  4.028114  0  0  -0.008231  -0.018399  0  3.985154  0
C  C51  1  0.30234355  0.05998781  0.94289871  1  0  -0.031702  0  3.767497  0  0  -0.020152  0  4.00239  0  0  -0.022837  0  4.027926  0  0  -0.008159  -0.018177  0  3.984937  0
O  O52  1  0.93035440  0.66980794  0.50258993  1  0  -0.662727  0  2.01421  0  0  -0.61675  0  2.245197  0  0  -0.632371  0  2.233084  0  0  -0.400213  -0.605985  0  2.253216  0
O  O53  1  0.43035462  0.33018529  0.99741400  1  0  -0.662563  0  2.014282  0  0  -0.61656  0  2.245352  0  0  -0.63217  0  2.233229  0  0  -0.400155  -0.605796  0  2.25338  0
O  O54  1  0.06959782  0.33018804  0.49741574  1  0  -0.662744  0  2.014535  0  0  -0.616791  0  2.24559  0  0  -0.632398  0  2.233464  0  0  -0.400279  -0.606037  0  2.253617  0
O  O55  1  0.56966615  0.66980077  0.00258503  1  0  -0.66276  0  2.013817  0  0  -0.616721  0  2.244874  0  0  -0.632341  0  2.232762  0  0  -0.400223  -0.605953  0  2.252891  0
O  O56  1  0.27794311  0.62049826  0.35936545  1  0  -0.711047  0  2.035414  0  0  -0.64861  0  2.250481  0  0  -0.673085  0  2.241952  0  0  -0.395728  -0.631412  0  2.255915  0
O  O57  1  0.77796115  0.37951806  0.14062987  1  0  -0.710864  0  2.035545  0  0  -0.6485  0  2.250603  0  0  -0.672978  0  2.242078  0  0  -0.395706  -0.631302  0  2.25603  0
O  O58  1  0.72204828  0.37949408  0.64064550  1  0  -0.710846  0  2.035472  0  0  -0.6485  0  2.250557  0  0  -0.67298  0  2.242034  0  0  -0.395624  -0.6313  0  2.255982  0
O  O59  1  0.22207725  0.62049255  0.85935876  1  0  -0.71094  0  2.035262  0  0  -0.648552  0  2.250306  0  0  -0.673035  0  2.241783  0  0  -0.395715  -0.631348  0  2.255729  0
O  O60  1  0.72259130  0.44487448  0.32738242  1  0  -0.910172  0  1.758006  0  0  -0.865801  0  1.922231  0  0  -0.882493  0  1.891279  0  0  -0.662874  -0.853938  0  1.943849  0
O  O61  1  0.22261709  0.55513800  0.17261152  1  0  -0.910067  0  1.758008  0  0  -0.865707  0  1.92216  0  0  -0.882402  0  1.891202  0  0  -0.662809  -0.853842  0  1.943776  0
O  O62  1  0.27740597  0.55512637  0.67261666  1  0  -0.910257  0  1.75791  0  0  -0.865863  0  1.922131  0  0  -0.882551  0  1.891178  0  0  -0.662932  -0.854001  0  1.943747  0
O  O63  1  0.77742523  0.44487027  0.82739135  1  0  -0.910171  0  1.757977  0  0  -0.865743  0  1.9221  0  0  -0.882439  0  1.891143  0  0  -0.662866  -0.853875  0  1.943722  0
