# generated using pymatgen
data_Zn4H24C44N4O15
_symmetry_space_group_name_H-M   'P 1'
_cell_length_a   15.60913059
_cell_length_b   19.10096421
_cell_length_c   19.33029686
_cell_angle_alpha   94.76119264
_cell_angle_beta   103.23443285
_cell_angle_gamma   96.69464439
_symmetry_Int_Tables_number   1
_chemical_formula_structural   Zn4H24C44N4O15
_chemical_formula_sum   'Zn4 H24 C44 N4 O15'
_cell_volume   5536.01935995
_cell_formula_units_Z   1
loop_
 _symmetry_equiv_pos_site_id
 _symmetry_equiv_pos_as_xyz
  1  'x, y, z'
loop_
 _atom_site_type_symbol
 _atom_site_label
 _atom_site_symmetry_multiplicity
 _atom_site_fract_x
 _atom_site_fract_y
 _atom_site_fract_z
 _atom_site_occupancy
 _atom_site_pbe_bader_charge
 _atom_site_pbe_bader_spin_density
 _atom_site_pbe_cm5_charge
 _atom_site_pbe_ddec_charge
 _atom_site_pbe_ddec_spin_density
 _atom_site_pbe_ddec_sum_bond_order
 _atom_site_pbe_magmom
Zn  Zn0  1  0.43387598  0.55446505  0.54838617  1  1.315027  0  0.672499  0.960183  0  2.38644  0
Zn  Zn1  1  0.57636535  0.45298565  0.56871907  1  1.316037  0  0.672546  0.960858  0  2.39786  0
Zn  Zn2  1  0.57895139  0.55940483  0.45065687  1  1.317596  0  0.67127  0.967678  0  2.354537  0
Zn  Zn3  1  0.42101692  0.43041811  0.42128664  1  1.313786  0  0.670731  0.968495  0  2.357294  0
H  H4  1  0.84716145  0.55153788  0.67648548  1  0.086243  0  0.106977  0.11234  0  0.991021  0
H  H5  1  0.34177603  0.42269444  0.06432310  1  0.10493  0  0.109704  0.113728  0  0.989339  0
H  H6  1  0.15150727  0.54220281  0.67778471  1  0.052167  0  0.100783  0.101724  0  0.999693  0
H  H7  1  0.35467336  0.42080158  0.19655845  1  0.102951  0  0.107787  0.112647  0  0.992408  0
H  H8  1  0.63185957  0.47441981  0.78648801  1  0.113545  0  0.111339  0.117703  0  0.987046  0
H  H9  1  0.58805935  0.56394431  0.10927320  1  0.091174  0  0.108866  0.112383  0  1.002717  0
H  H10  1  0.64441753  0.47948280  0.91913683  1  0.086024  0  0.1109  0.115546  0  0.986884  0
H  H11  1  0.59828534  0.56513163  0.24111618  1  0.112981  0  0.110861  0.118112  0  0.987302  0
H  H12  1  0.84590283  0.50557593  0.45550934  1  0.056874  0  0.106413  0.109482  0  1.014509  0
H  H13  1  0.15409680  0.42477545  0.33850486  1  0.078781  0  0.107281  0.121172  0  1.004136  0
H  H14  1  0.23454860  0.51395561  0.58812087  1  0.10213  0  0.101743  0.112724  0  1.026381  0
H  H15  1  0.47663321  0.90305414  0.61999466  1  0.097682  0  0.111271  0.116018  0  0.984516  0
H  H16  1  0.56397277  0.23893773  0.59576835  1  0.130948  0  0.117011  0.142969  0  0.976913  0
H  H17  1  0.54618037  0.04950760  0.59241011  1  0.616959  0  0.296919  0.285494  0  1.067997  0
H  H18  1  0.01229672  0.55639167  0.71029073  1  0.041688  0  0.103069  0.102389  0  0.99502  0
H  H19  1  0.90700398  0.45993666  0.38784291  1  0.087253  0  0.111983  0.130458  0  0.993761  0
H  H20  1  0.01654460  0.39760243  0.26102651  1  0.611476  0  0.339758  0.366801  0  0.872671  0
H  H21  1  0.47488026  0.77087558  0.61157428  1  0.114703  0  0.110964  0.116838  0  0.988245  0
H  H22  1  0.45152391  0.21568934  0.36798724  1  0.09396  0  0.108198  0.119697  0  0.993428  0
H  H23  1  0.56186533  0.90710292  0.42356136  1  0.110949  0  0.109347  0.113919  0  1.001929  0
H  H24  1  0.45185614  0.08334565  0.36464501  1  0.0853  0  0.111335  0.115349  0  0.984803  0
H  H25  1  0.56787526  0.77571908  0.41905174  1  0.084198  0  0.110913  0.116698  0  0.985193  0
H  H26  1  0.37089491  0.53629151  0.75639945  1  0.088296  0  0.108571  0.113155  0  0.988518  0
H  H27  1  0.37970265  0.53389074  0.88783367  1  0.088129  0  0.107657  0.111647  0  1.002102  0
C  C28  1  0.50834887  0.31296797  0.48504311  1  1.57824  0  0.230809  0.607861  0  4.151557  0
C  C29  1  0.88394279  0.51479159  0.51095141  1  0.036596  0  -0.077328  -0.131063  0  3.934587  0
C  C30  1  0.88437373  0.54198175  0.63616301  1  0.003097  0  -0.08769  -0.099308  0  4.008455  0
C  C31  1  0.52013064  0.68746985  0.51068411  1  1.562935  0  0.22915  0.607915  0  4.166884  0
C  C32  1  0.16420035  0.47016326  0.44555559  1  -0.071228  0  -0.01176  -0.05033  0  3.95011  0
C  C33  1  0.52106096  0.76585734  0.51479120  1  -0.064038  0  -0.015653  -0.040396  0  3.965463  0
C  C34  1  0.54648684  0.80406084  0.46197853  1  -0.004908  0  -0.07559  -0.072042  0  3.964904  0
C  C35  1  0.54350522  0.87655920  0.46440362  1  0.015817  0  -0.083005  -0.151871  0  3.957683  0
C  C36  1  0.51797202  0.91194911  0.52159222  1  0.319402  0  0.094747  0.186077  0  4.05863  0
C  C37  1  0.49564502  0.87439459  0.57592494  1  -0.015332  0  -0.082383  -0.153013  0  3.966433  0
C  C38  1  0.49504015  0.80142487  0.57143749  1  -0.053686  0  -0.07819  -0.07688  0  3.977229  0
C  C39  1  0.02461303  0.43958207  0.35663898  1  0.431066  0  0.076625  0.3153  0  4.131724  0
C  C40  1  0.53376347  0.13123985  0.54485063  1  0.557077  0  0.103312  0.283156  0  4.020882  0
C  C41  1  0.53845406  0.20501829  0.54533398  1  -0.011778  0  -0.091697  -0.212062  0  3.916782  0
C  C42  1  0.50299730  0.08717754  0.47790930  1  0.405663  0  0.080108  0.044066  0  4.043371  0
C  C43  1  0.49566362  0.50189242  0.68579710  1  1.535311  0  0.228922  0.604946  0  4.168858  0
C  C44  1  0.50812238  0.23437078  0.48212239  1  0.034079  0  -0.006756  0.002665  0  3.980572  0
C  C45  1  0.47528368  0.19112770  0.41627340  1  -0.058911  0  -0.097515  -0.128041  0  4.011971  0
C  C46  1  0.47484076  0.11866027  0.41448151  1  -0.012574  0  -0.079929  -0.119527  0  3.997316  0
C  C47  1  0.47751686  0.49251429  0.22630147  1  -0.082775  0  -0.014735  -0.036792  0  3.958959  0
C  C48  1  0.54319758  0.53335150  0.20187006  1  -0.05961  0  -0.07735  -0.076132  0  3.966284  0
C  C49  1  0.53763807  0.53288287  0.12917650  1  -0.004559  0  -0.08129  -0.142204  0  3.948896  0
C  C50  1  0.97892073  0.46349312  0.40550251  1  -0.009568  0  -0.096736  -0.239354  0  3.93058  0
C  C51  1  0.46481087  0.49228353  0.07978716  1  0.317774  0  0.090263  0.174316  0  4.045525  0
C  C52  1  0.39787091  0.45295616  0.10391647  1  -0.054077  0  -0.079506  -0.141866  0  3.955787  0
C  C53  1  0.40501637  0.45211797  0.17684069  1  0.021656  0  -0.080601  -0.081327  0  3.97577  0
C  C54  1  0.43437721  0.52132645  0.86482125  1  -0.038666  0  -0.082366  -0.146595  0  3.948002  0
C  C55  1  0.48494793  0.49282712  0.30475784  1  1.566433  0  0.226869  0.603133  0  4.172535  0
C  C56  1  0.42956194  0.52222589  0.79224476  1  0.039723  0  -0.077599  -0.077113  0  3.969174  0
C  C57  1  0.51189957  0.50482574  0.91016853  1  0.354665  0  0.091616  0.177066  0  4.045391  0
C  C58  1  0.50029721  0.50401215  0.76388525  1  -0.072111  0  -0.013374  -0.033548  0  3.962657  0
C  C59  1  0.57755821  0.48790394  0.80941341  1  -0.015409  0  -0.078707  -0.079543  0  3.973185  0
C  C60  1  0.58438201  0.49025684  0.88244948  1  -0.055492  0  -0.078795  -0.142357  0  3.955092  0
C  C61  1  0.02400832  0.48937057  0.47640382  1  -0.01049  0  0.002919  0.054845  0  3.963364  0
C  C62  1  0.74002280  0.52520188  0.54318195  1  1.507887  0  0.228026  0.610963  0  4.157995  0
C  C63  1  0.26335819  0.47765922  0.45990300  1  1.596544  0  0.230631  0.61556  0  4.1433  0
C  C64  1  0.97536405  0.54390504  0.65454988  1  -0.065016  0  -0.089451  -0.13344  0  4.003477  0
C  C65  1  0.83839946  0.52864414  0.56335355  1  0.044639  0  -0.022037  -0.037529  0  4.004601  0
C  C66  1  0.11738551  0.44284028  0.37672678  1  -0.016974  0  -0.100777  -0.240642  0  3.99689  0
C  C67  1  0.11865259  0.49217970  0.49801915  1  0.096462  0  -0.005624  0.046914  0  3.956161  0
C  C68  1  0.97595649  0.51113512  0.52898000  1  0.003294  0  -0.002945  0.029877  0  3.938444  0
C  C69  1  0.02284788  0.52839561  0.60221359  1  -0.087709  0  -0.004789  0.08446  0  4.018578  0
C  C70  1  0.11676238  0.52869150  0.62162667  1  -0.002998  0  -0.097936  -0.146987  0  4.037823  0
C  C71  1  0.16289686  0.51251213  0.57175171  1  -0.085876  0  -0.091345  -0.120593  0  4.009457  0
N  N72  1  0.51597553  0.98552350  0.52874538  1  -0.591921  0  -0.156217  -0.141075  0  3.373662  0
N  N73  1  0.49955171  0.01399220  0.47022099  1  -0.510817  0  -0.153656  -0.114868  0  3.285883  0
N  N74  1  0.45263057  0.48963293  0.00482769  1  -0.463352  0  -0.144971  -0.134496  0  3.27336  0
N  N75  1  0.52379635  0.50336766  0.98461373  1  -0.447552  0  -0.144797  -0.132948  0  3.282998  0
O  O76  1  0.50125008  0.49919335  0.49555737  1  -1.236759  0  -0.574182  -1.032137  0  2.545213  0
O  O77  1  0.69860311  0.50209612  0.58854627  1  -1.177132  0  -0.321992  -0.557085  0  2.324627  0
O  O78  1  0.29651154  0.43069058  0.42718761  1  -1.172764  0  -0.318698  -0.550246  0  2.309646  0
O  O79  1  0.70412597  0.54434714  0.48262962  1  -1.166266  0  -0.318046  -0.549694  0  2.304262  0
O  O80  1  0.30693188  0.53177244  0.50165177  1  -1.175402  0  -0.312021  -0.544486  0  2.360617  0
O  O81  1  0.55858917  0.10334668  0.60647779  1  -1.126708  0  -0.34029  -0.404506  0  2.281874  0
O  O82  1  0.97629034  0.41318887  0.28900379  1  -1.131965  0  -0.36105  -0.454845  0  2.220352  0
O  O83  1  0.44006962  0.53648153  0.64848874  1  -1.168436  0  -0.315924  -0.547975  0  2.312646  0
O  O84  1  0.42727448  0.45055970  0.32410801  1  -1.164249  0  -0.317601  -0.552961  0  2.329734  0
O  O85  1  0.56120865  0.35082415  0.53896426  1  -1.180507  0  -0.31325  -0.543812  0  2.332982  0
O  O86  1  0.56159169  0.65930854  0.46820891  1  -1.169628  0  -0.315393  -0.548675  0  2.321388  0
O  O87  1  0.45511763  0.33514260  0.43372355  1  -1.175062  0  -0.312169  -0.542883  0  2.32256  0
O  O88  1  0.47713531  0.65507960  0.55020816  1  -1.178206  0  -0.318322  -0.550683  0  2.344678  0
O  O89  1  0.54857393  0.46523995  0.66252068  1  -1.165069  0  -0.314698  -0.546096  0  2.348064  0
O  O90  1  0.54862729  0.53533077  0.34621978  1  -1.17457  0  -0.313957  -0.545304  0  2.34005  0
