# generated using pymatgen
data_CaH10C10N6O5
_symmetry_space_group_name_H-M   'P 1'
_cell_length_a   6.32745340
_cell_length_b   9.95372146
_cell_length_c   11.70757872
_cell_angle_alpha   110.37029439
_cell_angle_beta   105.66776797
_cell_angle_gamma   90.01980005
_symmetry_Int_Tables_number   1
_chemical_formula_structural   CaH10C10N6O5
_chemical_formula_sum   'Ca2 H20 C20 N12 O10'
_cell_volume   661.92034353
_cell_formula_units_Z   2
loop_
 _symmetry_equiv_pos_site_id
 _symmetry_equiv_pos_as_xyz
  1  'x, y, z'
loop_
 _atom_site_type_symbol
 _atom_site_label
 _atom_site_symmetry_multiplicity
 _atom_site_fract_x
 _atom_site_fract_y
 _atom_site_fract_z
 _atom_site_occupancy
 _atom_site_hle17_bader_spin_density
 _atom_site_hle17_ddec_charge
 _atom_site_hle17_ddec_spin_density
 _atom_site_hle17_ddec_sum_bond_order
 _atom_site_hle17_magmom
 _atom_site_hse06_10hf_bader_spin_density
 _atom_site_hse06_10hf_ddec_charge
 _atom_site_hse06_10hf_ddec_spin_density
 _atom_site_hse06_10hf_ddec_sum_bond_order
 _atom_site_hse06_10hf_magmom
 _atom_site_hse06_bader_spin_density
 _atom_site_hse06_ddec_charge
 _atom_site_hse06_ddec_spin_density
 _atom_site_hse06_ddec_sum_bond_order
 _atom_site_hse06_magmom
 _atom_site_pbe_bader_spin_density
 _atom_site_pbe_cm5_charge
 _atom_site_pbe_ddec_charge
 _atom_site_pbe_ddec_spin_density
 _atom_site_pbe_ddec_sum_bond_order
 _atom_site_pbe_magmom
Ca  Ca0  1  0.71330411  0.25001950  0.99998131  1  0  1.483051  0  1.173967  0  0  1.331811  0  1.537667  0  0  1.375096  0  1.494516  0  0  0.888698  1.299304  0  1.568254  0
Ca  Ca1  1  0.28669706  0.74998069  0.00001902  1  0  1.483167  0  1.173762  0  0  1.331898  0  1.53751  0  0  1.375188  0  1.49436  0  0  0.88871  1.299396  0  1.568093  0
H  H2  1  0.16644998  0.30724032  0.96925487  1  0  0.433061  0  0.864501  0  0  0.40155  0  0.929135  0  0  0.413214  0  0.912042  0  0  0.30228  0.393177  0  0.941413  0
H  H3  1  0.19721686  0.19254783  0.03087036  1  0  0.432672  0  0.86537  0  0  0.401914  0  0.928926  0  0  0.413567  0  0.911811  0  0  0.302048  0.39353  0  0.941255  0
H  H4  1  0.83355675  0.69275343  0.03074526  1  0  0.433137  0  0.864393  0  0  0.401641  0  0.928995  0  0  0.413301  0  0.91191  0  0  0.302304  0.393272  0  0.941269  0
H  H5  1  0.80279253  0.80745242  0.96913545  1  0  0.432678  0  0.865387  0  0  0.401897  0  0.92898  0  0  0.413554  0  0.911855  0  0  0.301981  0.393511  0  0.941312  0
H  H6  1  0.93026758  0.28484072  0.56804654  1  0  0.077662  0  0.955107  0  0  0.085444  0  1.018369  0  0  0.08799  0  1.016444  0  0  0.112895  0.08356  0  1.019798  0
H  H7  1  0.36168351  0.21520729  0.43178353  1  0  0.076734  0  0.953103  0  0  0.084431  0  1.01661  0  0  0.08701  0  1.014652  0  0  0.112233  0.082506  0  1.018139  0
H  H8  1  0.06971593  0.71514110  0.43194162  1  0  0.077657  0  0.955143  0  0  0.08545  0  1.018387  0  0  0.087994  0  1.016464  0  0  0.112905  0.083565  0  1.019817  0
H  H9  1  0.63831110  0.78480358  0.56820955  1  0  0.076765  0  0.953045  0  0  0.084444  0  1.01655  0  0  0.087016  0  1.014588  0  0  0.11224  0.082463  0  1.018137  0
H  H10  1  0.96236264  0.20574874  0.75449600  1  0  0.091801  0  0.957249  0  0  0.096194  0  1.027096  0  0  0.099549  0  1.025746  0  0  0.119338  0.093848  0  1.02813  0
H  H11  1  0.20755251  0.29404394  0.24522309  1  0  0.09176  0  0.9577  0  0  0.096112  0  1.027324  0  0  0.099505  0  1.025918  0  0  0.119758  0.09377  0  1.028374  0
H  H12  1  0.03764039  0.79426330  0.24550718  1  0  0.091722  0  0.957149  0  0  0.096121  0  1.027009  0  0  0.099481  0  1.02566  0  0  0.119306  0.093776  0  1.028041  0
H  H13  1  0.79242009  0.70596259  0.75476639  1  0  0.091718  0  0.957732  0  0  0.096028  0  1.027426  0  0  0.099416  0  1.026024  0  0  0.119786  0.093688  0  1.028474  0
H  H14  1  0.26406876  0.55619513  0.68979031  1  0  0.338261  0  0.916837  0  0  0.317021  0  0.984058  0  0  0.324869  0  0.978315  0  0  0.306518  0.311295  0  0.988471  0
H  H15  1  0.57382932  0.94360471  0.31034718  1  0  0.337103  0  0.917089  0  0  0.315863  0  0.984441  0  0  0.323712  0  0.97868  0  0  0.305579  0.310144  0  0.988859  0
H  H16  1  0.73594372  0.44380399  0.31020965  1  0  0.338326  0  0.916655  0  0  0.317046  0  0.983942  0  0  0.324894  0  0.978199  0  0  0.306525  0.311322  0  0.988345  0
H  H17  1  0.42617217  0.05638692  0.68965584  1  0  0.337083  0  0.91719  0  0  0.315834  0  0.984547  0  0  0.323681  0  0.978788  0  0  0.305508  0.310116  0  0.988963  0
H  H18  1  0.35317040  0.55094722  0.55383895  1  0  0.316561  0  0.950215  0  0  0.286414  0  1.035741  0  0  0.295548  0  1.028247  0  0  0.288005  0.279915  0  1.041016  0
H  H19  1  0.79916616  0.94914970  0.44625714  1  0  0.317046  0  0.950239  0  0  0.286594  0  1.036256  0  0  0.295761  0  1.028746  0  0  0.287995  0.280076  0  1.041537  0
H  H20  1  0.64682309  0.44905624  0.44616548  1  0  0.316497  0  0.950289  0  0  0.286324  0  1.03586  0  0  0.295457  0  1.028366  0  0  0.287938  0.279823  0  1.041136  0
H  H21  1  0.20085275  0.05084840  0.55374773  1  0  0.31706  0  0.950229  0  0  0.286572  0  1.036289  0  0  0.295739  0  1.028782  0  0  0.287953  0.280054  0  1.041569  0
C  C22  1  0.37578333  0.42281903  0.84699459  1  0  0.660555  0  3.927856  0  0  0.601569  0  4.233242  0  0  0.637449  0  4.223894  0  0  0.22388  0.576941  0  4.239229  0
C  C23  1  0.52845409  0.07704828  0.15289328  1  0  0.664402  0  3.922535  0  0  0.604572  0  4.229287  0  0  0.64051  0  4.21981  0  0  0.225329  0.579922  0  4.235298  0
C  C24  1  0.62422766  0.57718110  0.15299861  1  0  0.660313  0  3.927612  0  0  0.601218  0  4.233182  0  0  0.637093  0  4.223846  0  0  0.22382  0.576588  0  4.239165  0
C  C25  1  0.47153558  0.92294123  0.84711339  1  0  0.664598  0  3.922398  0  0  0.604798  0  4.229129  0  0  0.640737  0  4.219647  0  0  0.225394  0.580148  0  4.235144  0
C  C26  1  0.53372111  0.39042484  0.76780224  1  0  -0.064771  0  3.684936  0  0  -0.053132  0  3.924976  0  0  -0.061424  0  3.94254  0  0  0.111561  -0.048277  0  3.913919  0
C  C27  1  0.76559457  0.10933947  0.23206240  1  0  -0.069763  0  3.689153  0  0  -0.057626  0  3.929057  0  0  -0.065971  0  3.946587  0  0  0.111111  -0.052653  0  3.917872  0
C  C28  1  0.46630244  0.60958192  0.23220922  1  0  -0.06474  0  3.684736  0  0  -0.053057  0  3.924789  0  0  -0.061332  0  3.942329  0  0  0.111621  -0.048206  0  3.913736  0
C  C29  1  0.23439135  0.89065757  0.76794420  1  0  -0.069755  0  3.688939  0  0  -0.057656  0  3.928897  0  0  -0.066002  0  3.946416  0  0  0.111242  -0.052691  0  3.917727  0
C  C30  1  0.51781024  0.43915934  0.66418198  1  0  0.42936  0  3.82065  0  0  0.39674  0  4.086223  0  0  0.414614  0  4.100869  0  0  0.239294  0.384618  0  4.076119  0
C  C31  1  0.85318733  0.06079249  0.33577978  1  0  0.431321  0  3.825365  0  0  0.39909  0  4.08995  0  0  0.417018  0  4.10449  0  0  0.239066  0.386908  0  4.079866  0
C  C32  1  0.48218504  0.56084515  0.33581789  1  0  0.4295  0  3.820866  0  0  0.396877  0  4.086433  0  0  0.414746  0  4.101077  0  0  0.239386  0.384765  0  4.076313  0
C  C33  1  0.14681499  0.93920451  0.66422322  1  0  0.431383  0  3.825178  0  0  0.399153  0  4.089774  0  0  0.41709  0  4.104296  0  0  0.239006  0.386973  0  4.079693  0
C  C34  1  0.81632019  0.31648770  0.62574901  1  0  0.121552  0  3.727301  0  0  0.088658  0  3.995782  0  0  0.098071  0  4.007741  0  0  0.052333  0.082616  0  3.987633  0
C  C35  1  0.19003323  0.18355784  0.37411888  1  0  0.122787  0  3.724779  0  0  0.089848  0  3.993032  0  0  0.099237  0  4.005027  0  0  0.053131  0.083851  0  3.98477  0
C  C36  1  0.18367207  0.68350811  0.37424278  1  0  0.121515  0  3.727247  0  0  0.088613  0  3.99575  0  0  0.098024  0  4.007712  0  0  0.052329  0.082574  0  3.987596  0
C  C37  1  0.80996662  0.81644449  0.62587932  1  0  0.122877  0  3.725042  0  0  0.09  0  3.993191  0  0  0.0994  0  4.005175  0  0  0.053194  0.084045  0  3.98494  0
C  C38  1  0.83475618  0.27154711  0.72800881  1  0  0.040386  0  3.720424  0  0  0.005424  0  3.996294  0  0  0.003574  0  4.012911  0  0  0.033619  0.006342  0  3.985195  0
C  C39  1  0.10629151  0.22842277  0.27183153  1  0  0.039618  0  3.718926  0  0  0.004982  0  3.9944  0  0  0.003125  0  4.011027  0  0  0.033133  0.005933  0  3.983205  0
C  C40  1  0.16525008  0.72845415  0.27199087  1  0  0.04053  0  3.720237  0  0  0.005572  0  3.99609  0  0  0.003716  0  4.012717  0  0  0.033707  0.006491  0  3.984989  0
C  C41  1  0.89368931  0.77158381  0.72816257  1  0  0.039541  0  3.719342  0  0  0.004926  0  3.994799  0  0  0.003071  0  4.011424  0  0  0.03307  0.005879  0  3.983588  0
N  N42  1  0.66186729  0.39823741  0.59327190  1  0  -0.397853  0  3.062261  0  0  -0.344312  0  3.320667  0  0  -0.358799  0  3.331052  0  0  -0.311538  -0.334491  0  3.313578  0
N  N43  1  0.06802521  0.10187904  0.40669815  1  0  -0.398083  0  3.065886  0  0  -0.34463  0  3.324132  0  0  -0.359138  0  3.334547  0  0  -0.31161  -0.334724  0  3.316946  0
N  N44  1  0.33812974  0.60175733  0.40672027  1  0  -0.39782  0  3.062284  0  0  -0.344301  0  3.320731  0  0  -0.358784  0  3.331115  0  0  -0.311545  -0.334477  0  3.313627  0
N  N45  1  0.93198285  0.89812328  0.59330038  1  0  -0.398159  0  3.065938  0  0  -0.344742  0  3.324179  0  0  -0.359254  0  3.334588  0  0  -0.311606  -0.334832  0  3.316969  0
N  N46  1  0.36315470  0.52196759  0.63164140  1  0  -0.664323  0  3.144636  0  0  -0.62486  0  3.390562  0  0  -0.649508  0  3.390321  0  0  -0.5704  -0.60741  0  3.39075  0
N  N47  1  0.73099867  0.97819505  0.36854288  1  0  -0.664471  0  3.145147  0  0  -0.625039  0  3.391222  0  0  -0.6497  0  3.39083  0  0  -0.569329  -0.607523  0  3.391487  0
N  N48  1  0.63685671  0.47804555  0.36836417  1  0  -0.664543  0  3.144504  0  0  -0.625024  0  3.390529  0  0  -0.649676  0  3.390298  0  0  -0.570449  -0.607569  0  3.390709  0
N  N49  1  0.26901084  0.02179549  0.63145928  1  0  -0.664483  0  3.145149  0  0  -0.625005  0  3.391263  0  0  -0.649668  0  3.390862  0  0  -0.569201  -0.607491  0  3.391529  0
N  N50  1  0.69238673  0.30892884  0.79719430  1  0  -0.30002  0  3.234785  0  0  -0.250801  0  3.490195  0  0  -0.255567  0  3.506834  0  0  -0.329178  -0.246827  0  3.479025  0
N  N51  1  0.89477928  0.19094059  0.20267551  1  0  -0.297487  0  3.235151  0  0  -0.248517  0  3.490218  0  0  -0.253266  0  3.506872  0  0  -0.328992  -0.244531  0  3.478976  0
N  N52  1  0.30763385  0.69108000  0.20281136  1  0  -0.300119  0  3.234608  0  0  -0.250905  0  3.490031  0  0  -0.255677  0  3.506668  0  0  -0.329309  -0.246931  0  3.478867  0
N  N53  1  0.10519755  0.80905095  0.79731878  1  0  -0.297465  0  3.235132  0  0  -0.248492  0  3.490181  0  0  -0.25324  0  3.506834  0  0  -0.32913  -0.244506  0  3.478946  0
O  O54  1  0.24629853  0.51904027  0.83848577  1  0  -0.686895  0  1.985681  0  0  -0.625796  0  2.230744  0  0  -0.652755  0  2.220957  0  0  -0.360598  -0.606463  0  2.237011  0
O  O55  1  0.40725717  0.98091160  0.16144784  1  0  -0.68692  0  1.982518  0  0  -0.625631  0  2.227926  0  0  -0.652602  0  2.2181  0  0  -0.361317  -0.606309  0  2.234277  0
O  O56  1  0.75371686  0.48095660  0.16150371  1  0  -0.686705  0  1.985392  0  0  -0.625563  0  2.230475  0  0  -0.652522  0  2.220691  0  0  -0.360571  -0.606247  0  2.236781  0
O  O57  1  0.59271909  0.01908656  0.83856451  1  0  -0.686913  0  1.982502  0  0  -0.625611  0  2.227857  0  0  -0.652583  0  2.218028  0  0  -0.361295  -0.60629  0  2.23421  0
O  O58  1  0.38221818  0.35034430  0.91847826  1  0  -0.687123  0  2.0396  0  0  -0.624305  0  2.284537  0  0  -0.652034  0  2.274153  0  0  -0.341834  -0.604593  0  2.291273  0
O  O59  1  0.46357072  0.14955056  0.08144046  1  0  -0.688566  0  2.039187  0  0  -0.625862  0  2.284487  0  0  -0.653622  0  2.274005  0  0  -0.342292  -0.606198  0  2.291347  0
O  O60  1  0.61779799  0.64966780  0.08153112  1  0  -0.687056  0  2.039641  0  0  -0.624174  0  2.284569  0  0  -0.651904  0  2.2742  0  0  -0.341845  -0.604464  0  2.291306  0
O  O61  1  0.53642782  0.85044323  0.91856447  1  0  -0.688711  0  2.039192  0  0  -0.625995  0  2.284488  0  0  -0.653761  0  2.274005  0  0  -0.342344  -0.606331  0  2.29135  0
O  O62  1  0.08200647  0.24991341  0.00009332  1  0  -0.899476  0  1.796592  0  0  -0.843776  0  1.985088  0  0  -0.865089  0  1.950417  0  0  -0.640708  -0.828309  0  2.009455  0
O  O63  1  0.91800353  0.75008032  0.99990472  1  0  -0.899535  0  1.796539  0  0  -0.843827  0  1.985055  0  0  -0.865139  0  1.950386  0  0  -0.640639  -0.828363  0  2.009422  0
