# generated using pymatgen
data_HgH11C12N3Cl2
_symmetry_space_group_name_H-M   'P 1'
_cell_length_a   7.58719195
_cell_length_b   9.20483541
_cell_length_c   10.48230297
_cell_angle_alpha   111.32902859
_cell_angle_beta   97.84338900
_cell_angle_gamma   90.11915507
_symmetry_Int_Tables_number   1
_chemical_formula_structural   HgH11C12N3Cl2
_chemical_formula_sum   'Hg2 H22 C24 N6 Cl4'
_cell_volume   674.48895346
_cell_formula_units_Z   2
loop_
 _symmetry_equiv_pos_site_id
 _symmetry_equiv_pos_as_xyz
  1  'x, y, z'
loop_
 _atom_site_type_symbol
 _atom_site_label
 _atom_site_symmetry_multiplicity
 _atom_site_fract_x
 _atom_site_fract_y
 _atom_site_fract_z
 _atom_site_occupancy
 _atom_site_hle17_bader_spin_density
 _atom_site_hle17_ddec_charge
 _atom_site_hle17_ddec_spin_density
 _atom_site_hle17_ddec_sum_bond_order
 _atom_site_hle17_magmom
 _atom_site_hse06_10hf_bader_spin_density
 _atom_site_hse06_10hf_ddec_charge
 _atom_site_hse06_10hf_ddec_spin_density
 _atom_site_hse06_10hf_ddec_sum_bond_order
 _atom_site_hse06_10hf_magmom
 _atom_site_hse06_bader_spin_density
 _atom_site_hse06_ddec_charge
 _atom_site_hse06_ddec_spin_density
 _atom_site_hse06_ddec_sum_bond_order
 _atom_site_hse06_magmom
 _atom_site_pbe_bader_spin_density
 _atom_site_pbe_cm5_charge
 _atom_site_pbe_ddec_charge
 _atom_site_pbe_ddec_spin_density
 _atom_site_pbe_ddec_sum_bond_order
 _atom_site_pbe_magmom
Hg  Hg0  1  0.24286391  0.94693936  0.49870127  1  0  0.738546  0  2.120707  0  0  0.585879  0  2.618112  0  0  0.637556  0  2.58123  0  0  0.499212  0.550447  0  2.6427  0
Hg  Hg1  1  0.75714388  0.05306159  0.50130185  1  0  0.738566  0  2.120661  0  0  0.585914  0  2.618068  0  0  0.637586  0  2.581191  0  0  0.499226  0.550481  0  2.642656  0
H  H2  1  0.98850744  0.72270952  0.20976633  1  0  0.084895  0  0.953943  0  0  0.092444  0  1.021129  0  0  0.094684  0  1.019223  0  0  0.111275  0.090737  0  1.022523  0
H  H3  1  0.01149102  0.27729150  0.79023305  1  0  0.084922  0  0.953928  0  0  0.092475  0  1.021105  0  0  0.094714  0  1.019198  0  0  0.111316  0.090769  0  1.022496  0
H  H4  1  0.88421818  0.43588090  0.09950556  1  0  0.10342  0  0.943225  0  0  0.118381  0  0.995009  0  0  0.121084  0  0.995167  0  0  0.110462  0.116306  0  0.995423  0
H  H5  1  0.11579455  0.56411530  0.90049177  1  0  0.103478  0  0.943129  0  0  0.118403  0  0.994954  0  0  0.121153  0  0.995054  0  0  0.110479  0.116328  0  0.995366  0
H  H6  1  0.99335071  0.25690685  0.22436616  1  0  0.099592  0  0.963575  0  0  0.109518  0  1.026945  0  0  0.112074  0  1.025252  0  0  0.099884  0.107529  0  1.028348  0
H  H7  1  0.00666553  0.74308345  0.77562679  1  0  0.099702  0  0.963645  0  0  0.109609  0  1.02699  0  0  0.112163  0  1.025299  0  0  0.099977  0.10762  0  1.028395  0
H  H8  1  0.20317745  0.36558453  0.44557471  1  0  0.130643  0  0.938574  0  0  0.132399  0  1.010031  0  0  0.136381  0  1.007685  0  0  0.110992  0.129512  0  1.011813  0
H  H9  1  0.79683296  0.63441635  0.55442101  1  0  0.13067  0  0.9386  0  0  0.132464  0  1.010027  0  0  0.136446  0  1.00768  0  0  0.110996  0.129585  0  1.011801  0
H  H10  1  0.53353590  0.89674872  0.72159011  1  0  0.100892  0  0.984975  0  0  0.103697  0  1.063824  0  0  0.105869  0  1.062667  0  0  0.093947  0.102206  0  1.064471  0
H  H11  1  0.46647185  0.10325217  0.27840536  1  0  0.100934  0  0.985026  0  0  0.103732  0  1.063887  0  0  0.105912  0  1.062725  0  0  0.093985  0.102241  0  1.064534  0
H  H12  1  0.69697673  0.12483285  0.88301201  1  0  0.110573  0  0.960328  0  0  0.129859  0  1.024607  0  0  0.131004  0  1.024551  0  0  0.081865  0.129032  0  1.024729  0
H  H13  1  0.30302257  0.87517871  0.11699650  1  0  0.110564  0  0.960371  0  0  0.129867  0  1.024624  0  0  0.131011  0  1.024569  0  0  0.081878  0.12904  0  1.024749  0
H  H14  1  0.89645943  0.07504854  0.96361772  1  0  0.105614  0  0.964009  0  0  0.126842  0  1.02938  0  0  0.127364  0  1.029806  0  0  0.084843  0.126643  0  1.028698  0
H  H15  1  0.10353395  0.92495494  0.03639339  1  0  0.105641  0  0.963923  0  0  0.126887  0  1.029278  0  0  0.127408  0  1.029705  0  0  0.08485  0.126691  0  1.028592  0
H  H16  1  0.72035218  0.14736009  0.06121919  1  0  0.103308  0  0.974822  0  0  0.124447  0  1.038208  0  0  0.124481  0  1.040654  0  0  0.085589  0.12454  0  1.036465  0
H  H17  1  0.27964998  0.85263630  0.93879245  1  0  0.103419  0  0.974761  0  0  0.12454  0  1.038153  0  0  0.124573  0  1.040598  0  0  0.085626  0.124635  0  1.036411  0
H  H18  1  0.79026128  0.88748780  0.11087967  1  0  0.092435  0  0.982819  0  0  0.100344  0  1.052916  0  0  0.10325  0  1.051391  0  0  0.087356  0.098031  0  1.054487  0
H  H19  1  0.20972371  0.11251102  0.88911868  1  0  0.092498  0  0.982786  0  0  0.100399  0  1.052891  0  0  0.103312  0  1.051364  0  0  0.087374  0.098085  0  1.054462  0
H  H20  1  0.67025394  0.61615135  0.04660828  1  0  0.082358  0  0.966797  0  0  0.094488  0  1.027094  0  0  0.096515  0  1.026905  0  0  0.095592  0.093211  0  1.026979  0
H  H21  1  0.32971968  0.38385466  0.95340268  1  0  0.08233  0  0.966793  0  0  0.094452  0  1.027094  0  0  0.096479  0  1.026909  0  0  0.09558  0.093175  0  1.026979  0
H  H22  1  0.48115057  0.48044260  0.81386841  1  0  0.104922  0  0.971127  0  0  0.110529  0  1.043528  0  0  0.113832  0  1.041124  0  0  0.095174  0.108247  0  1.045186  0
H  H23  1  0.51883869  0.51955970  0.18613431  1  0  0.10489  0  0.971101  0  0  0.110558  0  1.043458  0  0  0.113859  0  1.041056  0  0  0.095198  0.108278  0  1.045083  0
C  C24  1  0.03270258  0.63711114  0.25517213  1  0  0.132429  0  3.696047  0  0  0.098793  0  3.943571  0  0  0.106327  0  3.963082  0  0  0.051023  0.094061  0  3.930534  0
C  C25  1  0.96729598  0.36289106  0.74482954  1  0  0.132429  0  3.696106  0  0  0.09881  0  3.943658  0  0  0.106339  0  3.963189  0  0  0.050942  0.09408  0  3.930611  0
C  C26  1  0.97546628  0.47966240  0.19668410  1  0  -0.109991  0  3.708845  0  0  -0.123163  0  3.961108  0  0  -0.130447  0  3.982431  0  0  -0.075649  -0.119041  0  3.947794  0
C  C27  1  0.02453014  0.52032929  0.80331406  1  0  -0.109953  0  3.70893  0  0  -0.123113  0  3.961167  0  0  -0.130438  0  3.982485  0  0  -0.075614  -0.118988  0  3.94785  0
C  C28  1  0.03615415  0.38031819  0.26519891  1  0  0.015665  0  3.699535  0  0  -0.005812  0  3.951041  0  0  -0.002073  0  3.970082  0  0  -0.062156  -0.008109  0  3.938501  0
C  C29  1  0.96385592  0.61967803  0.73479913  1  0  0.015409  0  3.699649  0  0  -0.005998  0  3.951124  0  0  -0.002263  0  3.97019  0  0  -0.062289  -0.008297  0  3.938586  0
C  C30  1  0.15319554  0.43911034  0.38878292  1  0  -0.149851  0  3.658711  0  0  -0.167756  0  3.907818  0  0  -0.175845  0  3.929555  0  0  -0.068553  -0.162855  0  3.893586  0
C  C31  1  0.84681600  0.56088816  0.61120835  1  0  -0.14969  0  3.658758  0  0  -0.167772  0  3.907815  0  0  -0.175865  0  3.929553  0  0  -0.068511  -0.162876  0  3.893578  0
C  C32  1  0.20639385  0.59787453  0.44018334  1  0  0.315576  0  3.782462  0  0  0.297391  0  4.035142  0  0  0.307747  0  4.055735  0  0  0.214269  0.290754  0  4.021313  0
C  C33  1  0.79361407  0.40212869  0.55981097  1  0  0.315355  0  3.782755  0  0  0.297485  0  4.035091  0  0  0.307846  0  4.055681  0  0  0.21429  0.290842  0  4.021269  0
C  C34  1  0.49386879  0.68241366  0.75747449  1  0  0.14561  0  3.832757  0  0  0.153821  0  4.083481  0  0  0.151185  0  4.10927  0  0  0.084135  0.155639  0  4.065725  0
C  C35  1  0.50613019  0.31759433  0.24252237  1  0  0.14587  0  3.832304  0  0  0.153978  0  4.083188  0  0  0.151341  0  4.10898  0  0  0.084255  0.155794  0  4.065436  0
C  C36  1  0.56499033  0.83593965  0.79298471  1  0  -0.166566  0  3.646073  0  0  -0.19055  0  3.878943  0  0  -0.193921  0  3.902091  0  0  -0.080245  -0.187755  0  3.862587  0
C  C37  1  0.43501094  0.16406363  0.20700898  1  0  -0.166728  0  3.64596  0  0  -0.190703  0  3.878855  0  0  -0.194085  0  3.901996  0  0  -0.080342  -0.187907  0  3.862502  0
C  C38  1  0.67412065  0.90986727  0.91892722  1  0  0.158035  0  3.733062  0  0  0.189311  0  3.960723  0  0  0.188719  0  3.986914  0  0  -0.000359  0.189773  0  3.942553  0
C  C39  1  0.32587993  0.09012671  0.08107015  1  0  0.158175  0  3.733156  0  0  0.189515  0  3.960722  0  0  0.188927  0  3.98691  0  0  -0.000345  0.189972  0  3.942557  0
C  C40  1  0.75075937  0.07361556  0.95867717  1  0  -0.343208  0  3.722381  0  0  -0.424606  0  3.952325  0  0  -0.426439  0  3.963263  0  0  -0.247996  -0.423184  0  3.944508  0
C  C41  1  0.24923833  0.92639252  0.04133009  1  0  -0.343443  0  3.722491  0  0  -0.424834  0  3.95237  0  0  -0.426665  0  3.963306  0  0  -0.248063  -0.423416  0  3.944556  0
C  C42  1  0.70918788  0.82866937  0.00995886  1  0  -0.091977  0  3.655075  0  0  -0.112474  0  3.894909  0  0  -0.116322  0  3.918587  0  0  -0.077568  -0.109443  0  3.878863  0
C  C43  1  0.29079290  0.17132603  0.99004563  1  0  -0.092153  0  3.655196  0  0  -0.112679  0  3.89504  0  0  -0.116536  0  3.918708  0  0  -0.077686  -0.109645  0  3.878993  0
C  C44  1  0.64127417  0.67558257  0.97379899  1  0  -0.068671  0  3.793424  0  0  -0.078694  0  4.041646  0  0  -0.081811  0  4.066268  0  0  -0.094231  -0.07657  0  4.024727  0
C  C45  1  0.35870670  0.32441400  0.02620588  1  0  -0.068622  0  3.79336  0  0  -0.078627  0  4.041589  0  0  -0.081748  0  4.066216  0  0  -0.09415  -0.076504  0  4.024665  0
C  C46  1  0.53493080  0.60052601  0.84674754  1  0  -0.122133  0  3.711794  0  0  -0.148473  0  3.963971  0  0  -0.151327  0  3.986567  0  0  -0.083019  -0.146741  0  3.948779  0
C  C47  1  0.46506253  0.39947740  0.15325306  1  0  -0.122121  0  3.71167  0  0  -0.148474  0  3.963856  0  0  -0.151333  0  3.986462  0  0  -0.08306  -0.146725  0  3.948658  0
N  N48  1  0.14574667  0.69267921  0.37382942  1  0  -0.316655  0  3.305671  0  0  -0.229551  0  3.550017  0  0  -0.253868  0  3.57488  0  0  -0.297003  -0.2135  0  3.532903  0
N  N49  1  0.85425433  0.30732058  0.62616409  1  0  -0.316683  0  3.305764  0  0  -0.22972  0  3.550062  0  0  -0.254038  0  3.574923  0  0  -0.297043  -0.213662  0  3.532943  0
N  N50  1  0.32277615  0.67943608  0.56279773  1  0  -0.192603  0  3.07502  0  0  -0.152768  0  3.357546  0  0  -0.161224  0  3.367581  0  0  -0.145725  -0.147604  0  3.351273  0
N  N51  1  0.67722954  0.32055547  0.43719269  1  0  -0.192382  0  3.074797  0  0  -0.152605  0  3.357206  0  0  -0.161059  0  3.367244  0  0  -0.145609  -0.147443  0  3.350935  0
N  N52  1  0.37841884  0.60025483  0.63510702  1  0  -0.098762  0  2.99875  0  0  -0.082438  0  3.279784  0  0  -0.077031  0  3.288453  0  0  -0.129581  -0.08553  0  3.273657  0
N  N53  1  0.62159572  0.39974832  0.36488791  1  0  -0.098975  0  2.99872  0  0  -0.082654  0  3.279855  0  0  -0.077244  0  3.288521  0  0  -0.12969  -0.08575  0  3.273731  0
Cl  Cl54  1  0.01899594  0.04168619  0.33156461  1  0  -0.508958  0  0.996491  0  0  -0.453365  0  1.283369  0  0  -0.472175  0  1.264414  0  0  -0.281654  -0.439755  0  1.29588  0
Cl  Cl55  1  0.98100900  0.95831245  0.66843751  1  0  -0.508987  0  0.996516  0  0  -0.45339  0  1.283386  0  0  -0.472193  0  1.264426  0  0  -0.281675  -0.439784  0  1.295905  0
Cl  Cl56  1  0.43483453  0.16869180  0.65420626  1  0  -0.455122  0  1.035421  0  0  -0.398491  0  1.325784  0  0  -0.415586  0  1.306106  0  0  -0.261881  -0.386585  0  1.33924  0
Cl  Cl57  1  0.56516668  0.83131036  0.34579375  1  0  -0.455132  0  1.035395  0  0  -0.398526  0  1.325802  0  0  -0.41561  0  1.306104  0  0  -0.261893  -0.38661  0  1.339234  0
