# generated using pymatgen
data_ZnH26C40NO4
_symmetry_space_group_name_H-M   'P 1'
_cell_length_a   9.21299165
_cell_length_b   17.30051743
_cell_length_c   19.17185307
_cell_angle_alpha   89.99998229
_cell_angle_beta   101.56453617
_cell_angle_gamma   89.99994582
_symmetry_Int_Tables_number   1
_chemical_formula_structural   ZnH26C40NO4
_chemical_formula_sum   'Zn4 H104 C160 N4 O16'
_cell_volume   2993.75845717
_cell_formula_units_Z   4
loop_
 _symmetry_equiv_pos_site_id
 _symmetry_equiv_pos_as_xyz
  1  'x, y, z'
loop_
 _atom_site_type_symbol
 _atom_site_label
 _atom_site_symmetry_multiplicity
 _atom_site_fract_x
 _atom_site_fract_y
 _atom_site_fract_z
 _atom_site_occupancy
 _atom_site_pbe_bader_charge
 _atom_site_pbe_bader_spin_density
 _atom_site_pbe_cm5_charge
 _atom_site_pbe_ddec_charge
 _atom_site_pbe_ddec_spin_density
 _atom_site_pbe_ddec_sum_bond_order
 _atom_site_pbe_magmom
Zn  Zn0  1  0.08325560  0.49555040  0.44363005  1  1.29369  0  0.66943  0.825355  0  2.417402  0
Zn  Zn1  1  0.41674565  0.99555104  0.05636999  1  1.293778  0  0.669441  0.825353  0  2.417455  0
Zn  Zn2  1  0.91675116  0.50444413  0.55636656  1  1.29345  0  0.669429  0.825319  0  2.417557  0
Zn  Zn3  1  0.58324879  0.00444407  0.94363375  1  1.293503  0  0.669416  0.825329  0  2.417575  0
H  H4  1  0.18296981  0.34798769  0.70664396  1  0.088175  0  0.104357  0.109665  0  1.013056  0
H  H5  1  0.31703399  0.84798714  0.79335785  1  0.087964  0  0.104385  0.109754  0  1.012984  0
H  H6  1  0.81703349  0.65201204  0.29336066  1  0.088078  0  0.104423  0.109803  0  1.012973  0
H  H7  1  0.68296055  0.15201201  0.20663964  1  0.087988  0  0.104411  0.109825  0  1.013025  0
H  H8  1  0.39860747  0.28650796  0.78769783  1  0.044514  0  0.100713  0.102229  0  1.018351  0
H  H9  1  0.10139757  0.78650523  0.71230412  1  0.044535  0  0.100715  0.102218  0  1.018401  0
H  H10  1  0.60139808  0.71349004  0.21230545  1  0.044623  0  0.10073  0.102198  0  1.018368  0
H  H11  1  0.89859804  0.21348756  0.28769608  1  0.044548  0  0.100694  0.102225  0  1.018385  0
H  H12  1  0.63395228  0.27981334  0.61422258  1  0.041268  0  0.105205  0.107125  0  0.995415  0
H  H13  1  0.86605485  0.77980868  0.88578046  1  0.041306  0  0.10523  0.107189  0  0.995363  0
H  H14  1  0.36605327  0.72018813  0.38578070  1  0.041302  0  0.105225  0.107189  0  0.995353  0
H  H15  1  0.13394626  0.22018700  0.11422290  1  0.041359  0  0.105231  0.107163  0  0.995387  0
H  H16  1  0.41797970  0.34046477  0.53548935  1  0.095404  0  0.102756  0.102656  0  1.031687  0
H  H17  1  0.08202412  0.84046428  0.96451246  1  0.095405  0  0.102768  0.10266  0  1.03174  0
H  H18  1  0.58202141  0.65953381  0.46451401  1  0.095598  0  0.102753  0.102653  0  1.031676  0
H  H19  1  0.91797593  0.15953488  0.03548766  1  0.095373  0  0.102755  0.102651  0  1.031732  0
H  H20  1  0.63627442  0.23015583  0.80878825  1  0.052536  0  0.102653  0.101577  0  1.012477  0
H  H21  1  0.86373063  0.73015471  0.69121198  1  0.052884  0  0.102649  0.101566  0  1.012504  0
H  H22  1  0.36372895  0.76984044  0.19121220  1  0.052734  0  0.102612  0.101535  0  1.012481  0
H  H23  1  0.13626718  0.26983866  0.30878948  1  0.052692  0  0.102613  0.101553  0  1.012546  0
H  H24  1  0.81544480  0.24807492  0.69019863  1  0.029166  0  0.101955  0.099533  0  1.007485  0
H  H25  1  0.68456129  0.74807327  0.80980379  1  0.029158  0  0.102007  0.099631  0  1.007517  0
H  H26  1  0.18455856  0.75192134  0.30980287  1  0.029324  0  0.101993  0.099612  0  1.007555  0
H  H27  1  0.31543318  0.25192299  0.19019786  1  0.029238  0  0.101971  0.099617  0  1.007456  0
H  H28  1  0.81628514  0.18582820  0.88254106  1  0.052716  0  0.104088  0.106647  0  1.003397  0
H  H29  1  0.68372107  0.68582546  0.61746138  1  0.052693  0  0.104083  0.106606  0  1.003384  0
H  H30  1  0.18369829  0.81416345  0.11745688  1  0.052908  0  0.104116  0.106682  0  1.003318  0
H  H31  1  0.31629995  0.31416329  0.38254552  1  0.052829  0  0.104141  0.106764  0  1.003351  0
H  H32  1  0.03651645  0.12656830  0.95886412  1  0.075026  0  0.101793  0.101127  0  1.031325  0
H  H33  1  0.46349001  0.62656776  0.54113801  1  0.075041  0  0.101792  0.101123  0  1.031356  0
H  H34  1  0.96346472  0.87342392  0.04113672  1  0.075  0  0.101797  0.101147  0  1.031401  0
H  H35  1  0.53653553  0.37342273  0.45886361  1  0.07499  0  0.10178  0.101125  0  1.031414  0
H  H36  1  0.27574157  0.14061756  0.78931229  1  0.077784  0  0.102085  0.102654  0  1.022929  0
H  H37  1  0.22425825  0.64062113  0.71068657  1  0.077861  0  0.102098  0.102645  0  1.022951  0
H  H38  1  0.72426056  0.85937697  0.21069639  1  0.077652  0  0.102068  0.1026  0  1.02296  0
H  H39  1  0.77573310  0.35937514  0.28930121  1  0.077725  0  0.102076  0.102595  0  1.022891  0
H  H40  1  0.05536666  0.19937656  0.71055063  1  0.055759  0  0.100928  0.102181  0  1.012036  0
H  H41  1  0.44463413  0.69937884  0.78944988  1  0.055662  0  0.100936  0.102171  0  1.012022  0
H  H42  1  0.94464107  0.80061912  0.28945495  1  0.055578  0  0.10097  0.102211  0  1.011974  0
H  H43  1  0.55535157  0.30061858  0.21054516  1  0.055605  0  0.100983  0.102199  0  1.012013  0
H  H44  1  0.38980396  0.53132787  0.42431422  1  0.135148  0  0.120411  0.095163  0  0.988035  0
H  H45  1  0.11019932  0.03133197  0.07568615  1  0.135139  0  0.120402  0.095159  0  0.988047  0
H  H46  1  0.61020388  0.46866608  0.57568355  1  0.135123  0  0.120391  0.095123  0  0.988114  0
H  H47  1  0.88979626  0.96866487  0.92431561  1  0.135137  0  0.12039  0.095158  0  0.988089  0
H  H48  1  0.51989626  0.54264544  0.32224178  1  0.107921  0  0.104316  0.111849  0  1.028057  0
H  H49  1  0.98010799  0.04264758  0.17775800  1  0.107952  0  0.104323  0.111873  0  1.028084  0
H  H50  1  0.48011382  0.45735430  0.67775517  1  0.108066  0  0.104351  0.111931  0  1.028062  0
H  H51  1  0.01988317  0.95735215  0.82224280  1  0.108069  0  0.10436  0.111936  0  1.028054  0
H  H52  1  0.11456564  0.46500164  0.18487167  1  0.097582  0  0.105207  0.111687  0  1.042783  0
H  H53  1  0.38543124  0.96499353  0.31512742  1  0.097617  0  0.105244  0.111737  0  1.042807  0
H  H54  1  0.88544558  0.53499752  0.81512330  1  0.097474  0  0.105235  0.111731  0  1.042745  0
H  H55  1  0.61455431  0.03500331  0.68487699  1  0.097472  0  0.105225  0.111723  0  1.042774  0
H  H56  1  0.00384635  0.45578169  0.29241330  1  0.100882  0  0.11775  0.092175  0  1.010803  0
H  H57  1  0.49615278  0.95577646  0.20758551  1  0.101037  0  0.117757  0.092192  0  1.010773  0
H  H58  1  0.99616266  0.54421342  0.70758094  1  0.100797  0  0.117748  0.092165  0  1.011023  0
H  H59  1  0.50383609  0.04421807  0.79242028  1  0.100892  0  0.11773  0.092116  0  1.011035  0
H  H60  1  0.50475632  0.54770196  0.19493731  1  0.070819  0  0.100273  0.100071  0  1.024767  0
H  H61  1  0.99524460  0.04770174  0.30506214  1  0.070811  0  0.100267  0.100081  0  1.024696  0
H  H62  1  0.49525043  0.45230413  0.80505983  1  0.071289  0  0.100238  0.099966  0  1.024643  0
H  H63  1  0.00474764  0.95230377  0.69494085  1  0.071281  0  0.100242  0.09997  0  1.024586  0
H  H64  1  0.25497353  0.44721544  0.11013002  1  0.074996  0  0.103729  0.097643  0  1.019368  0
H  H65  1  0.24502779  0.94721721  0.38987161  1  0.074991  0  0.103733  0.097647  0  1.019377  0
H  H66  1  0.74503984  0.55278256  0.88986987  1  0.074861  0  0.10369  0.097582  0  1.01937  0
H  H67  1  0.75495671  0.05278195  0.61012905  1  0.074852  0  0.103687  0.097575  0  1.019381  0
H  H68  1  0.63534521  0.36567835  0.88983849  1  0.075864  0  0.096044  0.09568  0  1.035503  0
H  H69  1  0.86466177  0.86567957  0.61016242  1  0.075783  0  0.096016  0.095667  0  1.035474  0
H  H70  1  0.36465824  0.63431907  0.11015623  1  0.076028  0  0.096005  0.09567  0  1.035628  0
H  H71  1  0.13534039  0.13432132  0.38984417  1  0.07608  0  0.095998  0.095659  0  1.035618  0
H  H72  1  0.56659193  0.23789953  0.93108689  1  0.076234  0  0.096751  0.09749  0  1.015573  0
H  H73  1  0.93341310  0.73790015  0.56891386  1  0.076258  0  0.096765  0.097453  0  1.01555  0
H  H74  1  0.43341258  0.76209847  0.06891159  1  0.076235  0  0.096749  0.097458  0  1.015636  0
H  H75  1  0.06659350  0.26210017  0.43109317  1  0.076253  0  0.096751  0.097443  0  1.015689  0
H  H76  1  0.42769088  0.22854450  0.02943106  1  0.077617  0  0.100222  0.106537  0  1.001142  0
H  H77  1  0.07231092  0.72854517  0.47056808  1  0.077615  0  0.100223  0.106507  0  1.001198  0
H  H78  1  0.57231586  0.77145581  0.97056660  1  0.077565  0  0.100248  0.106541  0  1.00123  0
H  H79  1  0.92768906  0.27145688  0.52943673  1  0.079346  0  0.100252  0.106543  0  1.001207  0
H  H80  1  0.36565887  0.34643000  0.08920329  1  0.063584  0  0.095197  0.088255  0  1.041064  0
H  H81  1  0.13434048  0.84643296  0.41079505  1  0.063674  0  0.095199  0.088236  0  1.041084  0
H  H82  1  0.63434127  0.65356974  0.91079059  1  0.063672  0  0.095178  0.088273  0  1.041008  0
H  H83  1  0.86565175  0.15357024  0.58920795  1  0.063591  0  0.095169  0.088271  0  1.041022  0
H  H84  1  0.01561100  0.30162723  0.95936689  1  0.063181  0  0.094485  0.092483  0  1.041841  0
H  H85  1  0.48438971  0.80162610  0.54062524  1  0.063112  0  0.094499  0.092475  0  1.041751  0
H  H86  1  0.98438889  0.69838175  0.04064313  1  0.063267  0  0.094521  0.092538  0  1.04171  0
H  H87  1  0.51561606  0.19838288  0.45936294  1  0.063212  0  0.094526  0.092539  0  1.041803  0
H  H88  1  0.15259777  0.29444304  0.86278643  1  0.086121  0  0.092273  0.089001  0  1.055381  0
H  H89  1  0.34740517  0.79443732  0.63720644  1  0.086011  0  0.092246  0.088925  0  1.055465  0
H  H90  1  0.84740546  0.70556537  0.13722340  1  0.085819  0  0.092241  0.088921  0  1.055395  0
H  H91  1  0.65259506  0.20557224  0.36278170  1  0.085719  0  0.092247  0.088963  0  1.055351  0
H  H92  1  0.24339169  0.41434232  0.81365809  1  0.063984  0  0.095768  0.093008  0  1.03497  0
H  H93  1  0.25661539  0.91433432  0.68633881  1  0.064103  0  0.095755  0.093006  0  1.034959  0
H  H94  1  0.75662594  0.58566377  0.18635317  1  0.063584  0  0.09569  0.092919  0  1.034934  0
H  H95  1  0.74336605  0.08567235  0.31364486  1  0.063559  0  0.095696  0.092941  0  1.03492  0
H  H96  1  0.27077935  0.55423120  0.81494863  1  0.040454  0  0.096866  0.097  0  1.021365  0
H  H97  1  0.22922505  0.05422364  0.68505280  1  0.040493  0  0.096849  0.096985  0  1.021273  0
H  H98  1  0.72923493  0.44578183  0.18506386  1  0.039666  0  0.096856  0.096977  0  1.021226  0
H  H99  1  0.77075750  0.94578939  0.31493045  1  0.039588  0  0.09685  0.097047  0  1.021214  0
H  H100  1  0.22720510  0.68250829  0.86677266  1  0.089759  0  0.093391  0.09052  0  1.041373  0
H  H101  1  0.27279017  0.18250362  0.63322835  1  0.089869  0  0.093399  0.090481  0  1.04135  0
H  H102  1  0.77279924  0.31750127  0.13323676  1  0.090103  0  0.093428  0.090549  0  1.041234  0
H  H103  1  0.72719682  0.81750826  0.36675482  1  0.09018  0  0.09347  0.090601  0  1.041269  0
H  H104  1  0.09706494  0.69088320  0.96564806  1  0.049503  0  0.094087  0.090477  0  1.05679  0
H  H105  1  0.40292590  0.19088139  0.53435198  1  0.049315  0  0.094074  0.09049  0  1.056702  0
H  H106  1  0.90294162  0.30912694  0.03436210  1  0.049094  0  0.094115  0.090544  0  1.056754  0
H  H107  1  0.59706219  0.80912875  0.46563183  1  0.048917  0  0.094134  0.090596  0  1.05665  0
C  C108  1  0.16745776  0.39222802  0.56887120  1  1.5832  0  0.210093  0.582388  0  4.195977  0
C  C109  1  0.33254374  0.89222857  0.93113037  1  1.58321  0  0.210018  0.582203  0  4.196117  0
C  C110  1  0.83253888  0.60776767  0.43113432  1  1.58303  0  0.209891  0.581991  0  4.196318  0
C  C111  1  0.66745745  0.10776885  0.06886726  1  1.583107  0  0.209879  0.581941  0  4.196274  0
C  C112  1  0.28838426  0.34825299  0.61622631  1  -0.083209  0  -0.020367  -0.040997  0  3.971087  0
C  C113  1  0.21161622  0.84825246  0.88377517  1  -0.083206  0  -0.020319  -0.040825  0  3.970958  0
C  C114  1  0.71161684  0.65174385  0.38377757  1  -0.083611  0  -0.020301  -0.040783  0  3.970773  0
C  C115  1  0.78838162  0.15174554  0.11622421  1  -0.083895  0  -0.020285  -0.040724  0  3.970894  0
C  C116  1  0.28261968  0.33239450  0.68736789  1  -0.090665  0  -0.086323  -0.102293  0  3.994429  0
C  C117  1  0.21738306  0.83239457  0.81263277  1  -0.090454  0  -0.086342  -0.102429  0  3.994508  0
C  C118  1  0.71738584  0.66760292  0.31263695  1  -0.090961  0  -0.086379  -0.102511  0  3.994501  0
C  C119  1  0.78261036  0.16760285  0.18736512  1  -0.090597  0  -0.086351  -0.102514  0  3.994579  0
C  C120  1  0.40323809  0.29831687  0.73222088  1  -0.008798  0  -0.088636  -0.141515  0  3.962513  0
C  C121  1  0.09676693  0.79831528  0.76778054  1  -0.008812  0  -0.088705  -0.141544  0  3.962656  0
C  C122  1  0.59676633  0.70168113  0.26778332  1  -0.008841  0  -0.088713  -0.141526  0  3.962589  0
C  C123  1  0.90322868  0.20168041  0.23221914  1  -0.00873  0  -0.088702  -0.141571  0  3.962605  0
C  C124  1  0.53336348  0.27946076  0.70754583  1  0.002298  0  -0.006591  0.113947  0  4.035645  0
C  C125  1  0.96663925  0.77945840  0.79245468  1  0.002366  0  -0.006611  0.113908  0  4.035672  0
C  C126  1  0.46663876  0.72053782  0.29245607  1  0.002644  0  -0.006558  0.113987  0  4.035639  0
C  C127  1  0.03335858  0.22053671  0.20754574  1  0.002397  0  -0.006566  0.113948  0  4.035565  0
C  C128  1  0.53631167  0.29452795  0.63554967  1  -0.060467  0  -0.082781  -0.124996  0  3.963242  0
C  C129  1  0.96369433  0.79452499  0.86445273  1  -0.060446  0  -0.082705  -0.124959  0  3.963104  0
C  C130  1  0.46369166  0.70547179  0.36445339  1  -0.060471  0  -0.082786  -0.125083  0  3.963308  0
C  C131  1  0.03630571  0.20547128  0.13554791  1  -0.060493  0  -0.082738  -0.124953  0  3.963248  0
C  C132  1  0.41595117  0.32802062  0.59095659  1  0.022073  0  -0.083304  -0.095771  0  4.001162  0
C  C133  1  0.08405158  0.82801842  0.90904460  1  0.021998  0  -0.083364  -0.095844  0  4.001298  0
C  C134  1  0.58404996  0.67197911  0.40904573  1  0.022357  0  -0.083338  -0.09581  0  4.00115  0
C  C135  1  0.91594734  0.17197843  0.09095645  1  0.0227  0  -0.083395  -0.095907  0  4.001342  0
C  C136  1  0.65790998  0.24540913  0.75646471  1  -0.126773  0  -0.087153  -0.12524  0  3.976901  0
C  C137  1  0.84209612  0.74540627  0.74353719  1  -0.127162  0  -0.087247  -0.125326  0  3.976957  0
C  C138  1  0.34209228  0.75458829  0.24353563  1  -0.126945  0  -0.087164  -0.125221  0  3.976873  0
C  C139  1  0.15790276  0.25458884  0.25646647  1  -0.127059  0  -0.087225  -0.125289  0  3.977135  0
C  C140  1  0.79386136  0.23181009  0.74230568  1  0.067606  0  -0.085779  -0.120419  0  3.978136  0
C  C141  1  0.70614145  0.73180787  0.75769590  1  0.067622  0  -0.085715  -0.120367  0  3.978057  0
C  C142  1  0.20613867  0.76818618  0.25769549  1  0.067474  0  -0.085739  -0.120445  0  3.978206  0
C  C143  1  0.29385413  0.26818724  0.24230639  1  0.067592  0  -0.085649  -0.120447  0  3.978275  0
C  C144  1  0.91916360  0.19725212  0.79026921  1  0.028773  0  -0.006978  0.112141  0  4.037754  0
C  C145  1  0.58084040  0.69724998  0.70973145  1  0.028834  0  -0.006984  0.112028  0  4.037937  0
C  C146  1  0.08083643  0.80274472  0.20973248  1  0.028756  0  -0.006995  0.112203  0  4.037768  0
C  C147  1  0.41915855  0.30274455  0.29026804  1  0.028813  0  -0.00696  0.112361  0  4.037538  0
C  C148  1  0.91609210  0.17669492  0.86118221  1  -0.077078  0  -0.084163  -0.122863  0  3.94828  0
C  C149  1  0.58391413  0.67669338  0.63882024  1  -0.077432  0  -0.084152  -0.122788  0  3.948175  0
C  C150  1  0.08389906  0.82329845  0.13881807  1  -0.077338  0  -0.084216  -0.123035  0  3.948277  0
C  C151  1  0.41609697  0.32329884  0.36118307  1  -0.077328  0  -0.084241  -0.123149  0  3.948292  0
C  C152  1  0.03904102  0.14379727  0.90448592  1  -0.001467  0  -0.084391  -0.09507  0  3.998519  0
C  C153  1  0.46096210  0.64379556  0.59551536  1  -0.001113  0  -0.084366  -0.095041  0  3.998398  0
C  C154  1  0.96094455  0.85619668  0.09551746  1  -0.001062  0  -0.084317  -0.095022  0  3.998442  0
C  C155  1  0.53905240  0.35619666  0.40448307  1  -0.001373  0  -0.08432  -0.094999  0  3.998322  0
C  C156  1  0.16947380  0.13021037  0.87915194  1  -0.050336  0  -0.01853  -0.038365  0  3.968499  0
C  C157  1  0.33053045  0.63020871  0.62084893  1  -0.050325  0  -0.018528  -0.038338  0  3.968454  0
C  C158  1  0.83051838  0.86978590  0.12085470  1  -0.05028  0  -0.018526  -0.038261  0  3.968466  0
C  C159  1  0.66947970  0.36978640  0.37914333  1  -0.050036  0  -0.018551  -0.038387  0  3.968595  0
C  C160  1  0.17424267  0.15077855  0.80891205  1  -0.020823  0  -0.085991  -0.095533  0  3.990008  0
C  C161  1  0.32575933  0.65078092  0.69108807  1  -0.020843  0  -0.086002  -0.095554  0  3.98989  0
C  C162  1  0.82575394  0.84921772  0.19109503  1  -0.020988  0  -0.085918  -0.095304  0  3.989843  0
C  C163  1  0.67423861  0.34921766  0.30890454  1  -0.020934  0  -0.085891  -0.095212  0  3.989821  0
C  C164  1  0.05094557  0.18364234  0.76523840  1  -0.068527  0  -0.087317  -0.134601  0  3.956685  0
C  C165  1  0.44905637  0.68364290  0.73476222  1  -0.068543  0  -0.087348  -0.134568  0  3.956614  0
C  C166  1  0.94905442  0.81635566  0.23476589  1  -0.068395  0  -0.08743  -0.134781  0  3.956564  0
C  C167  1  0.55093930  0.31635625  0.26523433  1  -0.068402  0  -0.087493  -0.134864  0  3.956433  0
C  C168  1  0.29771283  0.09036586  0.92552892  1  1.546863  0  0.2102  0.581536  0  4.193695  0
C  C169  1  0.20229153  0.59036486  0.57447093  1  1.546749  0  0.210145  0.581421  0  4.193665  0
C  C170  1  0.70227381  0.90962925  0.07447769  1  1.547372  0  0.210085  0.581266  0  4.194076  0
C  C171  1  0.79772306  0.40962910  0.42552178  1  1.547562  0  0.210103  0.581272  0  4.193995  0
C  C172  1  0.33437171  0.51668151  0.37020387  1  0.457143  0  0.048955  0.096909  0  3.94501  0
C  C173  1  0.16563272  0.01668152  0.12979610  1  0.457176  0  0.048997  0.096978  0  3.945053  0
C  C174  1  0.66563615  0.48331591  0.62979338  1  0.456595  0  0.048955  0.097011  0  3.94518  0
C  C175  1  0.83436174  0.98331706  0.87020659  1  0.457232  0  0.048928  0.096898  0  3.945307  0
C  C176  1  0.40530623  0.52311946  0.31323618  1  -0.04715  0  -0.080971  -0.172272  0  3.943339  0
C  C177  1  0.09469375  0.02311949  0.18676387  1  -0.047138  0  -0.081  -0.1724  0  3.943349  0
C  C178  1  0.59470051  0.47688143  0.68676148  1  -0.046765  0  -0.080956  -0.17241  0  3.943404  0
C  C179  1  0.90529739  0.97688198  0.81323850  1  -0.046881  0  -0.080993  -0.17243  0  3.943432  0
C  C180  1  0.32880867  0.50494084  0.24419854  1  -0.013403  0  0.010071  0.158426  0  4.015297  0
C  C181  1  0.17119469  0.00493850  0.25580028  1  -0.013369  0  0.010018  0.158447  0  4.015356  0
C  C182  1  0.67120142  0.49506005  0.75579789  1  -0.013977  0  0.010051  0.158404  0  4.015316  0
C  C183  1  0.82879534  0.99506182  0.74420145  1  -0.01365  0  0.010077  0.158471  0  4.015514  0
C  C184  1  0.18155133  0.47913992  0.23675654  1  -0.006691  0  -0.08154  -0.171085  0  3.92537  0
C  C185  1  0.31844553  0.97913418  0.26324255  1  -0.006678  0  -0.081452  -0.171069  0  3.925663  0
C  C186  1  0.81845987  0.52085924  0.76324000  1  -0.00668  0  -0.081646  -0.171179  0  3.925759  0
C  C187  1  0.68154005  0.02086382  0.73676030  1  -0.006868  0  -0.081573  -0.171153  0  3.925888  0
C  C188  1  0.11821521  0.47430250  0.29612387  1  0.461444  0  0.045633  0.094107  0  3.936769  0
C  C189  1  0.38178389  0.97429790  0.20387492  1  0.46127  0  0.045493  0.09403  0  3.936769  0
C  C190  1  0.88179268  0.52569435  0.70387182  1  0.461754  0  0.045672  0.094122  0  3.937195  0
C  C191  1  0.61820833  0.02569837  0.79612912  1  0.461621  0  0.045689  0.094195  0  3.937156  0
C  C192  1  0.40154426  0.51468332  0.18422704  1  -0.15648  0  -0.090183  -0.145194  0  3.976412  0
C  C193  1  0.09845905  0.01468156  0.31577387  1  -0.156709  0  -0.090151  -0.145191  0  3.976258  0
C  C194  1  0.59846359  0.48531988  0.81577073  1  -0.157065  0  -0.090116  -0.144987  0  3.975874  0
C  C195  1  0.90152986  0.98531990  0.68422932  1  -0.156884  0  -0.090104  -0.144994  0  3.97584  0
C  C196  1  0.35296226  0.48443685  0.11876561  1  0.054177  0  -0.072545  -0.084297  0  3.965184  0
C  C197  1  0.14704011  0.98443751  0.38123507  1  0.054373  0  -0.072579  -0.084378  0  3.965347  0
C  C198  1  0.64705001  0.51556346  0.88123312  1  0.054432  0  -0.072602  -0.084376  0  3.965148  0
C  C199  1  0.85294660  0.01556280  0.61876633  1  0.054502  0  -0.072603  -0.084375  0  3.965042  0
C  C200  1  0.42633739  0.49376951  0.05854803  1  -0.008076  0  -0.000138  0.018196  0  3.945195  0
C  C201  1  0.07366164  0.99377019  0.44145231  1  -0.008114  0  -9.2e-05  0.018319  0  3.945259  0
C  C202  1  0.57367045  0.50622965  0.94145078  1  -0.008312  0  -7e-05  0.018257  0  3.945324  0
C  C203  1  0.92632620  0.00623013  0.55854763  1  -0.008585  0  -5.7e-05  0.01836  0  3.945275  0
C  C204  1  0.45680181  0.42634147  0.02174851  1  -0.008206  0  -0.002144  0.033478  0  3.959313  0
C  C205  1  0.04319848  0.92634330  0.47825093  1  -0.008184  0  -0.002147  0.033445  0  3.959383  0
C  C206  1  0.54320608  0.57365596  0.97824665  1  -0.008156  0  -0.002163  0.033512  0  3.959224  0
C  C207  1  0.95678710  0.07365643  0.52175244  1  -0.008194  0  -0.002215  0.033401  0  3.959288  0
C  C208  1  0.53240072  0.43215268  0.96297939  1  -0.018636  0  0.001448  0.040909  0  3.944947  0
C  C209  1  0.96760060  0.93215387  0.53702093  1  -0.01863  0  0.001482  0.04086  0  3.945039  0
C  C210  1  0.46760826  0.56784763  0.03701692  1  -0.01877  0  0.001539  0.040974  0  3.94484  0
C  C211  1  0.03239052  0.06784817  0.46298247  1  -0.019034  0  0.001552  0.040972  0  3.944843  0
C  C212  1  0.57128954  0.36209003  0.93168148  1  -0.049434  0  -0.092169  -0.12991  0  3.984618  0
C  C213  1  0.92871524  0.86209008  0.56831921  1  -0.049321  0  -0.09216  -0.129926  0  3.984725  0
C  C214  1  0.42871831  0.63790797  0.06831629  1  -0.049598  0  -0.092101  -0.129898  0  3.984772  0
C  C215  1  0.07127921  0.13790966  0.43168453  1  -0.04929  0  -0.092114  -0.12989  0  3.984765  0
C  C216  1  0.53405954  0.29088523  0.95475365  1  -0.034019  0  -0.095626  -0.083191  0  4.012887  0
C  C217  1  0.96594539  0.79088642  0.54524656  1  -0.03402  0  -0.095656  -0.08311  0  4.012801  0
C  C218  1  0.46594942  0.70911277  0.04524423  1  -0.033989  0  -0.095675  -0.083194  0  4.012844  0
C  C219  1  0.03405127  0.20911389  0.45475740  1  -0.034034  0  -0.095663  -0.083151  0  4.01293  0
C  C220  1  0.45636922  0.28528037  0.01132899  1  -0.037386  0  -0.09258  -0.074224  0  4.003081  0
C  C221  1  0.04363358  0.78528105  0.48867023  1  -0.037364  0  -0.092566  -0.074185  0  4.003043  0
C  C222  1  0.54363753  0.71471879  0.98866815  1  -0.037112  0  -0.092591  -0.074183  0  4.003118  0
C  C223  1  0.95636198  0.21471927  0.51133310  1  -0.038929  0  -0.092648  -0.074259  0  4.003209  0
C  C224  1  0.42083810  0.35125643  0.04414730  1  -0.091112  0  -0.092195  -0.129365  0  3.993731  0
C  C225  1  0.07916124  0.85125595  0.45585155  1  -0.091226  0  -0.092202  -0.129353  0  3.993744  0
C  C226  1  0.57916533  0.64874561  0.95584898  1  -0.091376  0  -0.092141  -0.129387  0  3.993603  0
C  C227  1  0.92082769  0.14874610  0.54415007  1  -0.091367  0  -0.092122  -0.129368  0  3.993667  0
C  C228  1  0.07752059  0.49513299  0.94215163  1  -0.035642  0  -0.003801  -0.014011  0  3.922798  0
C  C229  1  0.42248406  0.99513073  0.55784761  1  -0.035618  0  -0.003808  -0.013992  0  3.922723  0
C  C230  1  0.92249814  0.50487541  0.05785975  1  -0.036273  0  -0.003888  -0.014136  0  3.922837  0
C  C231  1  0.57750289  0.00487767  0.44213816  1  -0.036441  0  -0.003926  -0.014206  0  3.922972  0
C  C232  1  0.02483206  0.42581195  0.96937847  1  0.001457  0  -0.009865  0.025933  0  3.992121  0
C  C233  1  0.47517277  0.92581083  0.53061872  1  0.001135  0  -0.009966  0.025867  0  3.992113  0
C  C234  1  0.97518226  0.57419761  0.03063142  1  0.002865  0  -0.009935  0.025844  0  3.992234  0
C  C235  1  0.52481638  0.07419815  0.46936884  1  0.002959  0  -0.009878  0.025937  0  3.992174  0
C  C236  1  0.05311515  0.35538227  0.93942356  1  -0.062341  0  -0.094652  -0.127046  0  3.979149  0
C  C237  1  0.44688874  0.85537941  0.56057147  1  -0.062201  0  -0.094724  -0.12716  0  3.979151  0
C  C238  1  0.94689034  0.64462961  0.06058336  1  -0.062895  0  -0.094553  -0.126871  0  3.978624  0
C  C239  1  0.55310814  0.14463188  0.43941790  1  -0.062834  0  -0.094631  -0.126986  0  3.978793  0
C  C240  1  0.13134632  0.35086678  0.88375978  1  -0.045779  0  -0.097222  -0.075838  0  4.050942  0
C  C241  1  0.36866092  0.85086164  0.61623455  1  -0.045812  0  -0.097094  -0.075582  0  4.050864  0
C  C242  1  0.86866575  0.64913931  0.11625250  1  -0.045943  0  -0.0972  -0.075837  0  4.050842  0
C  C243  1  0.63133160  0.14914503  0.38374969  1  -0.046065  0  -0.097187  -0.075821  0  4.050969  0
C  C244  1  0.18203861  0.41710352  0.85668702  1  -0.050009  0  -0.094293  -0.13711  0  3.985907  0
C  C245  1  0.31796732  0.91709782  0.64331133  1  -0.049921  0  -0.094364  -0.137251  0  3.985771  0
C  C246  1  0.81798453  0.58290315  0.14332636  1  -0.049567  0  -0.094368  -0.13703  0  3.985871  0
C  C247  1  0.68200968  0.08291116  0.35667189  1  -0.049258  0  -0.094373  -0.137083  0  3.985972  0
C  C248  1  0.15669443  0.49036838  0.88491529  1  -0.014803  0  -0.010884  0.07346  0  4.031475  0
C  C249  1  0.34331135  0.99036499  0.61508355  1  -0.014721  0  -0.010861  0.073501  0  4.031409  0
C  C250  1  0.84332759  0.50963886  0.11509902  1  -0.014255  0  -0.010786  0.073376  0  4.03148  0
C  C251  1  0.65666789  0.00964342  0.38489885  1  -0.014479  0  -0.010746  0.073458  0  4.031554  0
C  C252  1  0.20932886  0.55887037  0.85788960  1  -0.056231  0  -0.0944  -0.141538  0  3.98761  0
C  C253  1  0.29067333  0.05886396  0.64211056  1  -0.056502  0  -0.094309  -0.141444  0  3.987441  0
C  C254  1  0.79069316  0.44114034  0.14212471  1  -0.056257  0  -0.094327  -0.141361  0  3.987416  0
C  C255  1  0.70930260  0.94114618  0.35787047  1  -0.056283  0  -0.094267  -0.14135  0  3.98727  0
C  C256  1  0.18573262  0.62966016  0.88667710  1  -0.063192  0  -0.096149  -0.073988  0  4.049265  0
C  C257  1  0.31426167  0.12965548  0.61332278  1  -0.063139  0  -0.096109  -0.073847  0  4.049299  0
C  C258  1  0.81428058  0.37034940  0.11333373  1  -0.063176  0  -0.096145  -0.074024  0  4.049361  0
C  C259  1  0.68571865  0.87035466  0.38666129  1  -0.062621  0  -0.09628  -0.074322  0  4.049658  0
C  C260  1  0.11019992  0.63428374  0.94328803  1  -0.060025  0  -0.096167  -0.131541  0  3.991851  0
C  C261  1  0.38979547  0.13428134  0.55671195  1  -0.059761  0  -0.096221  -0.131719  0  3.992036  0
C  C262  1  0.88981105  0.36572525  0.05672361  1  -0.05908  0  -0.096252  -0.13161  0  3.992304  0
C  C263  1  0.61019373  0.86572764  0.44327196  1  -0.058873  0  -0.096329  -0.131598  0  3.992234  0
C  C264  1  0.05461983  0.56903887  0.97153634  1  -0.023691  0  -0.011617  0.018113  0  4.003193  0
C  C265  1  0.44538123  0.06903704  0.52846423  1  -0.023652  0  -0.011595  0.018144  0  4.003152  0
C  C266  1  0.94539117  0.43096837  0.02847322  1  -0.023947  0  -0.011687  0.017993  0  4.003291  0
C  C267  1  0.55461234  0.93097021  0.47152429  1  -0.024206  0  -0.011544  0.018127  0  4.003126  0
N  N268  1  0.19265793  0.49324063  0.36202309  1  -1.250476  0  -0.336336  -0.223872  0  3.547613  0
N  N269  1  0.30734223  0.99324014  0.13797581  1  -1.250607  0  -0.336286  -0.223832  0  3.547753  0
N  N270  1  0.80734885  0.50675448  0.63797249  1  -1.250088  0  -0.33627  -0.223794  0  3.547798  0
N  N271  1  0.69265220  0.00675671  0.86202845  1  -1.250652  0  -0.336287  -0.223804  0  3.547844  0
O  O272  1  0.05912116  0.41464760  0.59579176  1  -1.170285  0  -0.320906  -0.553098  0  2.322652  0
O  O273  1  0.44088033  0.91464868  0.90420719  1  -1.170304  0  -0.320886  -0.553033  0  2.322653  0
O  O274  1  0.94087223  0.58534057  0.40420822  1  -1.170155  0  -0.320876  -0.552982  0  2.322458  0
O  O275  1  0.55912195  0.08534469  0.09579211  1  -1.17025  0  -0.320825  -0.552945  0  2.322583  0
O  O276  1  0.18592418  0.40642933  0.50592307  1  -1.174905  0  -0.321321  -0.552447  0  2.327348  0
O  O277  1  0.31407731  0.90643103  0.99407693  1  -1.174938  0  -0.321285  -0.552407  0  2.327483  0
O  O278  1  0.81408133  0.59357156  0.49408281  1  -1.174996  0  -0.32119  -0.55224  0  2.327616  0
O  O279  1  0.68592166  0.09356928  0.00592048  1  -1.174953  0  -0.321225  -0.552247  0  2.327505  0
O  O280  1  0.28130855  0.06994276  0.98742036  1  -1.174463  0  -0.318233  -0.553336  0  2.331466  0
O  O281  1  0.21869917  0.56994177  0.51257983  1  -1.17436  0  -0.318206  -0.553309  0  2.331385  0
O  O282  1  0.71868139  0.93005697  0.01258814  1  -1.17461  0  -0.318183  -0.553252  0  2.331864  0
O  O283  1  0.78131655  0.43005854  0.48741090  1  -1.174672  0  -0.318153  -0.553186  0  2.331892  0
O  O284  1  0.41181481  0.07815984  0.89904028  1  -1.164052  0  -0.314925  -0.548309  0  2.343086  0
O  O285  1  0.08818626  0.57816062  0.60095820  1  -1.163972  0  -0.314912  -0.548262  0  2.343032  0
O  O286  1  0.58816962  0.92182891  0.10096558  1  -1.164421  0  -0.31485  -0.548214  0  2.343069  0
O  O287  1  0.91183056  0.42182698  0.39903368  1  -1.164437  0  -0.314909  -0.548259  0  2.342903  0
