# generated using pymatgen
data_Zn4H8C24S6O19
_symmetry_space_group_name_H-M   'P 1'
_cell_length_a   19.63427195
_cell_length_b   19.59302029
_cell_length_c   33.27122537
_cell_angle_alpha   79.43672036
_cell_angle_beta   79.31769986
_cell_angle_gamma   64.04057080
_symmetry_Int_Tables_number   1
_chemical_formula_structural   Zn4H8C24S6O19
_chemical_formula_sum   'Zn16 H32 C96 S24 O76'
_cell_volume   11232.55940452
_cell_formula_units_Z   4
loop_
 _symmetry_equiv_pos_site_id
 _symmetry_equiv_pos_as_xyz
  1  'x, y, z'
loop_
 _atom_site_type_symbol
 _atom_site_label
 _atom_site_symmetry_multiplicity
 _atom_site_fract_x
 _atom_site_fract_y
 _atom_site_fract_z
 _atom_site_occupancy
 _atom_site_pbe_bader_charge
 _atom_site_pbe_bader_spin_density
 _atom_site_pbe_cm5_charge
 _atom_site_pbe_ddec_charge
 _atom_site_pbe_ddec_spin_density
 _atom_site_pbe_ddec_sum_bond_order
 _atom_site_pbe_magmom
Zn  Zn0  1  0.05541479  0.39778937  0.47971211  1  1.324658  0  0.681089  0.97724  0  2.341833  0
Zn  Zn1  1  0.98515624  0.47992405  0.56099600  1  1.313363  0  0.680365  0.969553  0  2.353758  0
Zn  Zn2  1  0.05737729  0.56134270  0.48165800  1  1.316974  0  0.681527  0.971087  0  2.341725  0
Zn  Zn3  1  0.90311004  0.55814592  0.47838770  1  1.318499  0  0.681366  0.97094  0  2.341888  0
Zn  Zn4  1  0.69177522  0.34952231  0.27316354  1  1.323281  0  0.681277  0.977384  0  2.341066  0
Zn  Zn5  1  0.68590280  0.19202211  0.26741982  1  1.316468  0  0.680817  0.973833  0  2.348185  0
Zn  Zn6  1  0.77036403  0.26640362  0.19071826  1  1.315117  0  0.681061  0.970511  0  2.342312  0
Zn  Zn7  1  0.84864002  0.19377115  0.26972501  1  1.322589  0  0.681212  0.967101  0  2.347688  0
Zn  Zn8  1  0.27045755  0.76454767  0.68892649  1  1.311944  0  0.680211  0.969446  0  2.354019  0
Zn  Zn9  1  0.35183031  0.69463789  0.77023361  1  1.323726  0  0.680855  0.973718  0  2.349444  0
Zn  Zn10  1  0.19190174  0.84698298  0.77157931  1  1.318377  0  0.681329  0.973517  0  2.337884  0
Zn  Zn11  1  0.18908322  0.69204244  0.76824217  1  1.316944  0  0.681588  0.971139  0  2.341975  0
Zn  Zn12  1  0.55797838  0.06403553  0.98252537  1  1.316125  0  0.680533  0.973005  0  2.347702  0
Zn  Zn13  1  0.40065343  0.05831095  0.97709600  1  1.321582  0  0.680484  0.970394  0  2.350928  0
Zn  Zn14  1  0.55631989  0.90091488  0.98013755  1  1.319463  0  0.681874  0.975004  0  2.334952  0
Zn  Zn15  1  0.48336614  0.97972721  0.05927638  1  1.314663  0  0.681254  0.970958  0  2.340676  0
H  H16  1  0.74973150  0.44999007  0.34930228  1  0.158755  0  0.12514  0.143141  0  0.989968  0
H  H17  1  0.00122884  0.29993373  0.40015734  1  0.155867  0  0.124822  0.143026  0  0.989321  0
H  H18  1  0.20087462  0.70072800  0.60035073  1  0.141364  0  0.124097  0.145615  0  0.985807  0
H  H19  1  0.04922762  0.54956608  0.64940255  1  0.145548  0  0.124298  0.145579  0  0.985607  0
H  H20  1  0.28464430  0.50999453  0.41282291  1  0.108788  0  0.126964  0.15705  0  0.959604  0
H  H21  1  0.46112112  0.24082838  0.34040482  1  0.105499  0  0.124544  0.151492  0  0.965333  0
H  H22  1  0.77430119  0.54837828  0.64750306  1  0.132125  0  0.123334  0.149971  0  0.96557  0
H  H23  1  0.48085937  0.69980263  0.60021956  1  0.12215  0  0.124345  0.150837  0  0.964501  0
H  H24  1  0.04960840  0.26958775  0.64991616  1  0.137129  0  0.124417  0.151253  0  0.963672  0
H  H25  1  0.20166598  0.97542267  0.60245174  1  0.118519  0  0.123516  0.150374  0  0.965492  0
H  H26  1  0.80228274  0.77896609  0.39972780  1  0.111936  0  0.124281  0.152985  0  0.963716  0
H  H27  1  0.94445091  0.97801178  0.34973469  1  0.152873  0  0.126819  0.156807  0  0.959782  0
H  H28  1  0.64995817  0.14904758  0.04917699  1  0.136793  0  0.124527  0.142435  0  0.990321  0
H  H29  1  0.60133652  0.10010740  0.20056954  1  0.140007  0  0.124604  0.142426  0  0.989614  0
H  H30  1  0.69875319  0.47476561  0.10209820  1  0.133437  0  0.127267  0.15725  0  0.959301  0
H  H31  1  0.55070167  0.76969856  0.14900789  1  0.136208  0  0.124209  0.152596  0  0.964277  0
H  H32  1  0.08967382  0.11007817  0.21001753  1  0.132986  0  0.124447  0.152676  0  0.963632  0
H  H33  1  0.16544203  0.13802712  0.03944095  1  0.115013  0  0.123739  0.150373  0  0.966249  0
H  H34  1  0.29984443  0.00054040  0.90119246  1  0.136344  0  0.12399  0.145025  0  0.987229  0
H  H35  1  0.44923671  0.74889694  0.84956082  1  0.175738  0  0.124346  0.142319  0  0.989631  0
H  H36  1  0.44789329  0.47437714  0.84784982  1  0.149971  0  0.123513  0.150083  0  0.965745  0
H  H37  1  0.30015992  0.28092715  0.90050422  1  0.126662  0  0.124257  0.150873  0  0.964878  0
H  H38  1  0.95964615  0.74033172  0.84011607  1  0.145146  0  0.124447  0.152573  0  0.963047  0
H  H39  1  0.78562898  0.01090462  0.91150107  1  0.11752  0  0.123899  0.150869  0  0.964537  0
H  H40  1  0.84497789  0.57167926  0.40011261  1  0.650911  0  0.312843  0.377277  0  0.945411  0
H  H41  1  0.96339732  0.23594478  0.29171501  1  0.632521  0  0.313087  0.377513  0  0.946185  0
H  H42  1  0.06982462  0.68648463  0.51401633  1  0.647753  0  0.313401  0.378512  0  0.942685  0
H  H43  1  0.06461463  0.68022903  0.73586716  1  0.637959  0  0.31343  0.379225  0  0.942754  0
H  H44  1  0.79409305  0.17816358  0.12183234  1  0.648037  0  0.313139  0.379242  0  0.941763  0
H  H45  1  0.57096128  0.95680375  0.12770079  1  0.6645  0  0.312847  0.376824  0  0.945169  0
H  H46  1  0.17759754  0.90624434  0.85003835  1  0.65604  0  0.313191  0.378752  0  0.941358  0
H  H47  1  0.51432004  0.78548803  0.95799310  1  0.646043  0  0.313438  0.377672  0  0.942134  0
C  C48  1  0.06173490  0.31320250  0.56288654  1  1.544829  0  0.2203  0.613428  0  4.215624  0
C  C49  1  0.06432187  0.57368094  0.56865957  1  1.570666  0  0.241405  0.615149  0  4.123794  0
C  C50  1  0.18181135  0.43858228  0.43948130  1  1.566822  0  0.22117  0.613172  0  4.208389  0
C  C51  1  0.93804744  0.68719789  0.43766229  1  1.551542  0  0.217537  0.609234  0  4.215135  0
C  C52  1  0.93396003  0.43331955  0.42866869  1  1.581026  0  0.241105  0.6159  0  4.121204  0
C  C53  1  0.81847703  0.56045355  0.56070279  1  1.543707  0  0.221357  0.614259  0  4.208008  0
C  C54  1  0.56307965  0.31269662  0.31259170  1  1.561603  0  0.219558  0.612934  0  4.215192  0
C  C55  1  0.68625883  0.17669546  0.18086555  1  1.574195  0  0.241151  0.615739  0  4.121091  0
C  C56  1  0.68924345  0.43197436  0.18923176  1  1.553111  0  0.221128  0.612105  0  4.207601  0
C  C57  1  0.93732530  0.18696425  0.18837066  1  1.581533  0  0.217051  0.60899  0  4.216937  0
C  C58  1  0.82138345  0.32128898  0.31629704  1  1.582142  0  0.243053  0.618308  0  4.121333  0
C  C59  1  0.80949358  0.06832247  0.31067756  1  1.554771  0  0.219738  0.611126  0  4.207254  0
C  C60  1  0.43694378  0.68791244  0.68722085  1  1.544059  0  0.219497  0.612306  0  4.217343  0
C  C61  1  0.31612702  0.81659901  0.82129156  1  1.577431  0  0.241308  0.617016  0  4.122326  0
C  C62  1  0.18960216  0.93149328  0.68925490  1  1.548076  0  0.221029  0.614401  0  4.206584  0
C  C63  1  0.06336141  0.81082736  0.81251862  1  1.550172  0  0.217297  0.608558  0  4.216119  0
C  C64  1  0.17687632  0.68558984  0.68106736  1  1.583181  0  0.241911  0.617399  0  4.120184  0
C  C65  1  0.31186045  0.56772210  0.81024796  1  1.565601  0  0.221032  0.614419  0  4.208372  0
C  C66  1  0.43645912  0.18745887  0.93798629  1  1.581369  0  0.21943  0.612911  0  4.216097  0
C  C67  1  0.42859953  0.92863232  0.93374055  1  1.581441  0  0.242137  0.617875  0  4.121164  0
C  C68  1  0.68173219  0.94084262  0.93909038  1  1.559161  0  0.221342  0.613483  0  4.204068  0
C  C69  1  0.56239236  0.81299405  0.06210387  1  1.535465  0  0.21784  0.610057  0  4.215765  0
C  C70  1  0.57311476  0.06441969  0.06884577  1  1.580721  0  0.240425  0.613531  0  4.125806  0
C  C71  1  0.31768338  0.06105365  0.06070791  1  1.529488  0  0.22157  0.613849  0  4.20608  0
C  C72  1  0.90057263  0.40602701  0.40121185  1  -0.068806  0  0.004549  -0.020844  0  3.90019  0
C  C73  1  0.85194517  0.34544607  0.34669825  1  -0.041307  0  0.00375  -0.022204  0  3.901168  0
C  C74  1  0.82835257  0.44764642  0.38702497  1  -0.1113  0  0.000923  -0.087487  0  3.892501  0
C  C75  1  0.92298973  0.30264132  0.36205173  1  -0.056095  0  0.00025  -0.088191  0  3.8921  0
C  C76  1  0.80544807  0.41717421  0.36016433  1  0.040474  0  -0.060519  -0.082095  0  3.907676  0
C  C77  1  0.94613637  0.33336604  0.38867622  1  0.036516  0  -0.059879  -0.082226  0  3.906746  0
C  C78  1  0.09775502  0.60103500  0.59605170  1  -0.019364  0  0.00459  -0.018749  0  3.898897  0
C  C79  1  0.14932398  0.65229320  0.65370137  1  -0.034089  0  0.00398  -0.021571  0  3.90176  0
C  C80  1  0.14224457  0.64306002  0.58249483  1  -0.152882  0  0.000332  -0.088902  0  3.89423  0
C  C81  1  0.10709637  0.60800706  0.66726826  1  -0.14188  0  0.000231  -0.088571  0  3.894964  0
C  C82  1  0.16689665  0.66803380  0.61121514  1  0.074955  0  -0.060021  -0.084637  0  3.907536  0
C  C83  1  0.08201486  0.58346689  0.63854450  1  0.071049  0  -0.060773  -0.085527  0  3.906696  0
C  C84  1  0.30162203  0.45383290  0.40353655  1  0.082781  0  -0.080958  -0.125882  0  3.948402  0
C  C85  1  0.44382437  0.29736163  0.34924606  1  0.063149  0  -0.085313  -0.13145  0  3.96427  0
C  C86  1  0.25662905  0.41362102  0.41479348  1  -0.174119  0  -0.025117  -0.123017  0  3.99371  0
C  C87  1  0.48858024  0.33776009  0.33766138  1  -0.167674  0  -0.025114  -0.124747  0  3.995455  0
C  C88  1  0.37558199  0.33965990  0.37306862  1  -0.152576  0  -0.018822  -0.007028  0  4.065879  0
C  C89  1  0.36965425  0.41169775  0.37948715  1  -0.185304  0  -0.017938  -0.005629  0  4.05887  0
C  C90  1  0.72902683  0.57599129  0.62770850  1  -0.028097  0  -0.085968  -0.132593  0  3.967114  0
C  C91  1  0.52618763  0.67159111  0.61996957  1  0.022444  0  -0.084357  -0.129532  0  3.961544  0
C  C92  1  0.74345183  0.58489329  0.58514988  1  -0.142611  0  -0.024846  -0.125108  0  3.996749  0
C  C93  1  0.51178635  0.66255885  0.66251252  1  -0.1512  0  -0.024933  -0.122634  0  3.994973  0
C  C94  1  0.60530529  0.63974868  0.60718663  1  -0.170649  0  -0.018518  -0.010831  0  4.065914  0
C  C95  1  0.64994573  0.60716524  0.64040906  1  -0.100767  0  -0.019535  -0.006566  0  4.068457  0
C  C96  1  0.07788533  0.22410042  0.63013367  1  0.011177  0  -0.084305  -0.130027  0  3.961505  0
C  C97  1  0.17382742  0.02085207  0.62227715  1  -0.01818  0  -0.086094  -0.132793  0  3.96746  0
C  C98  1  0.08703752  0.23833916  0.58758461  1  -0.152498  0  -0.024381  -0.122612  0  3.996065  0
C  C99  1  0.16484450  0.00657117  0.66484104  1  -0.142461  0  -0.024976  -0.126828  0  3.997557  0
C  C100  1  0.14249752  0.10001936  0.60961084  1  -0.100769  0  -0.019283  -0.006156  0  4.06852  0
C  C101  1  0.10979629  0.14487201  0.64286805  1  -0.171497  0  -0.019035  -0.011053  0  4.066705  0
C  C102  1  0.84526964  0.80127115  0.39593979  1  0.029377  0  -0.084717  -0.130503  0  3.959953  0
C  C103  1  0.90213102  0.95496503  0.35305473  1  0.081188  0  -0.081226  -0.125442  0  3.947578  0
C  C104  1  0.91336113  0.76196178  0.41294093  1  -0.153464  0  -0.02619  -0.127201  0  4.001175  0
C  C105  1  0.83438421  0.99376095  0.33568278  1  -0.181443  0  -0.023988  -0.121804  0  3.992702  0
C  C106  1  0.90643040  0.88455396  0.37477999  1  -0.18655  0  -0.017209  -0.007155  0  4.059057  0
C  C107  1  0.84137557  0.87125235  0.37388084  1  -0.181767  0  -0.018384  -0.005028  0  4.064459  0
C  C108  1  0.65604110  0.15200693  0.15050760  1  0.078976  0  0.004218  -0.021382  0  3.900309  0
C  C109  1  0.59788109  0.09453091  0.09922513  1  0.014028  0  0.004306  -0.020546  0  3.900134  0
C  C110  1  0.66830007  0.16669925  0.10724258  1  -0.202495  0  0.000794  -0.087595  0  3.892713  0
C  C111  1  0.58329905  0.08215117  0.14249083  1  -0.135945  0  0.000412  -0.087924  0  3.892765  0
C  C112  1  0.63969002  0.13770930  0.08250881  1  0.032935  0  -0.061139  -0.082798  0  3.909615  0
C  C113  1  0.61263148  0.11041911  0.16722794  1  0.031455  0  -0.060715  -0.082394  0  3.908483  0
C  C114  1  0.67198690  0.52051273  0.12176137  1  0.103199  0  -0.081374  -0.125981  0  3.946804  0
C  C115  1  0.57825723  0.72410433  0.12926676  1  0.07089  0  -0.084494  -0.129117  0  3.96047  0
C  C116  1  0.66374775  0.50666192  0.16434457  1  -0.231675  0  -0.024171  -0.122375  0  3.9921  0
C  C117  1  0.58723513  0.73809670  0.08668951  1  -0.148082  0  -0.026302  -0.128223  0  4.002959  0
C  C118  1  0.60944862  0.64493220  0.14206663  1  -0.207  0  -0.018788  -0.007526  0  4.066897  0
C  C119  1  0.64123835  0.59972171  0.10892608  1  -0.155362  0  -0.017369  -0.006437  0  4.06052  0
C  C120  1  0.08269421  0.12528801  0.17744817  1  0.045765  0  -0.08373  -0.127915  0  3.958278  0
C  C121  1  0.17249479  0.12326739  0.07200114  1  -0.004889  0  -0.085614  -0.132582  0  3.967762  0
C  C122  1  0.01174630  0.16262717  0.16333643  1  -0.20455  0  -0.026443  -0.127949  0  4.004054  0
C  C123  1  0.24347489  0.08615263  0.08607007  1  -0.115053  0  -0.024681  -0.12455  0  3.99303  0
C  C124  1  0.11392419  0.13787895  0.10524338  1  -0.123803  0  -0.019186  -0.007656  0  4.068044  0
C  C125  1  0.14137920  0.11126085  0.14421643  1  -0.173972  0  -0.018071  -0.009428  0  4.062189  0
C  C126  1  0.34340623  0.84987009  0.84883157  1  -0.064587  0  0.004161  -0.022035  0  3.900478  0
C  C127  1  0.40421062  0.89814707  0.90337018  1  0.053391  0  0.003685  -0.022386  0  3.902995  0
C  C128  1  0.30201013  0.92217128  0.86320702  1  -0.125386  0  0.000527  -0.087532  0  3.89308  0
C  C129  1  0.44681485  0.82706340  0.88778030  1  -0.133787  0  0.000232  -0.088672  0  3.892548  0
C  C130  1  0.33254584  0.94480168  0.89014394  1  0.061097  0  -0.061071  -0.085097  0  3.909788  0
C  C131  1  0.41594673  0.80405646  0.86118759  1  0.015333  0  -0.060585  -0.081337  0  3.905472  0
C  C132  1  0.40425225  0.45289678  0.85186741  1  0.022066  0  -0.085941  -0.131596  0  3.965284  0
C  C133  1  0.34400999  0.30219432  0.89623265  1  0.013901  0  -0.0848  -0.130689  0  3.96357  0
C  C134  1  0.33611091  0.49293570  0.83495948  1  -0.170545  0  -0.024707  -0.125745  0  3.996221  0
C  C135  1  0.41224129  0.26198280  0.91298736  1  -0.134178  0  -0.024567  -0.122749  0  3.995293  0
C  C136  1  0.34118889  0.37155131  0.87372486  1  -0.178134  0  -0.018157  -0.008258  0  4.064437  0
C  C137  1  0.40743490  0.38319272  0.87397816  1  -0.154993  0  -0.019221  -0.007713  0  4.06789  0
C  C138  1  0.94307256  0.79682757  0.84884434  1  -0.003118  0  -0.083845  -0.128035  0  3.955935  0
C  C139  1  0.80200613  0.95459911  0.90259858  1  0.028243  0  -0.085419  -0.131765  0  3.962776  0
C  C140  1  0.98864715  0.83640609  0.83729888  1  -0.14577  0  -0.025488  -0.126001  0  3.999094  0
C  C141  1  0.75623579  0.91520030  0.91399893  1  -0.151285  0  -0.024159  -0.125221  0  3.992357  0
C  C142  1  0.86987798  0.91172963  0.87869915  1  -0.171364  0  -0.018996  -0.008411  0  4.065288  0
C  C143  1  0.87485440  0.83996492  0.87245787  1  -0.143123  0  -0.018322  -0.009662  0  4.062058  0
S  S144  1  0.29654628  0.32482268  0.39654621  1  0.275405  0  0.089903  0.130069  0  2.725328  0
S  S145  1  0.44839539  0.42680695  0.35562175  1  0.293797  0  0.094577  0.136583  0  2.717438  0
S  S146  1  0.66155860  0.63062369  0.56040023  1  0.288184  0  0.102299  0.152206  0  2.716879  0
S  S147  1  0.59372188  0.61559751  0.68718497  1  0.273783  0  0.090979  0.131917  0  2.724183  0
S  S148  1  0.13408682  0.15615385  0.56285693  1  0.275181  0  0.091655  0.133021  0  2.724053  0
S  S149  1  0.11884574  0.08873085  0.68963351  1  0.2878  0  0.102684  0.152928  0  2.717597  0
S  S150  1  0.97256055  0.80966722  0.40248640  1  0.290959  0  0.095846  0.141323  0  2.718101  0
S  S151  1  0.77567201  0.94558594  0.34573201  1  0.279635  0  0.090611  0.130472  0  2.723142  0
S  S152  1  0.61850266  0.58912209  0.18892271  1  0.283345  0  0.091575  0.132607  0  2.724018  0
S  S153  1  0.63309342  0.65566659  0.06208568  1  0.273391  0  0.096096  0.141932  0  2.720543  0
S  S154  1  0.01573755  0.18088187  0.10997017  1  0.294736  0  0.092573  0.138293  0  2.72562  0
S  S155  1  0.23961149  0.06913173  0.13943869  1  0.297106  0  0.103593  0.153306  0  2.715039  0
S  S156  1  0.27587308  0.44643756  0.84563592  1  0.29053  0  0.101691  0.150849  0  2.72053  0
S  S157  1  0.47307420  0.30786574  0.90168688  1  0.274485  0  0.090737  0.132135  0  2.722761  0
S  S158  1  0.94927291  0.92570865  0.85494889  1  0.281775  0  0.09307  0.138271  0  2.722339  0
S  S159  1  0.79497894  0.82646388  0.89576752  1  0.286803  0  0.103994  0.154079  0  2.715183  0
S  S160  1  0.75747284  0.53751146  0.40354504  1  3.070018  0  0.533256  1.145903  0  6.048174  0
S  S161  1  0.98669952  0.20573439  0.35251891  1  3.107655  0  0.532385  1.143769  0  6.051705  0
S  S162  1  0.17617384  0.66379808  0.52941344  1  3.135974  0  0.533014  1.146479  0  6.048961  0
S  S163  1  0.08667828  0.57387144  0.72033232  1  3.128722  0  0.532843  1.144624  0  6.050818  0
S  S164  1  0.71445236  0.22666707  0.07986480  1  3.134386  0  0.532709  1.145315  0  6.052922  0
S  S165  1  0.52280755  0.03658235  0.16980124  1  3.128577  0  0.533468  1.1458  0  6.04922  0
S  S166  1  0.21240380  0.99337454  0.84685141  1  3.096056  0  0.53401  1.148277  0  6.04689  0
S  S167  1  0.54367415  0.76319239  0.89691990  1  3.098881  0  0.533775  1.146976  0  6.045865  0
O  O168  1  0.00068106  0.49808920  0.50058377  1  -1.222049  0  -0.572248  -1.034005  0  2.532697  0
O  O169  1  0.07875390  0.31310654  0.52378829  1  -1.147673  0  -0.319563  -0.548419  0  2.338702  0
O  O170  1  0.04543894  0.51958523  0.58434002  1  -1.150096  0  -0.291116  -0.507259  0  2.311209  0
O  O171  1  0.15639721  0.50317681  0.45330505  1  -1.157547  0  -0.312817  -0.529527  0  2.332914  0
O  O172  1  0.02498898  0.37187927  0.58235688  1  -1.171166  0  -0.316412  -0.538345  0  2.316287  0
O  O173  1  0.14857969  0.39339623  0.44485095  1  -1.176182  0  -0.321135  -0.552846  0  2.336735  0
O  O174  1  0.05481659  0.60734822  0.53182807  1  -1.185219  0  -0.304114  -0.564551  0  2.404763  0
O  O175  1  0.00542565  0.65854159  0.44841268  1  -1.166456  0  -0.320622  -0.548202  0  2.332454  0
O  O176  1  0.90845291  0.50553942  0.43027681  1  -1.177173  0  -0.304088  -0.56497  0  2.404296  0
O  O177  1  0.89059573  0.65658061  0.44650724  1  -1.162189  0  -0.317661  -0.540549  0  2.316494  0
O  O178  1  0.98739333  0.38259995  0.44793540  1  -1.154934  0  -0.289862  -0.505057  0  2.305643  0
O  O179  1  0.87673298  0.53064402  0.58052229  1  -1.165499  0  -0.318804  -0.545106  0  2.318432  0
O  O180  1  0.81870387  0.57162138  0.52146010  1  -1.145569  0  -0.316108  -0.538362  0  2.348395  0
O  O181  1  0.74795409  0.25084780  0.25064549  1  -1.22482  0  -0.572189  -1.034379  0  2.534468  0
O  O182  1  0.59341489  0.36054273  0.30381791  1  -1.171574  0  -0.31902  -0.547068  0  2.337348  0
O  O183  1  0.65278587  0.17886554  0.21730782  1  -1.155961  0  -0.291035  -0.507301  0  2.307504  0
O  O184  1  0.71994701  0.37310850  0.16967220  1  -1.159996  0  -0.311454  -0.527225  0  2.328933  0
O  O185  1  0.59123346  0.24546892  0.30166523  1  -1.168431  0  -0.316201  -0.538825  0  2.316446  0
O  O186  1  0.67861834  0.43258552  0.22840507  1  -1.15346  0  -0.320824  -0.552486  0  2.336803  0
O  O187  1  0.74468234  0.19198531  0.16880781  1  -1.185228  0  -0.303316  -0.563421  0  2.404349  0
O  O188  1  0.87861735  0.22469272  0.16898981  1  -1.176471  0  -0.321267  -0.549964  0  2.337146  0
O  O189  1  0.86850640  0.27074904  0.29295375  1  -1.190623  0  -0.304956  -0.565806  0  2.407327  0
O  O190  1  0.93682774  0.16868430  0.22733364  1  -1.184314  0  -0.316861  -0.538529  0  2.316227  0
O  O191  1  0.75007082  0.35443092  0.31482306  1  -1.165087  0  -0.290557  -0.506203  0  2.307449  0
O  O192  1  0.74577800  0.09252760  0.29612313  1  -1.171122  0  -0.320902  -0.552335  0  2.334901  0
O  O193  1  0.85374371  0.10232392  0.30555104  1  -1.148965  0  -0.311724  -0.528153  0  2.332545  0
O  O194  1  0.25199486  0.74907877  0.74932506  1  -1.221896  0  -0.572563  -1.033921  0  2.533529  0
O  O195  1  0.37852274  0.72485540  0.66777172  1  -1.168923  0  -0.315513  -0.537603  0  2.317881  0
O  O196  1  0.36678497  0.76285750  0.80202744  1  -1.15923  0  -0.291476  -0.507546  0  2.309152  0
O  O197  1  0.17809890  0.93142241  0.72850323  1  -1.146711  0  -0.315646  -0.537721  0  2.346115  0
O  O198  1  0.43684410  0.67065931  0.72629857  1  -1.149173  0  -0.319704  -0.54832  0  2.338959  0
O  O199  1  0.22001332  0.87303010  0.66939401  1  -1.168307  0  -0.318681  -0.544892  0  2.31797  0
O  O200  1  0.24409138  0.84243030  0.81959221  1  -1.179638  0  -0.303384  -0.564446  0  2.403124  0
O  O201  1  0.09394595  0.85852352  0.80363003  1  -1.161838  0  -0.320929  -0.549073  0  2.335892  0
O  O202  1  0.14322574  0.69529652  0.71793829  1  -1.187801  0  -0.304225  -0.565586  0  2.405561  0
O  O203  1  0.09200040  0.74342313  0.80174692  1  -1.17146  0  -0.316893  -0.538658  0  2.31558  0
O  O204  1  0.23102864  0.70427849  0.66532949  1  -1.150615  0  -0.290906  -0.507386  0  2.306971  0
O  O205  1  0.35650672  0.60127391  0.80506016  1  -1.174596  0  -0.317853  -0.544155  0  2.318185  0
O  O206  1  0.24754987  0.59276385  0.79619258  1  -1.159599  0  -0.315824  -0.538639  0  2.350098  0
O  O207  1  0.49913396  0.00195822  0.99936771  1  -1.224174  0  -0.572159  -1.034057  0  2.532405  0
O  O208  1  0.50387152  0.15893154  0.94862677  1  -1.171351  0  -0.31992  -0.548855  0  2.339571  0
O  O209  1  0.39517146  0.00002554  0.93556803  1  -1.168407  0  -0.29222  -0.508689  0  2.309673  0
O  O210  1  0.64799867  0.89606706  0.94460752  1  -1.147596  0  -0.315667  -0.538303  0  2.345351  0
O  O211  1  0.38855822  0.15743152  0.94696468  1  -1.177171  0  -0.316032  -0.538528  0  2.316932  0
O  O212  1  0.65722869  0.00495165  0.95331319  1  -1.171643  0  -0.317593  -0.542712  0  2.3139  0
O  O213  1  0.47953223  0.88139681  0.95666202  1  -1.18656  0  -0.303794  -0.564782  0  2.405107  0
O  O214  1  0.57994135  0.81346062  0.02298450  1  -1.169547  0  -0.320823  -0.548636  0  2.333722  0
O  O215  1  0.55759634  0.00605159  0.08085795  1  -1.183839  0  -0.303205  -0.562877  0  2.407182  0
O  O216  1  0.52526572  0.87172755  0.08156077  1  -1.160312  0  -0.317884  -0.541034  0  2.316726  0
O  O217  1  0.57123157  0.09780615  0.03242091  1  -1.156055  0  -0.289892  -0.505115  0  2.309419  0
O  O218  1  0.31705163  0.07202873  0.02164657  1  -1.152267  0  -0.318035  -0.544078  0  2.317388  0
O  O219  1  0.37660000  0.02997684  0.08019661  1  -1.162593  0  -0.315607  -0.538014  0  2.345972  0
O  O220  1  0.79784209  0.59343270  0.38565769  1  -1.226637  0  -0.366094  -0.524885  0  2.154356  0
O  O221  1  0.69330030  0.56218439  0.38123529  1  -1.280784  0  -0.307196  -0.504469  0  2.101889  0
O  O222  1  0.74855339  0.52845952  0.44786553  1  -1.232214  0  -0.318004  -0.533613  0  2.12773  0
O  O223  1  0.01233671  0.21590590  0.30440219  1  -1.208054  0  -0.365554  -0.524061  0  2.157227  0
O  O224  1  0.05343973  0.18333836  0.37231519  1  -1.287175  0  -0.30706  -0.504612  0  2.102822  0
O  O225  1  0.94224393  0.16147952  0.36141130  1  -1.270672  0  -0.319387  -0.533409  0  2.119054  0
O  O226  1  0.09885168  0.71901131  0.51077873  1  -1.223069  0  -0.363877  -0.524898  0  2.164269  0
O  O227  1  0.21707742  0.70946343  0.52842580  1  -1.28224  0  -0.308226  -0.506585  0  2.101434  0
O  O228  1  0.21157953  0.59304269  0.51135275  1  -1.289616  0  -0.319283  -0.53287  0  2.118011  0
O  O229  1  0.03192676  0.65129164  0.73932783  1  -1.21085  0  -0.365589  -0.524949  0  2.15417  0
O  O230  1  0.04077692  0.53319733  0.72141290  1  -1.276632  0  -0.308255  -0.506146  0  2.102507  0
O  O231  1  0.15753921  0.53815461  0.73802480  1  -1.288985  0  -0.318081  -0.532497  0  2.126762  0
O  O232  1  0.79934022  0.17962266  0.09103915  1  -1.224648  0  -0.364152  -0.525402  0  2.162048  0
O  O233  1  0.71808232  0.22504931  0.03660108  1  -1.282804  0  -0.308168  -0.50582  0  2.102571  0
O  O234  1  0.67887106  0.29789150  0.09747463  1  -1.288728  0  -0.319317  -0.533017  0  2.119473  0
O  O235  1  0.56932037  0.95140998  0.15852204  1  -1.233104  0  -0.365157  -0.523141  0  2.154675  0
O  O236  1  0.52426505  0.03288567  0.21307840  1  -1.285722  0  -0.308493  -0.505788  0  2.101092  0
O  O237  1  0.45190229  0.07270218  0.15214615  1  -1.286035  0  -0.319421  -0.534654  0  2.126424  0
O  O238  1  0.15637822  0.95322216  0.86470426  1  -1.237615  0  -0.36448  -0.525393  0  2.161274  0
O  O239  1  0.18793960  0.05763783  0.86928225  1  -1.289001  0  -0.309396  -0.507606  0  2.099985  0
O  O240  1  0.22148767  0.00238701  0.80253524  1  -1.240287  0  -0.318583  -0.53369  0  2.126186  0
O  O241  1  0.53373581  0.73692611  0.94495007  1  -1.211096  0  -0.364704  -0.52409  0  2.16194  0
O  O242  1  0.56588791  0.69659552  0.87679792  1  -1.286862  0  -0.308029  -0.505355  0  2.100657  0
O  O243  1  0.58772615  0.80780592  0.88814231  1  -1.269221  0  -0.318154  -0.533386  0  2.126795  0
