# generated using pymatgen
data_Cu5H6(C4N13)2
_symmetry_space_group_name_H-M   'P 1'
_cell_length_a   8.89682026
_cell_length_b   8.89345286
_cell_length_c   9.08483627
_cell_angle_alpha   63.36528024
_cell_angle_beta   63.31855285
_cell_angle_gamma   77.80686999
_symmetry_Int_Tables_number   1
_chemical_formula_structural   Cu5H6(C4N13)2
_chemical_formula_sum   'Cu5 H6 C8 N26'
_cell_volume   574.07972315
_cell_formula_units_Z   1
loop_
 _symmetry_equiv_pos_site_id
 _symmetry_equiv_pos_as_xyz
  1  'x, y, z'
loop_
 _atom_site_type_symbol
 _atom_site_label
 _atom_site_symmetry_multiplicity
 _atom_site_fract_x
 _atom_site_fract_y
 _atom_site_fract_z
 _atom_site_occupancy
 _atom_site_hle17_ddec_charge
 _atom_site_hle17_ddec_spin_density
 _atom_site_hle17_ddec_sum_bond_order
 _atom_site_hle17_magmom
 _atom_site_hse06_10hf_ddec_charge
 _atom_site_hse06_10hf_ddec_spin_density
 _atom_site_hse06_10hf_ddec_sum_bond_order
 _atom_site_hse06_10hf_magmom
 _atom_site_hse06_ddec_charge
 _atom_site_hse06_ddec_spin_density
 _atom_site_hse06_ddec_sum_bond_order
 _atom_site_hse06_magmom
 _atom_site_pbe_cm5_charge
 _atom_site_pbe_ddec_charge
 _atom_site_pbe_ddec_spin_density
 _atom_site_pbe_ddec_sum_bond_order
 _atom_site_pbe_magmom
Cu  Cu0  1  0.99999836  0.99999814  0.00000187  1  0.650199  -0.680585  2.132605  -0.501  0.62632  -0.82793  2.51746  -0.658  0.713387  -0.920904  2.462685  -0.752  0.791807  0.559906  -0.700546  2.560629  -0.55
Cu  Cu1  1  0.50221227  0.50222420  0.71846708  1  0.687168  0.601849  2.103774  0.463  0.658984  0.781648  2.511117  0.629  0.742986  0.862053  2.451662  0.718  0.804905  0.600442  0.678509  2.555632  0.537
Cu  Cu2  1  0.49778837  0.49777463  0.28153396  1  0.687148  0.60183  2.103652  0.463  0.65895  0.781646  2.511015  0.629  0.742973  0.862057  2.451544  0.718  0.80488  0.600407  0.678519  2.555512  0.537
Cu  Cu3  1  0.20161128  0.20156651  0.13612880  1  0.365054  0.11919  2.258432  0.1  0.144215  0.012131  2.863431  0.012  0.122148  -0.000171  2.825521  0.001  0.5242  0.184364  0.043914  2.867347  0.039
Cu  Cu4  1  0.79838935  0.79843358  0.86387059  1  0.365029  0.119156  2.258478  0.1  0.144224  0.012128  2.863474  0.012  0.122156  -0.00017  2.825559  0.001  0.524202  0.184362  0.04391  2.867376  0.039
H  H5  1  0.20088451  0.20090735  0.57020726  1  0.116479  0.000404  0.924679  0.0  0.127627  0.000303  0.978896  0.0  0.129726  0.000219  0.976723  0.0  0.147413  0.125122  0.000356  0.981265  0.0
H  H6  1  0.79911613  0.79909149  0.42979598  1  0.116443  0.000403  0.924695  0.0  0.12757  0.000303  0.978944  0.0  0.12967  0.000219  0.976767  0.0  0.147388  0.125066  0.000356  0.981309  0.0
H  H7  1  0.83496225  0.38654444  0.80711467  1  0.112541  -9.6e-05  0.928661  0.0  0.124899  -5e-05  0.982061  0.0  0.125986  -5e-05  0.981034  0.0  0.142963  0.123722  -2.7e-05  0.982979  0.0
H  H8  1  0.61362121  0.16498906  0.19266334  1  0.112907  -9.5e-05  0.928465  0.0  0.125183  -4.8e-05  0.981908  0.0  0.126258  -4.8e-05  0.980891  0.0  0.143182  0.124002  -2.5e-05  0.982834  0.0
H  H9  1  0.16503458  0.61345689  0.19288805  1  0.112548  -9.4e-05  0.928679  0.0  0.124896  -5e-05  0.9821  0.0  0.125982  -5e-05  0.981075  0.0  0.14297  0.123719  -2.7e-05  0.983018  0.0
H  H10  1  0.38638074  0.83500727  0.80733712  1  0.112925  -8.3e-05  0.928479  0.0  0.125203  -4.8e-05  0.981918  0.0  0.126279  -4.8e-05  0.980897  0.0  0.143171  0.124021  -2.5e-05  0.982843  0.0
C  C11  1  0.23771228  0.23769247  0.64781651  1  0.186683  0.005023  3.657329  0.005  0.145262  0.001832  3.926451  0.001  0.157686  0.002407  3.940348  0.002  0.163171  0.136629  0.001333  3.91864  0.001
C  C12  1  0.76228834  0.76230763  0.35218508  1  0.186783  0.005028  3.657321  0.005  0.145367  0.001833  3.926433  0.001  0.157792  0.002407  3.940328  0.002  0.16325  0.136742  0.001333  3.918618  0.001
C  C13  1  0.79252289  0.28788034  0.79636694  1  0.173071  -0.002082  3.714977  -0.001  0.132503  -0.000509  3.984521  0.0  0.145271  -0.00101  4.003305  -0.001  0.145121  0.123856  -0.000236  3.971906  0.0
C  C14  1  0.71224689  0.20742502  0.20342239  1  0.17269  -0.002031  3.714341  -0.001  0.132031  -0.000535  3.983947  0.0  0.14483  -0.001013  4.002758  -0.001  0.145044  0.123348  -0.000273  3.971369  0.0
C  C15  1  0.20747647  0.71211974  0.20363521  1  0.17306  -0.002094  3.715076  -0.001  0.132494  -0.000509  3.984638  0.0  0.145262  -0.001009  4.003424  -0.001  0.145106  0.123848  -0.000236  3.97202  0.0
C  C16  1  0.28775501  0.79257382  0.79657699  1  0.172716  -0.002094  3.714283  -0.001  0.13205  -0.000536  3.983874  0.0  0.14485  -0.001016  4.002682  -0.001  0.145079  0.123366  -0.000273  3.971295  0.0
C  C17  1  0.68775877  0.68775310  0.81145721  1  -0.066187  0.000121  3.45508  0.007  -0.076044  -0.000246  3.905113  0.006  -0.042946  -0.003527  3.892104  0.002  -0.050056  -0.100005  0.003192  3.90338  0.009
C  C18  1  0.31224297  0.31225455  0.18853617  1  -0.066259  0.000174  3.455336  0.007  -0.07612  -0.000245  3.905385  0.006  -0.043026  -0.003527  3.892381  0.002  -0.050082  -0.100094  0.003192  3.903663  0.009
N  N19  1  0.17392261  0.17387036  0.82846202  1  -0.220672  -0.06841  3.284683  -0.085  -0.190122  -0.052991  3.590693  -0.069  -0.220096  -0.044329  3.608383  -0.059  -0.251585  -0.172343  -0.052084  3.582766  -0.066
N  N20  1  0.82607678  0.82612847  0.17153958  1  -0.220714  -0.068415  3.284671  -0.085  -0.190121  -0.052993  3.590641  -0.069  -0.220096  -0.044329  3.608332  -0.059  -0.251604  -0.172342  -0.052082  3.58272  -0.066
N  N21  1  0.25114911  0.25108011  0.87184722  1  -0.03176  -0.001292  3.185736  -0.001  0.018327  -0.00141  3.50355  -0.001  0.031087  -0.001927  3.50407  -0.002  -0.116562  0.004949  -0.000491  3.506038  0.0
N  N22  1  0.74885154  0.74891873  0.12815272  1  -0.031731  -0.001294  3.185648  -0.001  0.018332  -0.00141  3.503472  -0.001  0.031094  -0.001926  3.503993  -0.002  -0.116536  0.004963  -0.000489  3.505953  0.0
N  N23  1  0.35761068  0.35758860  0.72110549  1  -0.030431  0.046337  3.276869  0.061  -0.009463  0.047674  3.604976  0.066  -0.026273  0.042282  3.619467  0.061  -0.11441  0.000469  0.045308  3.598556  0.061
N  N24  1  0.64238994  0.64241149  0.27889500  1  -0.030469  0.046342  3.276876  0.061  -0.00949  0.047675  3.60499  0.066  -0.026305  0.042282  3.619483  0.061  -0.114418  0.000445  0.045306  3.598565  0.061
N  N25  1  0.35271708  0.35273145  0.57865006  1  -0.233421  -0.005001  3.111827  -0.005  -0.217172  -0.001261  3.43296  0.0  -0.232574  -0.002076  3.446965  -0.002  -0.22206  -0.207199  -0.000184  3.424936  0.001
N  N26  1  0.64728479  0.64726865  0.42134988  1  -0.233421  -0.005008  3.111847  -0.005  -0.217187  -0.00126  3.432992  0.0  -0.232586  -0.002079  3.447  -0.002  -0.222084  -0.207211  -0.000185  3.42497  0.001
N  N27  1  0.66520262  0.30435908  0.74917296  1  -0.25367  0.060927  3.268647  0.082  -0.222072  0.055872  3.597781  0.077  -0.254258  0.04649  3.620498  0.067  -0.248541  -0.202195  0.056122  3.584077  0.075
N  N28  1  0.69566241  0.33467090  0.25086536  1  -0.253655  0.060546  3.268245  0.081  -0.221933  0.055706  3.597241  0.077  -0.254109  0.046369  3.61994  0.067  -0.248209  -0.202068  0.055934  3.583563  0.075
N  N29  1  0.33479672  0.69564226  0.25082754  1  -0.253656  0.060918  3.268684  0.082  -0.222046  0.055871  3.597808  0.077  -0.254237  0.04649  3.620529  0.067  -0.248516  -0.20217  0.056121  3.584101  0.075
N  N30  1  0.30433949  0.66532795  0.74913512  1  -0.253623  0.060575  3.268243  0.081  -0.221903  0.055705  3.597229  0.077  -0.254073  0.046372  3.619928  0.067  -0.248199  -0.202037  0.055934  3.583553  0.075
N  N31  1  0.65046536  0.15522658  0.75135070  1  -0.059252  -0.005756  2.878937  -0.007  -0.063245  -0.001612  3.16323  -0.002  -0.059138  -0.001266  3.174418  -0.002  -0.092663  -0.065889  -0.002012  3.15757  -0.003
N  N32  1  0.84474884  0.34940127  0.24869818  1  -0.058474  -0.005937  2.878199  -0.007  -0.06246  -0.001716  3.162539  -0.003  -0.058402  -0.001321  3.173752  -0.002  -0.09226  -0.065095  -0.002138  3.156898  -0.003
N  N33  1  0.34953524  0.84477477  0.24864815  1  -0.059287  -0.005746  2.878918  -0.007  -0.063287  -0.001613  3.163215  -0.002  -0.059179  -0.001263  3.174404  -0.002  -0.092702  -0.065932  -0.002012  3.157559  -0.003
N  N34  1  0.15525309  0.65059632  0.75130284  1  -0.058474  -0.005943  2.878328  -0.007  -0.062454  -0.001715  3.162679  -0.003  -0.058398  -0.001325  3.173892  -0.002  -0.092257  -0.065089  -0.002138  3.157034  -0.003
N  N35  1  0.76597909  0.05315583  0.79956235  1  -0.051386  0.009635  3.226128  0.013  0.010133  0.003686  3.548471  0.005  0.015584  0.002104  3.549922  0.003  -0.130117  0.002114  0.005543  3.548943  0.008
N  N36  1  0.94690904  0.23396888  0.20024341  1  -0.051944  0.009579  3.224768  0.013  0.009161  0.003655  3.547612  0.005  0.014662  0.002097  3.549073  0.003  -0.130613  0.001091  0.005486  3.548129  0.008
N  N37  1  0.23402150  0.94684552  0.20043650  1  -0.051344  0.009619  3.226058  0.013  0.010189  0.003687  3.548381  0.005  0.01564  0.0021  3.549834  0.003  -0.130077  0.002167  0.005542  3.548862  0.008
N  N38  1  0.05309163  0.76602870  0.79975596  1  -0.051902  0.009575  3.224827  0.013  0.009181  0.003654  3.54769  0.005  0.014684  0.002097  3.549149  0.003  -0.130611  0.001113  0.005486  3.548199  0.008
N  N39  1  0.85654666  0.13258376  0.82972443  1  -0.273163  -0.019522  3.156581  -0.025  -0.252688  -0.017356  3.457249  -0.024  -0.276671  -0.013531  3.474291  -0.02  -0.247076  -0.235561  -0.0173  3.44673  -0.023
N  N40  1  0.86758184  0.14347195  0.16988338  1  -0.271394  -0.021297  3.156862  -0.028  -0.250845  -0.018526  3.457738  -0.025  -0.275093  -0.014473  3.474948  -0.021  -0.246592  -0.233633  -0.018521  3.447184  -0.025
N  N41  1  0.14345268  0.86741759  0.17027608  1  -0.273197  -0.019502  3.156579  -0.025  -0.252725  -0.017357  3.457244  -0.024  -0.276707  -0.013531  3.474284  -0.02  -0.247104  -0.235598  -0.017301  3.446727  -0.023
N  N42  1  0.13241752  0.85652814  0.83011547  1  -0.271486  -0.021271  3.156764  -0.028  -0.250927  -0.018526  3.457643  -0.025  -0.275178  -0.014469  3.474854  -0.021  -0.246616  -0.233714  -0.01852  3.447087  -0.025
N  N43  1  0.61684198  0.61694855  0.77848435  1  -0.396299  0.058236  3.235783  0.078  -0.37546  0.047722  3.572114  0.063  -0.413385  0.041173  3.583774  0.056  -0.421177  -0.346091  0.047866  3.561524  0.062
N  N44  1  0.38315618  0.38304901  0.22151284  1  -0.396172  0.05818  3.235899  0.078  -0.375336  0.047719  3.572267  0.063  -0.413263  0.041169  3.583928  0.056  -0.421128  -0.345966  0.047864  3.561673  0.062
