# generated using pymatgen
data_NaSrH6C6NO6
_symmetry_space_group_name_H-M   'P 1'
_cell_length_a   9.83250959
_cell_length_b   9.83250167
_cell_length_c   9.83251530
_cell_angle_alpha   89.99989700
_cell_angle_beta   90.00010017
_cell_angle_gamma   89.99960275
_symmetry_Int_Tables_number   1
_chemical_formula_structural   NaSrH6C6NO6
_chemical_formula_sum   'Na4 Sr4 H24 C24 N4 O24'
_cell_volume   950.58955545
_cell_formula_units_Z   4
loop_
 _symmetry_equiv_pos_site_id
 _symmetry_equiv_pos_as_xyz
  1  'x, y, z'
loop_
 _atom_site_type_symbol
 _atom_site_label
 _atom_site_symmetry_multiplicity
 _atom_site_fract_x
 _atom_site_fract_y
 _atom_site_fract_z
 _atom_site_occupancy
 _atom_site_pbe_bader_spin_density
 _atom_site_pbe_cm5_charge
 _atom_site_pbe_ddec_charge
 _atom_site_pbe_ddec_spin_density
 _atom_site_pbe_ddec_sum_bond_order
 _atom_site_pbe_magmom
Na  Na0  1  0.83004445  0.66995552  0.33004589  1  0  0.731411  0.848659  0  0.578918  0
Na  Na1  1  0.66995570  0.33004620  0.83004426  1  0  0.731402  0.848651  0  0.578928  0
Na  Na2  1  0.16995515  0.16995499  0.16995447  1  0  0.731408  0.848672  0  0.578976  0
Na  Na3  1  0.33004468  0.83004439  0.66995629  1  0  0.731392  0.848656  0  0.57893  0
Sr  Sr4  1  0.15813809  0.84186119  0.34186308  1  0  0.962751  1.377889  0  1.587136  0
Sr  Sr5  1  0.34186306  0.15813686  0.84186104  1  0  0.962763  1.377915  0  1.587096  0
Sr  Sr6  1  0.84186032  0.34186212  0.15813697  1  0  0.962743  1.377903  0  1.587171  0
Sr  Sr7  1  0.65813749  0.65813991  0.65814084  1  0  0.962799  1.377922  0  1.586976  0
H  H8  1  0.33665314  0.51287820  0.31052465  1  0  0.121632  0.112978  0  0.974423  0
H  H9  1  0.16334389  0.48711380  0.81052171  1  0  0.121657  0.112988  0  0.974457  0
H  H10  1  0.66334450  0.01288540  0.18947396  1  0  0.121676  0.113002  0  0.974451  0
H  H11  1  0.83665540  0.98711861  0.68947754  1  0  0.12166  0.112967  0  0.974461  0
H  H12  1  0.31052428  0.33665236  0.51288094  1  0  0.121643  0.112983  0  0.974449  0
H  H13  1  0.81052335  0.16334582  0.48711295  1  0  0.121642  0.112965  0  0.974509  0
H  H14  1  0.18947426  0.66334527  0.01288539  1  0  0.12166  0.11298  0  0.974416  0
H  H15  1  0.68947809  0.83665867  0.98711756  1  0  0.121653  0.112995  0  0.974431  0
H  H16  1  0.51288252  0.31052723  0.33665157  1  0  0.12165  0.11299  0  0.974428  0
H  H17  1  0.48711305  0.81052129  0.16334752  1  0  0.121658  0.112989  0  0.974538  0
H  H18  1  0.01288473  0.18947403  0.66334384  1  0  0.121665  0.112992  0  0.974424  0
H  H19  1  0.98711663  0.68947550  0.83665595  1  0  0.121654  0.113018  0  0.974409  0
H  H20  1  0.32719575  0.46523334  0.13676040  1  0  0.113526  0.107414  0  0.990061  0
H  H21  1  0.17280199  0.53476101  0.63675739  1  0  0.113536  0.107399  0  0.990081  0
H  H22  1  0.67279977  0.96523796  0.36323841  1  0  0.113515  0.107298  0  0.990092  0
H  H23  1  0.82719942  0.03476472  0.86324166  1  0  0.113531  0.107422  0  0.990025  0
H  H24  1  0.13676090  0.32719559  0.46523378  1  0  0.113543  0.107454  0  0.990079  0
H  H25  1  0.63675999  0.17280379  0.53476082  1  0  0.113514  0.107347  0  0.99011  0
H  H26  1  0.36323843  0.67280122  0.96524001  1  0  0.11353  0.107319  0  0.990125  0
H  H27  1  0.86324270  0.82720050  0.03476426  1  0  0.113526  0.107407  0  0.990037  0
H  H28  1  0.46523506  0.13676288  0.32719632  1  0  0.113514  0.10735  0  0.990156  0
H  H29  1  0.53476274  0.63675863  0.17280410  1  0  0.113511  0.107365  0  0.990086  0
H  H30  1  0.96523714  0.36323830  0.67280089  1  0  0.11353  0.107317  0  0.990111  0
H  H31  1  0.03476403  0.86324028  0.82719553  1  0  0.113535  0.107397  0  0.99007  0
C  C32  1  0.13475242  0.51411365  0.23333263  1  0  0.22312  0.640002  0  4.199409  0
C  C33  1  0.36524447  0.48589680  0.73333106  1  0  0.223187  0.64011  0  4.199754  0
C  C34  1  0.86524216  0.01408677  0.26667310  1  0  0.222988  0.639886  0  4.200086  0
C  C35  1  0.63475585  0.98589677  0.76667023  1  0  0.223235  0.640152  0  4.199703  0
C  C36  1  0.23333411  0.13475182  0.51410963  1  0  0.223151  0.640029  0  4.199732  0
C  C37  1  0.73332974  0.36524486  0.48590548  1  0  0.223087  0.639927  0  4.200002  0
C  C38  1  0.26667156  0.86524275  0.01409859  1  0  0.223043  0.639896  0  4.199865  0
C  C39  1  0.76666661  0.63475760  0.98589330  1  0  0.223101  0.639943  0  4.199666  0
C  C40  1  0.51410610  0.23333241  0.13475314  1  0  0.223178  0.640096  0  4.199894  0
C  C41  1  0.48590424  0.73332815  0.36524608  1  0  0.223102  0.639919  0  4.200031  0
C  C42  1  0.01409796  0.26667088  0.86524226  1  0  0.223073  0.639921  0  4.199827  0
C  C43  1  0.98588659  0.76666662  0.63475433  1  0  0.22317  0.640064  0  4.199786  0
C  C44  1  0.28783328  0.53809686  0.21277950  1  0  -0.060706  -0.2261  0  3.90924  0
C  C45  1  0.21216561  0.46189633  0.71277466  1  0  -0.06073  -0.226041  0  3.909441  0
C  C46  1  0.71216520  0.03810558  0.28721906  1  0  -0.060672  -0.225899  0  3.909426  0
C  C47  1  0.78783589  0.96190029  0.78722362  1  0  -0.06072  -0.226029  0  3.909342  0
C  C48  1  0.21277831  0.28783397  0.53809927  1  0  -0.060746  -0.226132  0  3.909346  0
C  C49  1  0.71277802  0.21216591  0.46189547  1  0  -0.060693  -0.225966  0  3.909365  0
C  C50  1  0.28722129  0.71216463  0.03810481  1  0  -0.060672  -0.225859  0  3.909315  0
C  C51  1  0.78722338  0.78783660  0.96189932  1  0  -0.060706  -0.226018  0  3.909348  0
C  C52  1  0.53810120  0.21277994  0.28783202  1  0  -0.060665  -0.226001  0  3.909312  0
C  C53  1  0.46189709  0.71277612  0.21216928  1  0  -0.060683  -0.226002  0  3.909404  0
C  C54  1  0.03810282  0.28721911  0.71216343  1  0  -0.060675  -0.225838  0  3.909299  0
C  C55  1  0.96189786  0.78722288  0.78783516  1  0  -0.060731  -0.226089  0  3.909343  0
N  N56  1  0.32019276  0.67980334  0.17980717  1  0  -0.386648  -0.124315  0  3.587809  0
N  N57  1  0.17980709  0.32019195  0.67980151  1  0  -0.38661  -0.12437  0  3.587901  0
N  N58  1  0.67980372  0.17980714  0.32019215  1  0  -0.38668  -0.124318  0  3.587926  0
N  N59  1  0.82019540  0.82019562  0.82019499  1  0  -0.386575  -0.124342  0  3.588069  0
O  O60  1  0.06189990  0.61389621  0.27058235  1  0  -0.411189  -0.663769  0  2.222962  0
O  O61  1  0.43810214  0.38609892  0.77058821  1  0  -0.411313  -0.663976  0  2.222674  0
O  O62  1  0.93811026  0.11390855  0.22941302  1  0  -0.411288  -0.663991  0  2.222092  0
O  O63  1  0.56189786  0.88610251  0.72941732  1  0  -0.411289  -0.663961  0  2.222774  0
O  O64  1  0.27058435  0.06189832  0.61389498  1  0  -0.411211  -0.663818  0  2.223022  0
O  O65  1  0.77059354  0.43810522  0.38609477  1  0  -0.411293  -0.663977  0  2.222428  0
O  O66  1  0.22941335  0.93810726  0.11390816  1  0  -0.411285  -0.663974  0  2.222423  0
O  O67  1  0.72941383  0.56190047  0.88610605  1  0  -0.411177  -0.663817  0  2.222991  0
O  O68  1  0.61389936  0.27058409  0.06189595  1  0  -0.411283  -0.66395  0  2.222878  0
O  O69  1  0.38609650  0.77058853  0.43810626  1  0  -0.411317  -0.663967  0  2.222506  0
O  O70  1  0.11390584  0.22941240  0.93810573  1  0  -0.411309  -0.663974  0  2.222417  0
O  O71  1  0.88610236  0.72941710  0.56190008  1  0  -0.411188  -0.663807  0  2.222965  0
O  O72  1  0.09141292  0.39392060  0.21477183  1  0  -0.42228  -0.671329  0  2.2224  0
O  O73  1  0.40857885  0.60606954  0.71477419  1  0  -0.42219  -0.671222  0  2.223049  0
O  O74  1  0.90857801  0.89393695  0.28522406  1  0  -0.422025  -0.670994  0  2.223686  0
O  O75  1  0.59141800  0.10607605  0.78522676  1  0  -0.422284  -0.671312  0  2.222926  0
O  O76  1  0.21477429  0.09141511  0.39392271  1  0  -0.422268  -0.671316  0  2.222719  0
O  O77  1  0.71477391  0.40857967  0.60606390  1  0  -0.422076  -0.671026  0  2.223421  0
O  O78  1  0.28522492  0.90857980  0.89393651  1  0  -0.422072  -0.671047  0  2.223265  0
O  O79  1  0.78522687  0.59141839  0.10607881  1  0  -0.422269  -0.671277  0  2.222613  0
O  O80  1  0.39392522  0.21477502  0.09141623  1  0  -0.422235  -0.67126  0  2.222994  0
O  O81  1  0.60606390  0.71477392  0.40858100  1  0  -0.422097  -0.671045  0  2.223426  0
O  O82  1  0.89393435  0.28522665  0.90858086  1  0  -0.422121  -0.671094  0  2.223223  0
O  O83  1  0.10607448  0.78522653  0.59141571  1  0  -0.422294  -0.671331  0  2.222767  0
