# generated using pymatgen
data_HgH18C20I2(N2O)2
_symmetry_space_group_name_H-M   'P 1'
_cell_length_a   9.44667464
_cell_length_b   11.63127084
_cell_length_c   11.63140835
_cell_angle_alpha   110.03356736
_cell_angle_beta   93.12903523
_cell_angle_gamma   93.12896868
_symmetry_Int_Tables_number   1
_chemical_formula_structural   HgH18C20I2(N2O)2
_chemical_formula_sum   'Hg2 H36 C40 I4 N8 O4'
_cell_volume   1195.23796046
_cell_formula_units_Z   2
loop_
 _symmetry_equiv_pos_site_id
 _symmetry_equiv_pos_as_xyz
  1  'x, y, z'
loop_
 _atom_site_type_symbol
 _atom_site_label
 _atom_site_symmetry_multiplicity
 _atom_site_fract_x
 _atom_site_fract_y
 _atom_site_fract_z
 _atom_site_occupancy
 _atom_site_hle17_bader_spin_density
 _atom_site_hle17_ddec_charge
 _atom_site_hle17_ddec_spin_density
 _atom_site_hle17_ddec_sum_bond_order
 _atom_site_hle17_magmom
 _atom_site_hse06_10hf_bader_spin_density
 _atom_site_hse06_10hf_ddec_charge
 _atom_site_hse06_10hf_ddec_spin_density
 _atom_site_hse06_10hf_ddec_sum_bond_order
 _atom_site_hse06_10hf_magmom
 _atom_site_hse06_bader_spin_density
 _atom_site_hse06_ddec_charge
 _atom_site_hse06_ddec_spin_density
 _atom_site_hse06_ddec_sum_bond_order
 _atom_site_hse06_magmom
 _atom_site_pbe_bader_spin_density
 _atom_site_pbe_cm5_charge
 _atom_site_pbe_ddec_charge
 _atom_site_pbe_ddec_spin_density
 _atom_site_pbe_ddec_sum_bond_order
 _atom_site_pbe_magmom
Hg  Hg0  1  0.56603215  0.25716592  0.96582227  1  0  0.509601  0  2.198696  0  0  0.375671  0  2.685579  0  0  0.419923  0  2.658371  0  0  0.385882  0.346282  0  2.703231  0
Hg  Hg1  1  0.06602565  0.96582116  0.25716358  1  0  0.509559  0  2.198596  0  0  0.375637  0  2.68546  0  0  0.419888  0  2.658256  0  0  0.38587  0.346248  0  2.703106  0
H  H2  1  0.74455348  0.77997702  0.76442719  1  0  0.308825  0  0.943444  0  0  0.285935  0  1.016991  0  0  0.294004  0  1.010956  0  0  0.303268  0.280245  0  1.021246  0
H  H3  1  0.24454811  0.76442229  0.77996302  1  0  0.308944  0  0.943253  0  0  0.285998  0  1.016832  0  0  0.294093  0  1.010763  0  0  0.303326  0.280308  0  1.021094  0
H  H4  1  0.95244768  0.36049990  0.36681832  1  0  0.289724  0  0.884375  0  0  0.279531  0  0.937235  0  0  0.2848  0  0.935232  0  0  0.31887  0.275717  0  0.938821  0
H  H5  1  0.45244922  0.36680750  0.36049828  1  0  0.28969  0  0.884357  0  0  0.279502  0  0.937199  0  0  0.284769  0  0.935202  0  0  0.31885  0.275686  0  0.938793  0
H  H6  1  0.85056441  0.28663811  0.83162765  1  0  0.078767  0  0.95658  0  0  0.083564  0  1.027898  0  0  0.086528  0  1.0252  0  0  0.103369  0.081473  0  1.029772  0
H  H7  1  0.35055035  0.83163331  0.28663142  1  0  0.078774  0  0.956643  0  0  0.083618  0  1.027897  0  0  0.086587  0  1.025189  0  0  0.103405  0.081525  0  1.029774  0
H  H8  1  0.03659583  0.16856432  0.70709046  1  0  0.102018  0  0.972414  0  0  0.107535  0  1.04091  0  0  0.110449  0  1.04008  0  0  0.094258  0.105378  0  1.041788  0
H  H9  1  0.53658117  0.70708651  0.16855709  1  0  0.102005  0  0.972508  0  0  0.1075  0  1.041012  0  0  0.110445  0  1.040154  0  0  0.094229  0.105342  0  1.041891  0
H  H10  1  0.04089699  0.94452826  0.67092010  1  0  0.115621  0  0.966835  0  0  0.12195  0  1.031351  0  0  0.126057  0  1.027447  0  0  0.10011  0.118989  0  1.034259  0
H  H11  1  0.54087879  0.67091752  0.94452078  1  0  0.115617  0  0.966671  0  0  0.122021  0  1.031137  0  0  0.126129  0  1.027232  0  0  0.100144  0.119054  0  1.034052  0
H  H12  1  0.67338360  0.97420303  0.88214246  1  0  0.089236  0  0.936208  0  0  0.095337  0  1.006037  0  0  0.098421  0  1.003437  0  0  0.109506  0.09311  0  1.00805  0
H  H13  1  0.17337292  0.88215108  0.97419834  1  0  0.089257  0  0.936069  0  0  0.095315  0  1.005958  0  0  0.09841  0  1.003359  0  0  0.109515  0.093088  0  1.007973  0
H  H14  1  0.88833703  0.55446187  0.61681713  1  0  0.104504  0  0.938853  0  0  0.121332  0  0.995851  0  0  0.123354  0  0.994755  0  0  0.101735  0.119887  0  0.996797  0
H  H15  1  0.38834612  0.61681950  0.55446817  1  0  0.10453  0  0.938842  0  0  0.12133  0  0.995855  0  0  0.123349  0  0.994766  0  0  0.10174  0.119887  0  0.996799  0
H  H16  1  0.80010806  0.60037805  0.75285141  1  0  0.125219  0  0.920249  0  0  0.139939  0  0.97674  0  0  0.143182  0  0.97425  0  0  0.108886  0.137618  0  0.978752  0
H  H17  1  0.30011561  0.75285069  0.60038136  1  0  0.125225  0  0.920219  0  0  0.13995  0  0.976708  0  0  0.143195  0  0.974215  0  0  0.108923  0.137641  0  0.978706  0
H  H18  1  0.96555960  0.66761012  0.95779034  1  0  0.078875  0  1.00173  0  0  0.084965  0  1.076677  0  0  0.088384  0  1.074689  0  0  0.076322  0.082481  0  1.078238  0
H  H19  1  0.46556660  0.95779738  0.66760362  1  0  0.078906  0  1.001781  0  0  0.085021  0  1.076691  0  0  0.088447  0  1.074707  0  0  0.076358  0.082533  0  1.07826  0
H  H20  1  0.14348646  0.58942770  0.06946468  1  0  0.087831  0  0.948011  0  0  0.1025  0  1.002147  0  0  0.104856  0  1.001507  0  0  0.098019  0.100788  0  1.002739  0
H  H21  1  0.64349631  0.06946613  0.58942242  1  0  0.087891  0  0.948019  0  0  0.102547  0  1.002156  0  0  0.104906  0  1.001512  0  0  0.098035  0.100833  0  1.002754  0
H  H22  1  0.29332526  0.42291074  0.95223878  1  0  0.072829  0  0.980683  0  0  0.079209  0  1.054161  0  0  0.081653  0  1.053143  0  0  0.084075  0.077427  0  1.054953  0
H  H23  1  0.79332982  0.95223199  0.42291205  1  0  0.07286  0  0.980718  0  0  0.079216  0  1.054205  0  0  0.081667  0  1.05318  0  0  0.084056  0.077431  0  1.054999  0
H  H24  1  0.26028487  0.33897638  0.72550378  1  0  0.081067  0  0.969562  0  0  0.089142  0  1.035561  0  0  0.09245  0  1.033635  0  0  0.087934  0.086844  0  1.036945  0
H  H25  1  0.76029158  0.72549587  0.33897926  1  0  0.081062  0  0.969645  0  0  0.089177  0  1.035601  0  0  0.092484  0  1.033675  0  0  0.087941  0.086877  0  1.036982  0
H  H26  1  0.15913334  0.33566223  0.54107102  1  0  0.10768  0  0.943901  0  0  0.119372  0  1.012961  0  0  0.122069  0  1.011059  0  0  0.096492  0.117472  0  1.014339  0
H  H27  1  0.65914447  0.54106514  0.33567366  1  0  0.107659  0  0.943925  0  0  0.119368  0  1.012955  0  0  0.122062  0  1.011054  0  0  0.096496  0.11747  0  1.014333  0
H  H28  1  0.09564216  0.47268986  0.53075882  1  0  0.103651  0  0.918499  0  0  0.120241  0  0.974582  0  0  0.123012  0  0.972564  0  0  0.100724  0.118287  0  0.976103  0
H  H29  1  0.59564892  0.53075631  0.47269890  1  0  0.103706  0  0.918392  0  0  0.120272  0  0.974485  0  0  0.123044  0  0.972462  0  0  0.100702  0.118315  0  0.976012  0
H  H30  1  0.69978976  0.16256509  0.46761608  1  0  0.122834  0  0.978902  0  0  0.131412  0  1.038551  0  0  0.135485  0  1.03497  0  0  0.111605  0.128433  0  1.041266  0
H  H31  1  0.19979130  0.46762180  0.16256364  1  0  0.122779  0  0.978828  0  0  0.131382  0  1.038463  0  0  0.135456  0  1.034882  0  0  0.111606  0.128405  0  1.041178  0
H  H32  1  0.49497020  0.04103335  0.32371279  1  0  0.102494  0  0.969541  0  0  0.108497  0  1.037333  0  0  0.111061  0  1.037298  0  0  0.09948  0.106639  0  1.037494  0
H  H33  1  0.99496397  0.32371966  0.04104514  1  0  0.102522  0  0.969489  0  0  0.108532  0  1.037271  0  0  0.111094  0  1.03724  0  0  0.099486  0.106668  0  1.037445  0
H  H34  1  0.45043305  0.07079041  0.11966544  1  0  0.075588  0  0.962905  0  0  0.07736  0  1.039956  0  0  0.079978  0  1.038578  0  0  0.099968  0.075588  0  1.040875  0
H  H35  1  0.95042629  0.11967068  0.07080057  1  0  0.075612  0  0.962954  0  0  0.077372  0  1.039985  0  0  0.079985  0  1.038611  0  0  0.100013  0.075591  0  1.040917  0
H  H36  1  0.79137810  0.33186435  0.20000732  1  0  0.068888  0  0.990386  0  0  0.073105  0  1.067266  0  0  0.076264  0  1.064665  0  0  0.096324  0.070861  0  1.069135  0
H  H37  1  0.29137983  0.20000099  0.33185896  1  0  0.068917  0  0.990382  0  0  0.073137  0  1.067258  0  0  0.076287  0  1.064678  0  0  0.096339  0.070895  0  1.069119  0
C  C38  1  0.85602560  0.18885644  0.81490364  1  0  0.10048  0  3.714174  0  0  0.070523  0  3.964245  0  0  0.075894  0  3.983394  0  0  0.032976  0.067253  0  3.950994  0
C  C39  1  0.35601713  0.81491024  0.18885443  1  0  0.100464  0  3.714199  0  0  0.070475  0  3.964269  0  0  0.075848  0  3.983424  0  0  0.032872  0.067203  0  3.951023  0
C  C40  1  0.95965600  0.12272934  0.74642196  1  0  -0.088119  0  3.755048  0  0  -0.098275  0  4.003659  0  0  -0.103372  0  4.025432  0  0  -0.085728  -0.095139  0  3.989271  0
C  C41  1  0.45964622  0.74642486  0.12272736  1  0  -0.08804  0  3.755127  0  0  -0.098164  0  4.003755  0  0  -0.103288  0  4.025511  0  0  -0.085652  -0.095027  0  3.989368  0
C  C42  1  0.96202303  0.99781906  0.72591234  1  0  -0.100503  0  3.683495  0  0  -0.124328  0  3.925884  0  0  -0.124008  0  3.942993  0  0  -0.076727  -0.124413  0  3.914616  0
C  C43  1  0.46201472  0.72591245  0.99781957  1  0  -0.100499  0  3.683179  0  0  -0.124426  0  3.925597  0  0  -0.124097  0  3.942712  0  0  -0.076757  -0.124509  0  3.914324  0
C  C44  1  0.85807942  0.94166484  0.77501229  1  0  0.209847  0  3.787538  0  0  0.210301  0  4.029947  0  0  0.214048  0  4.052595  0  0  0.10194  0.207319  0  4.015082  0
C  C45  1  0.35806572  0.77501067  0.94165528  1  0  0.209955  0  3.787284  0  0  0.210414  0  4.029667  0  0  0.214148  0  4.052336  0  0  0.101995  0.207433  0  4.01481  0
C  C46  1  0.75698479  0.01463422  0.84329702  1  0  0.018985  0  3.694172  0  0  -0.020048  0  3.956573  0  0  -0.015503  0  3.973833  0  0  0.035852  -0.022705  0  3.944753  0
C  C47  1  0.25697260  0.84329923  0.01463142  1  0  0.018948  0  3.694116  0  0  -0.020033  0  3.95646  0  0  -0.0155  0  3.973744  0  0  0.035813  -0.022695  0  3.944646  0
C  C48  1  0.94951612  0.73779146  0.72996276  1  0  0.607909  0  3.752866  0  0  0.568061  0  4.039732  0  0  0.596191  0  4.039682  0  0  0.25007  0.549117  0  4.03916  0
C  C49  1  0.44949932  0.72996196  0.73778898  1  0  0.608217  0  3.752322  0  0  0.568253  0  4.039313  0  0  0.596393  0  4.039253  0  0  0.250036  0.549305  0  4.038755  0
C  C50  1  0.90414916  0.60557238  0.71612654  1  0  -0.291878  0  3.691776  0  0  -0.336167  0  3.931708  0  0  -0.340476  0  3.939204  0  0  -0.153198  -0.333369  0  3.92688  0
C  C51  1  0.40415766  0.71612609  0.60557530  1  0  -0.29198  0  3.691999  0  0  -0.33618  0  3.93194  0  0  -0.340493  0  3.93943  0  0  -0.153216  -0.33339  0  3.927104  0
C  C52  1  0.01359876  0.55116180  0.77793156  1  0  0.068051  0  3.705774  0  0  0.082369  0  3.940836  0  0  0.082111  0  3.964828  0  0  -0.013027  0.082641  0  3.924592  0
C  C53  1  0.51359737  0.77793066  0.55116054  1  0  0.068206  0  3.705697  0  0  0.082459  0  3.940795  0  0  0.082207  0  3.964785  0  0  -0.012961  0.082728  0  3.924556  0
C  C54  1  0.03113764  0.59590295  0.90628530  1  0  -0.120097  0  3.763248  0  0  -0.139481  0  4.014039  0  0  -0.142337  0  4.035597  0  0  -0.102952  -0.137479  0  3.999326  0
C  C55  1  0.53114365  0.90628758  0.59590022  1  0  -0.120154  0  3.763244  0  0  -0.13956  0  4.014031  0  0  -0.142431  0  4.035601  0  0  -0.103041  -0.137554  0  3.999321  0
C  C56  1  0.13089497  0.55098077  0.96945190  1  0  -0.070056  0  3.787732  0  0  -0.085745  0  4.038259  0  0  -0.087841  0  4.061024  0  0  -0.099074  -0.084026  0  4.022553  0
C  C57  1  0.63090196  0.96945204  0.55097688  1  0  -0.070113  0  3.787881  0  0  -0.085771  0  4.038383  0  0  -0.087868  0  4.061155  0  0  -0.099038  -0.084052  0  4.022675  0
C  C58  1  0.21476185  0.45923831  0.90444591  1  0  -0.065259  0  3.79384  0  0  -0.07777  0  4.041248  0  0  -0.079733  0  4.064589  0  0  -0.099334  -0.076385  0  4.025573  0
C  C59  1  0.71477080  0.90443897  0.45923606  1  0  -0.06531  0  3.794131  0  0  -0.07781  0  4.04153  0  0  -0.07978  0  4.064865  0  0  -0.099317  -0.076423  0  4.025847  0
C  C60  1  0.19711079  0.41291907  0.77652068  1  0  -0.121845  0  3.758055  0  0  -0.137939  0  3.997911  0  0  -0.141071  0  4.019875  0  0  -0.098941  -0.135661  0  3.983003  0
C  C61  1  0.69711638  0.77651415  0.41291840  1  0  -0.121748  0  3.758474  0  0  -0.13791  0  3.998296  0  0  -0.141042  0  4.020264  0  0  -0.098952  -0.135627  0  3.983381  0
C  C62  1  0.09804695  0.45828645  0.71217845  1  0  0.065916  0  3.727041  0  0  0.082867  0  3.959829  0  0  0.082625  0  3.984246  0  0  -0.015525  0.083045  0  3.943238  0
C  C63  1  0.59805254  0.71217751  0.45828730  1  0  0.065736  0  3.727021  0  0  0.082738  0  3.959726  0  0  0.08249  0  3.984139  0  0  -0.015569  0.082918  0  3.943137  0
C  C64  1  0.07937861  0.40283448  0.57426159  1  0  -0.299585  0  3.732441  0  0  -0.34931  0  3.98467  0  0  -0.353422  0  3.992358  0  0  -0.158899  -0.346482  0  3.97943  0
C  C65  1  0.57938047  0.57425307  0.40283718  1  0  -0.299624  0  3.732388  0  0  -0.349278  0  3.984403  0  0  -0.35338  0  3.992078  0  0  -0.15886  -0.346461  0  3.97917  0
C  C66  1  0.93422142  0.33212291  0.53021401  1  0  0.58791  0  3.778313  0  0  0.547418  0  4.074601  0  0  0.574222  0  4.075285  0  0  0.242769  0.529263  0  4.073818  0
C  C67  1  0.43422981  0.53020842  0.33212290  1  0  0.587961  0  3.778242  0  0  0.547446  0  4.074507  0  0  0.574241  0  4.07519  0  0  0.242769  0.529312  0  4.0737  0
C  C68  1  0.76565063  0.25305836  0.34320971  1  0  0.210151  0  3.80995  0  0  0.209642  0  4.057199  0  0  0.214054  0  4.079364  0  0  0.097628  0.206395  0  4.042127  0
C  C69  1  0.26565469  0.34320559  0.25306058  1  0  0.210289  0  3.810007  0  0  0.209709  0  4.057356  0  0  0.214135  0  4.079501  0  0  0.097595  0.206462  0  4.042283  0
C  C70  1  0.67715022  0.17258705  0.37926223  1  0  -0.120743  0  3.688004  0  0  -0.145158  0  3.932557  0  0  -0.145579  0  3.949293  0  0  -0.078961  -0.144694  0  3.921251  0
C  C71  1  0.17715256  0.37926209  0.17258959  1  0  -0.120652  0  3.687833  0  0  -0.145064  0  3.932396  0  0  -0.145491  0  3.949131  0  0  -0.078958  -0.144603  0  3.921096  0
C  C72  1  0.56325098  0.10581417  0.29859797  1  0  -0.104  0  3.774562  0  0  -0.113938  0  4.026492  0  0  -0.118692  0  4.047666  0  0  -0.088076  -0.110928  0  4.012475  0
C  C73  1  0.06324994  0.29860046  0.10581958  1  0  -0.104098  0  3.774688  0  0  -0.114039  0  4.026626  0  0  -0.118802  0  4.047811  0  0  -0.08809  -0.111027  0  4.012605  0
C  C74  1  0.53789440  0.12163780  0.18596571  1  0  0.092914  0  3.728901  0  0  0.059815  0  3.987823  0  0  0.065327  0  4.005967  0  0  0.026156  0.055585  0  3.976667  0
C  C75  1  0.03788962  0.18596646  0.12164128  1  0  0.092834  0  3.728963  0  0  0.059741  0  3.987946  0  0  0.065281  0  4.006047  0  0  0.026056  0.055517  0  3.976777  0
C  C76  1  0.72972303  0.26638540  0.23004813  1  0  -0.001054  0  3.731212  0  0  -0.036936  0  3.990493  0  0  -0.03417  0  4.009167  0  0  0.02603  -0.038499  0  3.977626  0
C  C77  1  0.22972109  0.23004507  0.26638446  1  0  -0.001315  0  3.731538  0  0  -0.037188  0  3.990842  0  0  -0.03443  0  4.009518  0  0  0.025974  -0.038751  0  3.977971  0
I  I78  1  0.70917452  0.48150908  0.04161620  1  0  -0.344608  0  1.108722  0  0  -0.298484  0  1.425827  0  0  -0.315261  0  1.40596  0  0  -0.159607  -0.287027  0  1.439562  0
I  I79  1  0.20916788  0.04162424  0.48151032  1  0  -0.344597  0  1.108689  0  0  -0.298478  0  1.425779  0  0  -0.315249  0  1.405905  0  0  -0.159599  -0.287022  0  1.439512  0
I  I80  1  0.32450447  0.11382825  0.87739565  1  0  -0.313579  0  1.153616  0  0  -0.268575  0  1.490249  0  0  -0.286546  0  1.474487  0  0  -0.150084  -0.256435  0  1.501502  0
I  I81  1  0.82449744  0.87740167  0.11381388  1  0  -0.313551  0  1.153515  0  0  -0.268564  0  1.490155  0  0  -0.286536  0  1.474401  0  0  -0.150072  -0.25643  0  1.501405  0
N  N82  1  0.75681484  0.13480905  0.86234132  1  0  -0.280044  0  3.306179  0  0  -0.201986  0  3.569461  0  0  -0.221419  0  3.593289  0  0  -0.320315  -0.188658  0  3.552562  0
N  N83  1  0.25680625  0.86234861  0.13480182  1  0  -0.280017  0  3.3063  0  0  -0.201973  0  3.569599  0  0  -0.221406  0  3.593428  0  0  -0.320228  -0.188647  0  3.552709  0
N  N84  1  0.84473764  0.81589562  0.75639089  1  0  -0.454528  0  3.366953  0  0  -0.401071  0  3.604433  0  0  -0.42409  0  3.615988  0  0  -0.394925  -0.385199  0  3.59646  0
N  N85  1  0.34474247  0.75639011  0.81589303  1  0  -0.454758  0  3.367315  0  0  -0.401226  0  3.604946  0  0  -0.424263  0  3.616468  0  0  -0.394906  -0.385343  0  3.596936  0
N  N86  1  0.88806371  0.31999856  0.41161717  1  0  -0.453283  0  3.351278  0  0  -0.401614  0  3.589725  0  0  -0.423155  0  3.600917  0  0  -0.402786  -0.386729  0  3.58192  0
N  N87  1  0.38807116  0.41161382  0.31999884  1  0  -0.453316  0  3.351199  0  0  -0.401642  0  3.58969  0  0  -0.42318  0  3.600872  0  0  -0.402731  -0.386767  0  3.581881  0
N  N88  1  0.61940893  0.20263874  0.15446299  1  0  -0.270043  0  3.299124  0  0  -0.198326  0  3.566354  0  0  -0.215126  0  3.58784  0  0  -0.319968  -0.18685  0  3.551521  0
N  N89  1  0.11940250  0.15446276  0.20264447  1  0  -0.269772  0  3.299031  0  0  -0.198044  0  3.566225  0  0  -0.214849  0  3.587715  0  0  -0.319861  -0.186567  0  3.551387  0
O  O90  1  0.07380951  0.77009021  0.71656795  1  0  -0.576602  0  1.971167  0  0  -0.527118  0  2.191524  0  0  -0.548692  0  2.185157  0  0  -0.299106  -0.512204  0  2.195526  0
O  O91  1  0.57382078  0.71656657  0.77010394  1  0  -0.576932  0  1.970014  0  0  -0.527466  0  2.190471  0  0  -0.549045  0  2.1841  0  0  -0.299224  -0.512538  0  2.194459  0
O  O92  1  0.86476021  0.28895348  0.59429943  1  0  -0.511628  0  1.922026  0  0  -0.465332  0  2.129241  0  0  -0.485921  0  2.126521  0  0  -0.273064  -0.451259  0  2.131014  0
O  O93  1  0.36477029  0.59429861  0.28895731  1  0  -0.511616  0  1.921874  0  0  -0.465308  0  2.129061  0  0  -0.485896  0  2.126346  0  0  -0.273061  -0.45124  0  2.130823  0
