# generated using pymatgen
data_ZnFe2H44C52(N2O3)2
_symmetry_space_group_name_H-M   'P 1'
_cell_length_a   11.38011633
_cell_length_b   13.01792056
_cell_length_c   17.75185317
_cell_angle_alpha   107.59188231
_cell_angle_beta   105.95534866
_cell_angle_gamma   101.04077857
_symmetry_Int_Tables_number   1
_chemical_formula_structural   ZnFe2H44C52(N2O3)2
_chemical_formula_sum   'Zn2 Fe4 H88 C104 N8 O12'
_cell_volume   2299.57474168
_cell_formula_units_Z   2
loop_
 _symmetry_equiv_pos_site_id
 _symmetry_equiv_pos_as_xyz
  1  'x, y, z'
loop_
 _atom_site_type_symbol
 _atom_site_label
 _atom_site_symmetry_multiplicity
 _atom_site_fract_x
 _atom_site_fract_y
 _atom_site_fract_z
 _atom_site_occupancy
 _atom_site_pbe_bader_charge
 _atom_site_pbe_bader_spin_density
 _atom_site_pbe_cm5_charge
 _atom_site_pbe_ddec_charge
 _atom_site_pbe_ddec_spin_density
 _atom_site_pbe_ddec_sum_bond_order
 _atom_site_pbe_magmom
Zn  Zn0  1  0.06059915  0.63264490  0.97180772  1  1.322254  0  0.697512  0.837511  0  2.343015  0
Zn  Zn1  1  0.93939844  0.36735312  0.02819247  1  1.322146  0  0.69749  0.837489  0  2.342997  0
Fe  Fe2  1  0.37457237  0.38008147  0.57543719  1  0.718675  0  0.526779  0.21739  0  3.997137  0
Fe  Fe3  1  0.62542942  0.61992328  0.42456409  1  0.718802  0  0.526784  0.217475  0  3.996988  0
Fe  Fe4  1  0.34105439  0.07117894  0.15763122  1  0.732517  0  0.523964  0.210214  0  3.988861  0
Fe  Fe5  1  0.65894626  0.92881733  0.84236463  1  0.732414  0  0.524053  0.210237  0  3.988934  0
H  H6  1  0.31046456  0.12020120  0.75222869  1  0.506696  0  0.298458  0.260538  0  1.022636  0
H  H7  1  0.68953905  0.87980354  0.24777460  1  0.506789  0  0.298497  0.260582  0  1.022607  0
H  H8  1  0.66827390  0.24094635  0.46616487  1  0.536499  0  0.30098  0.266896  0  1.007898  0
H  H9  1  0.33172247  0.75905336  0.53383378  1  0.536504  0  0.300981  0.266923  0  1.007846  0
H  H10  1  0.19892917  0.16379559  0.49947689  1  0.079142  0  0.103031  0.115015  0  1.019763  0
H  H11  1  0.80106747  0.83621001  0.50051746  1  0.07901  0  0.103049  0.115042  0  1.019851  0
H  H12  1  0.11252239  0.34028128  0.48937152  1  0.09485  0  0.111133  0.128605  0  0.979204  0
H  H13  1  0.88747969  0.65972682  0.51062547  1  0.094789  0  0.111196  0.128651  0  0.979287  0
H  H14  1  0.28764117  0.48249553  0.46110586  1  0.091472  0  0.110007  0.125001  0  0.998272  0
H  H15  1  0.71236846  0.51751592  0.53889827  1  0.091509  0  0.110002  0.124993  0  0.998229  0
H  H16  1  0.48085292  0.39096070  0.45093073  1  0.121887  0  0.11157  0.13089  0  1.016799  0
H  H17  1  0.51915401  0.60904571  0.54907408  1  0.121877  0  0.111555  0.130924  0  1.016692  0
H  H18  1  0.42701988  0.19496985  0.47383246  1  0.106175  0  0.102085  0.11587  0  1.032331  0
H  H19  1  0.57298100  0.80503491  0.52616809  1  0.106072  0  0.102024  0.115795  0  1.032413  0
H  H20  1  0.42544487  0.61452653  0.65789540  1  0.173285  0  0.107788  0.138282  0  1.044658  0
H  H21  1  0.57455663  0.38547737  0.34210452  1  0.173327  0  0.10776  0.138208  0  1.044767  0
H  H22  1  0.62682754  0.53121429  0.65424790  1  0.099043  0  0.109441  0.131431  0  1.001475  0
H  H23  1  0.37317456  0.46878877  0.34575419  1  0.099055  0  0.109422  0.131434  0  1.001527  0
H  H24  1  0.57902572  0.33549172  0.68107813  1  0.110222  0  0.101195  0.124313  0  1.046371  0
H  H25  1  0.42097457  0.66451136  0.31892364  1  0.110196  0  0.101193  0.124332  0  1.04635  0
H  H26  1  0.25417694  0.46950675  0.68575378  1  0.080289  0  0.110227  0.134115  0  0.984288  0
H  H27  1  0.74582244  0.53049632  0.31424558  1  0.080193  0  0.110231  0.134126  0  0.98427  0
H  H28  1  0.14815509  0.28835755  0.66949296  1  0.05791  0  0.094424  0.126925  0  1.037187  0
H  H29  1  0.85184819  0.71164892  0.33051403  1  0.058126  0  0.094386  0.126896  0  1.037237  0
H  H30  1  0.98709701  0.10776182  0.75198145  1  0.080104  0  0.100696  0.148791  0  1.001473  0
H  H31  1  0.01290448  0.89224210  0.24802185  1  0.080179  0  0.100683  0.148796  0  1.001435  0
H  H32  1  0.97049650  0.19542859  0.69138873  1  0.072291  0  0.092563  0.13771  0  1.03951  0
H  H33  1  0.02950558  0.80457702  0.30861560  1  0.072189  0  0.092495  0.137651  0  1.039449  0
H  H34  1  0.94846985  0.04861073  0.64210366  1  0.05153  0  0.097911  0.140243  0  0.999476  0
H  H35  1  0.05153435  0.95139571  0.35790011  1  0.051402  0  0.097887  0.140203  0  0.999523  0
H  H36  1  0.30826340  0.08961224  0.89565134  1  0.054673  0  0.097511  0.099282  0  1.03177  0
H  H37  1  0.69173993  0.91038913  0.10435172  1  0.054782  0  0.097492  0.099218  0  1.031695  0
H  H38  1  0.23279173  0.93837003  0.94544487  1  0.106894  0  0.105485  0.103965  0  1.049832  0
H  H39  1  0.76721344  0.06162877  0.05455741  1  0.10693  0  0.105493  0.103882  0  1.049907  0
H  H40  1  0.95337698  0.74210091  0.69803830  1  0.096497  0  0.101101  0.105879  0  1.017836  0
H  H41  1  0.04662843  0.25790633  0.30196192  1  0.0963  0  0.101094  0.105913  0  1.017807  0
H  H42  1  0.02584807  0.89365653  0.64720357  1  0.068349  0  0.098296  0.105093  0  1.014098  0
H  H43  1  0.97415370  0.10635078  0.35279995  1  0.068296  0  0.098267  0.105078  0  1.014147  0
H  H44  1  0.16895145  0.90558115  0.17847819  1  0.101758  0  0.099739  0.115091  0  1.04175  0
H  H45  1  0.83104827  0.09441767  0.82151861  1  0.101748  0  0.099751  0.115098  0  1.041782  0
H  H46  1  0.10781007  0.93041185  0.02925883  1  0.123163  0  0.106377  0.136552  0  1.025536  0
H  H47  1  0.89218965  0.06958697  0.97073854  1  0.123249  0  0.106373  0.136506  0  1.025527  0
H  H48  1  0.17491097  0.15527548  0.05991979  1  0.079494  0  0.103766  0.121249  0  1.007386  0
H  H49  1  0.82509422  0.84472328  0.94007797  1  0.079791  0  0.103807  0.12132  0  1.007386  0
H  H50  1  0.27908502  0.26880282  0.22991406  1  0.121973  0  0.106647  0.128572  0  0.999754  0
H  H51  1  0.72092170  0.73119507  0.77008322  1  0.121757  0  0.106662  0.128646  0  0.999673  0
H  H52  1  0.27622020  0.11513996  0.30375834  1  0.086451  0  0.102853  0.126481  0  1.002854  0
H  H53  1  0.72378136  0.88485630  0.69623823  1  0.086377  0  0.102834  0.126463  0  1.002864  0
H  H54  1  0.44157150  0.12812549  0.04173168  1  0.081915  0  0.103154  0.119849  0  1.00922  0
H  H55  1  0.55843135  0.87186143  0.95826253  1  0.081433  0  0.103162  0.119844  0  1.009282  0
H  H56  1  0.38146840  0.90951843  0.02841099  1  0.100183  0  0.107749  0.128379  0  1.006208  0
H  H57  1  0.61853260  0.09047108  0.97158796  1  0.09892  0  0.107754  0.128382  0  1.006346  0
H  H58  1  0.45656104  0.90705380  0.18515928  1  0.086894  0  0.105192  0.126923  0  1.017428  0
H  H59  1  0.54343776  0.09294507  0.81484300  1  0.086951  0  0.105148  0.126827  0  1.017465  0
H  H60  1  0.55319921  0.26126017  0.20832644  1  0.066507  0  0.106038  0.130781  0  1.010496  0
H  H61  1  0.44680451  0.73873434  0.79166619  1  0.066425  0  0.106081  0.130846  0  1.010405  0
H  H62  1  0.55658546  0.96444012  0.31742237  1  0.115553  0  0.098525  0.132933  0  1.063235  0
H  H63  1  0.44341304  0.03555789  0.68257742  1  0.11556  0  0.098524  0.132935  0  1.063269  0
H  H64  1  0.75052059  0.01337017  0.52613282  1  0.05941  0  0.097143  0.139651  0  1.000925  0
H  H65  1  0.24947881  0.98663036  0.47386599  1  0.05937  0  0.097141  0.139627  0  1.00103  0
H  H66  1  0.64845798  0.91089987  0.42343256  1  0.082957  0  0.103128  0.156787  0  1.002147  0
H  H67  1  0.35154203  0.08909981  0.57656673  1  0.08297  0  0.103125  0.156788  0  1.002097  0
H  H68  1  0.58549920  0.95963501  0.50356673  1  0.052526  0  0.093859  0.127788  0  1.040272  0
H  H69  1  0.41449929  0.04036552  0.49643136  1  0.052518  0  0.093859  0.127774  0  1.040265  0
H  H70  1  0.61075408  0.09441452  0.60770882  1  0.083553  0  0.100526  0.104754  0  1.054263  0
H  H71  1  0.38924686  0.90558262  0.39229177  1  0.083598  0  0.100537  0.104751  0  1.054233  0
H  H72  1  0.71056220  0.17807501  0.76201356  1  0.108365  0  0.107728  0.106611  0  1.022199  0
H  H73  1  0.28943812  0.82192297  0.23798542  1  0.108225  0  0.107714  0.106585  0  1.022212  0
H  H74  1  0.94069661  0.47020283  0.74829437  1  0.160559  0  0.105323  0.123278  0  1.047072  0
H  H75  1  0.05929488  0.52979864  0.25170492  1  0.160394  0  0.105337  0.123332  0  1.047057  0
H  H76  1  0.84529556  0.38395065  0.59092040  1  0.067937  0  0.107074  0.115442  0  0.991939  0
H  H77  1  0.15469533  0.61604914  0.40908011  1  0.06805  0  0.107055  0.115415  0  0.991969  0
H  H78  1  0.33246194  0.70216033  0.10293018  1  0.137215  0  0.120659  0.096929  0  1.014572  0
H  H79  1  0.66753810  0.29783430  0.89707309  1  0.137374  0  0.120687  0.09697  0  1.014587  0
H  H80  1  0.55204022  0.71321594  0.10713110  1  0.092611  0  0.105863  0.111756  0  1.043024  0
H  H81  1  0.44795713  0.28677363  0.89287003  1  0.09275  0  0.105871  0.111776  0  1.043085  0
H  H82  1  0.39252334  0.53070033  0.83511774  1  0.105158  0  0.103665  0.113123  0  1.053765  0
H  H83  1  0.60746912  0.46929352  0.16488289  1  0.104713  0  0.103681  0.113156  0  1.053747  0
H  H84  1  0.17810623  0.52630521  0.84454535  1  0.127799  0  0.121224  0.093473  0  0.993315  0
H  H85  1  0.82188740  0.47369456  0.15545677  1  0.12781  0  0.12118  0.0934  0  0.99336  0
H  H86  1  0.72578974  0.72779236  0.10383038  1  0.062627  0  0.106296  0.108448  0  1.042903  0
H  H87  1  0.27420758  0.27220228  0.89616902  1  0.062654  0  0.106295  0.108431  0  1.042956  0
H  H88  1  0.93931543  0.73071882  0.09644791  1  0.106129  0  0.119854  0.091536  0  1.00954  0
H  H89  1  0.06068155  0.26928003  0.90354954  1  0.106065  0  0.119888  0.091563  0  1.009493  0
H  H90  1  0.79053159  0.54834015  0.83881491  1  0.164747  0  0.121588  0.100703  0  1.00815  0
H  H91  1  0.20946631  0.45165869  0.16118326  1  0.164764  0  0.121614  0.100707  0  1.008105  0
H  H92  1  0.56830275  0.53566344  0.83324229  1  0.097969  0  0.107677  0.1239  0  1.039319  0
H  H93  1  0.43169370  0.46432612  0.16675642  1  0.097474  0  0.107699  0.123909  0  1.039319  0
C  C94  1  0.24565915  0.23285762  0.48540240  1  -0.201635  0  -0.15729  -0.148079  0  4.006552  0
C  C95  1  0.75433989  0.76714968  0.51459613  1  -0.201049  0  -0.157324  -0.148016  0  4.006688  0
C  C96  1  0.20040427  0.32714891  0.48118004  1  -0.134511  0  -0.148393  -0.132813  0  3.994401  0
C  C97  1  0.79959751  0.67285836  0.51881897  1  -0.134094  0  -0.148483  -0.133022  0  3.994743  0
C  C98  1  0.29301828  0.40224867  0.46608252  1  -0.138333  0  -0.147506  -0.133404  0  3.982182  0
C  C99  1  0.70698832  0.59776197  0.53392090  1  -0.138893  0  -0.147483  -0.13334  0  3.982213  0
C  C100  1  0.39532194  0.35424272  0.46099351  1  -0.15395  0  -0.149477  -0.133742  0  3.964865  0
C  C101  1  0.60468589  0.64576621  0.53901032  1  -0.153897  0  -0.149427  -0.133758  0  3.964697  0
C  C102  1  0.36614361  0.24962986  0.47295201  1  -0.172619  0  -0.152473  -0.134406  0  3.984844  0
C  C103  1  0.63385664  0.75037829  0.52704861  1  -0.172928  0  -0.152426  -0.134395  0  3.984872  0
C  C104  1  0.43692775  0.53770805  0.66755137  1  -0.177421  0  -0.154487  -0.147901  0  3.981466  0
C  C105  1  0.56307375  0.46229586  0.33245024  1  -0.177691  0  -0.15445  -0.14777  0  3.981298  0
C  C106  1  0.54281236  0.49348663  0.66545500  1  -0.144007  0  -0.14779  -0.134376  0  3.988202  0
C  C107  1  0.45718760  0.50651814  0.33454653  1  -0.143749  0  -0.147821  -0.134483  0  3.988112  0
C  C108  1  0.51830946  0.39020750  0.67927222  1  -0.133257  0  -0.151478  -0.1704  0  3.968862  0
C  C109  1  0.48168991  0.60979559  0.32072996  1  -0.133423  0  -0.151418  -0.170317  0  3.968762  0
C  C110  1  0.39648341  0.36904805  0.69040224  1  -0.181854  0  -0.085083  -0.061643  0  4.017621  0
C  C111  1  0.60351626  0.63095588  0.30960018  1  -0.181878  0  -0.085081  -0.061685  0  4.017624  0
C  C112  1  0.34554209  0.46049264  0.68184331  1  -0.16499  0  -0.159872  -0.194319  0  4.002939  0
C  C113  1  0.65445850  0.53951128  0.31815813  1  -0.164848  0  -0.159903  -0.1944  0  4.003031  0
C  C114  1  0.33971549  0.27112873  0.70806369  1  0.786737  0  0.117899  0.389846  0  4.08992  0
C  C115  1  0.66028539  0.72887604  0.29193968  1  0.787089  0  0.117974  0.390041  0  4.089659  0
C  C116  1  0.20601945  0.24030581  0.69423779  1  -0.024476  0  -0.155391  -0.439848  0  3.984151  0
C  C117  1  0.79398293  0.75970065  0.30576679  1  -0.024636  0  -0.155342  -0.4399  0  3.984023  0
C  C118  1  0.14505973  0.15132365  0.71156221  1  0.428773  0  0.125899  0.359751  0  3.996754  0
C  C119  1  0.85494447  0.84868279  0.28844212  1  0.428581  0  0.125895  0.359788  0  3.99676  0
C  C120  1  0.00539115  0.12500678  0.69866914  1  -0.088241  0  -0.238611  -0.457785  0  3.927381  0
C  C121  1  0.99461246  0.87499797  0.30133471  1  -0.08802  0  -0.23852  -0.457703  0  3.927334  0
C  C122  1  0.16982423  0.00218275  0.76896522  1  0.353998  0  0.089245  0.219311  0  4.039734  0
C  C123  1  0.83018119  0.99782199  0.23104008  1  0.354452  0  0.089299  0.219387  0  4.039949  0
C  C124  1  0.23005694  0.01362156  0.85254696  1  -0.042027  0  -0.095678  -0.169569  0  3.980107  0
C  C125  1  0.76994941  0.98638315  0.14745625  1  -0.042737  0  -0.095572  -0.169342  0  3.979924  0
C  C126  1  0.18889902  0.92900626  0.88013881  1  -0.063052  0  -0.080603  -0.06694  0  3.954431  0
C  C127  1  0.81110492  0.07099424  0.11986306  1  -0.062593  0  -0.080696  -0.066922  0  3.954514  0
C  C128  1  0.08893571  0.83103754  0.82466119  1  -0.010749  0  -0.018369  -0.032892  0  3.953664  0
C  C129  1  0.91106671  0.16896381  0.17533946  1  -0.010676  0  -0.018338  -0.032936  0  3.953599  0
C  C130  1  0.03054426  0.81902221  0.74073790  1  0.022234  0  -0.078557  -0.067875  0  3.974219  0
C  C131  1  0.96945784  0.18098085  0.25926419  1  0.022413  0  -0.078599  -0.06797  0  3.974302  0
C  C132  1  0.07044349  0.90389643  0.71282053  1  -0.071701  0  -0.094962  -0.175125  0  3.984735  0
C  C133  1  0.92956041  0.09610917  0.28718413  1  -0.071573  0  -0.095006  -0.175227  0  3.984994  0
C  C134  1  0.04561679  0.73858385  0.85404831  1  1.564119  0  0.195788  0.563567  0  4.239926  0
C  C135  1  0.95438293  0.26141498  0.14595018  1  1.564005  0  0.195807  0.56364  0  4.239906  0
C  C136  1  0.18147037  0.98599800  0.17055937  1  -0.145889  0  -0.157353  -0.144511  0  3.988912  0
C  C137  1  0.81852967  0.01399911  0.82943656  1  -0.145931  0  -0.157444  -0.144696  0  3.989099  0
C  C138  1  0.14851946  0.99917268  0.09082335  1  -0.152266  0  -0.149472  -0.126347  0  3.942845  0
C  C139  1  0.85148149  0.00082443  0.90917330  1  -0.152035  0  -0.149446  -0.126196  0  3.942804  0
C  C140  1  0.18536308  0.11774029  0.10739055  1  -0.176447  0  -0.151158  -0.130064  0  3.976998  0
C  C141  1  0.81463969  0.88225680  0.89260642  1  -0.176643  0  -0.151233  -0.130238  0  3.977112  0
C  C142  1  0.24102715  0.17780108  0.19723138  1  -0.112903  0  -0.150476  -0.130381  0  3.97387  0
C  C143  1  0.75897774  0.82219685  0.80276671  1  -0.112798  0  -0.150472  -0.13044  0  3.973887  0
C  C144  1  0.23821726  0.09616239  0.23621697  1  -0.18534  0  -0.148166  -0.123244  0  3.971203  0
C  C145  1  0.76178460  0.90383471  0.76378041  1  -0.185476  0  -0.148126  -0.123108  0  3.971198  0
C  C146  1  0.46103998  0.09902570  0.09383430  1  -0.126593  0  -0.152177  -0.131129  0  3.995345  0
C  C147  1  0.53896224  0.90096461  0.90615997  1  -0.137867  0  -0.152174  -0.131098  0  3.995302  0
C  C148  1  0.42977149  0.98349684  0.08653505  1  -0.168136  0  -0.153419  -0.137421  0  4.001159  0
C  C149  1  0.57023191  0.01649687  0.91346298  1  -0.166553  0  -0.153458  -0.137447  0  4.001236  0
C  C150  1  0.46865449  0.98215185  0.16978980  1  -0.14698  0  -0.156444  -0.185248  0  3.980726  0
C  C151  1  0.53134615  0.01784444  0.83021000  1  -0.147501  0  -0.156377  -0.185098  0  3.980607  0
C  C152  1  0.52587475  0.09781083  0.22958828  1  -0.159797  0  -0.084138  -0.051145  0  4.000437  0
C  C153  1  0.47412622  0.90218375  0.77040951  1  -0.159528  0  -0.084153  -0.051032  0  4.000447  0
C  C154  1  0.51935047  0.16965530  0.18155901  1  -0.114325  0  -0.15021  -0.160208  0  3.950036  0
C  C155  1  0.48065141  0.83033925  0.81843555  1  -0.102501  0  -0.150259  -0.160358  0  3.950059  0
C  C156  1  0.57410630  0.13670034  0.32225757  1  0.863316  0  0.127443  0.404085  0  4.060844  0
C  C157  1  0.42588888  0.86329599  0.67773958  1  0.863055  0  0.127326  0.403967  0  4.060962  0
C  C158  1  0.58248056  0.05235222  0.35881469  1  -0.016346  0  -0.14427  -0.411815  0  3.939561  0
C  C159  1  0.41751492  0.94764495  0.64118213  1  -0.016265  0  -0.144248  -0.411764  0  3.93951  0
C  C160  1  0.63475622  0.07724001  0.44461942  1  0.322386  0  0.116651  0.336419  0  4.000499  0
C  C161  1  0.36523897  0.92275631  0.55537716  1  0.322508  0  0.116565  0.336264  0  4.000461  0
C  C162  1  0.65602041  0.98537505  0.47610496  1  -0.09057  0  -0.233496  -0.451454  0  3.925893  0
C  C163  1  0.34397687  0.01462465  0.52389329  1  -0.090248  0  -0.233453  -0.451359  0  3.92584  0
C  C164  1  0.72599273  0.23056278  0.58748211  1  0.362591  0  0.100924  0.234938  0  4.048345  0
C  C165  1  0.27400301  0.76943781  0.41251944  1  0.362761  0  0.10092  0.234913  0  4.048352  0
C  C166  1  0.68674852  0.17413020  0.63685429  1  -0.033944  0  -0.098042  -0.183692  0  3.963722  0
C  C167  1  0.31324816  0.82586783  0.36314574  1  -0.034106  0  -0.098084  -0.183752  0  3.96368  0
C  C168  1  0.74216834  0.22182203  0.72433403  1  -0.061516  0  -0.079758  -0.072406  0  3.994224  0
C  C169  1  0.25782713  0.77817516  0.27566504  1  -0.061326  0  -0.079764  -0.072407  0  3.994162  0
C  C170  1  0.83747271  0.32653955  0.76515840  1  -0.058691  0  -0.032941  -0.080114  0  4.015626  0
C  C171  1  0.16252274  0.67346017  0.23484009  1  -0.058158  0  -0.032902  -0.080038  0  4.015656  0
C  C172  1  0.87216047  0.38575898  0.71637802  1  0.032315  0  -0.083245  -0.074065  0  3.966976  0
C  C173  1  0.12783073  0.61424164  0.28362104  1  0.031775  0  -0.083273  -0.074142  0  3.966942  0
C  C174  1  0.81703616  0.33848006  0.62876650  1  -0.135841  0  -0.097627  -0.190915  0  3.974849  0
C  C175  1  0.18295624  0.66152140  0.37123295  1  -0.135932  0  -0.097614  -0.190907  0  3.974823  0
C  C176  1  0.90270596  0.37363647  0.85876866  1  1.555033  0  0.212911  0.575609  0  4.220082  0
C  C177  1  0.09728858  0.62636328  0.14123193  1  1.555502  0  0.212899  0.575612  0  4.220289  0
C  C178  1  0.35072165  0.66544555  0.04506198  1  0.486882  0  0.051111  0.103188  0  3.9294  0
C  C179  1  0.64927809  0.33454823  0.95493993  1  0.486546  0  0.051032  0.103125  0  3.929448  0
C  C180  1  0.47431284  0.67159005  0.04616347  1  -0.077495  0  -0.08212  -0.171767  0  3.937559  0
C  C181  1  0.52568299  0.32840037  0.95383645  1  -0.077071  0  -0.082125  -0.171798  0  3.937528  0
C  C182  1  0.49454380  0.62393107  0.97037757  1  0.045963  0  0.010887  0.097792  0  3.9816  0
C  C183  1  0.50545202  0.37605935  0.02962291  1  0.045934  0  0.010885  0.097775  0  3.981744  0
C  C184  1  0.38525138  0.57024501  0.89642658  1  -0.081802  0  -0.081319  -0.167552  0  3.92192  0
C  C185  1  0.61474260  0.42974797  0.10357356  1  -0.081695  0  -0.081311  -0.167673  0  3.922253  0
C  C186  1  0.26477302  0.56740500  0.90081689  1  0.49356  0  0.051583  0.103732  0  3.939075  0
C  C187  1  0.73522215  0.43259136  0.09918420  1  0.493537  0  0.051611  0.10389  0  3.939227  0
C  C188  1  0.62476916  0.62966377  0.96882104  1  -0.068379  0  0.015142  0.102012  0  3.974028  0
C  C189  1  0.37522606  0.37032750  0.03117782  1  -0.071978  0  0.01518  0.10208  0  3.973945  0
C  C190  1  0.73318623  0.68584150  0.04300236  1  0.039633  0  -0.082398  -0.17329  0  3.951814  0
C  C191  1  0.26680988  0.31415229  0.95699552  1  0.039607  0  -0.082419  -0.173358  0  3.951963  0
C  C192  1  0.85382008  0.68767332  0.03984550  1  0.494162  0  0.050779  0.104764  0  3.950229  0
C  C193  1  0.14617813  0.31232382  0.96015180  1  0.494481  0  0.050754  0.104871  0  3.950303  0
C  C194  1  0.77041881  0.58513686  0.89602145  1  0.446006  0  0.057815  0.109641  0  3.906038  0
C  C195  1  0.22957849  0.41486030  0.10397681  1  0.445578  0  0.057751  0.10964  0  3.90589  0
C  C196  1  0.64637155  0.57980709  0.89384939  1  -0.02153  0  -0.076618  -0.159703  0  3.890433  0
C  C197  1  0.35362669  0.42018499  0.10614962  1  -0.017413  0  -0.07663  -0.159694  0  3.890344  0
N  N198  1  0.21378501  0.09043328  0.74322157  1  -1.277209  0  -0.394981  -0.332284  0  3.595609  0
N  N199  1  0.78621948  0.90957401  0.25678413  1  -1.277524  0  -0.395014  -0.332362  0  3.59578  0
N  N200  1  0.24702840  0.61457426  0.97383314  1  -1.237132  0  -0.312433  -0.216722  0  3.498189  0
N  N201  1  0.75296768  0.38542210  0.02616811  1  -1.236955  0  -0.312372  -0.21671  0  3.49838  0
N  N202  1  0.87292556  0.63682673  0.96813873  1  -1.231411  0  -0.317066  -0.228092  0  3.534276  0
N  N203  1  0.12707234  0.36317210  0.03185775  1  -1.231264  0  -0.317083  -0.228221  0  3.534454  0
N  N204  1  0.67463537  0.18684716  0.49949809  1  -1.299355  0  -0.393948  -0.329903  0  3.598893  0
N  N205  1  0.32536041  0.81315087  0.50050009  1  -1.299539  0  -0.393905  -0.329791  0  3.598877  0
O  O206  1  0.41416946  0.21863813  0.73662103  1  -1.142008  0  -0.308853  -0.483363  0  2.121051  0
O  O207  1  0.58583262  0.78136748  0.26338218  1  -1.142333  0  -0.308932  -0.483466  0  2.12098  0
O  O208  1  0.09962532  0.76161330  0.93437467  1  -1.179555  0  -0.334596  -0.571946  0  2.33008  0
O  O209  1  0.90037077  0.23838304  0.06562433  1  -1.179603  0  -0.334548  -0.571896  0  2.330081  0
O  O210  1  0.96426393  0.64719947  0.80203434  1  -1.19661  0  -0.331428  -0.569111  0  2.152276  0
O  O211  1  0.03574065  0.35280014  0.19796294  1  -1.196613  0  -0.331455  -0.569153  0  2.152194  0
O  O212  1  0.61175369  0.24183142  0.36736536  1  -1.142072  0  -0.297428  -0.466949  0  2.110805  0
O  O213  1  0.38824179  0.75816576  0.63263146  1  -1.142177  0  -0.29733  -0.46693  0  2.110899  0
O  O214  1  0.86752736  0.31393860  0.89896941  1  -1.182948  0  -0.314069  -0.547936  0  2.35299  0
O  O215  1  0.13246718  0.68606115  0.10103118  1  -1.183202  0  -0.3141  -0.547979  0  2.353061  0
O  O216  1  0.99210404  0.46622387  0.89262619  1  -1.206562  0  -0.3222  -0.58568  0  2.471477  0
O  O217  1  0.00789414  0.53377584  0.10737447  1  -1.206673  0  -0.322132  -0.585615  0  2.471488  0
