# generated using pymatgen
data_CuH8C12(NO2)2
_symmetry_space_group_name_H-M   'P 1'
_cell_length_a   7.74493234
_cell_length_b   10.35134746
_cell_length_c   19.17991486
_cell_angle_alpha   90.00092360
_cell_angle_beta   89.99842672
_cell_angle_gamma   89.99958584
_symmetry_Int_Tables_number   1
_chemical_formula_structural   CuH8C12(NO2)2
_chemical_formula_sum   'Cu4 H32 C48 N8 O16'
_cell_volume   1537.66309015
_cell_formula_units_Z   4
loop_
 _symmetry_equiv_pos_site_id
 _symmetry_equiv_pos_as_xyz
  1  'x, y, z'
loop_
 _atom_site_type_symbol
 _atom_site_label
 _atom_site_symmetry_multiplicity
 _atom_site_fract_x
 _atom_site_fract_y
 _atom_site_fract_z
 _atom_site_occupancy
 _atom_site_pbe_bader_charge
 _atom_site_pbe_bader_spin_density
 _atom_site_pbe_cm5_charge
 _atom_site_pbe_ddec_charge
 _atom_site_pbe_ddec_spin_density
 _atom_site_pbe_ddec_sum_bond_order
 _atom_site_pbe_magmom
Cu  Cu0  1  0.25002699  0.42132020  0.12256878  1  1.040581  0.547147  0.744265  0.743725  0.712392  2.186559  0.548
Cu  Cu1  1  0.24997958  0.57867236  0.62256856  1  1.040536  0.547151  0.74423  0.743939  0.712396  2.186138  0.548
Cu  Cu2  1  0.74997513  0.92135414  0.37742803  1  1.040813  0.547166  0.744228  0.744035  0.712395  2.186006  0.548
Cu  Cu3  1  0.75004741  0.07867320  0.87742499  1  1.040491  0.547154  0.744302  0.743996  0.712394  2.186214  0.548
H  H4  1  0.87209985  0.51824799  0.06253837  1  0.123582  0.001159  0.107926  0.114093  0.000578  1.033768  0.001
H  H5  1  0.28236657  0.52328405  0.34464250  1  0.152827  0.000743  0.119352  0.129609  0.000552  0.985098  0.0
H  H6  1  0.00590805  0.80339025  0.46707959  1  0.188784  0.002387  0.12125  0.098672  0.001412  1.042631  0.001
H  H7  1  0.61358591  0.38184758  0.09310243  1  0.113684  0.002269  0.114056  0.08217  0.000903  1.013708  0.002
H  H8  1  0.29516285  0.70235569  0.10515206  1  0.153331  0.002541  0.11984  0.099368  0.001228  1.015529  0.002
H  H9  1  0.90552168  0.78093635  0.25438481  1  0.158835  0.001643  0.125708  0.109348  0.000671  0.994915  0.002
H  H10  1  0.83353317  0.75731441  0.05286284  1  0.103411  0.000244  0.112814  0.110964  0.00012  0.980442  0.0
H  H11  1  0.54092009  0.85235916  0.07197289  1  0.123582  0.001275  0.110444  0.132926  0.000682  1.025544  0.001
H  H12  1  0.62791178  0.48173523  0.56253240  1  0.123543  0.00116  0.107954  0.11409  0.000578  1.033824  0.001
H  H13  1  0.21762234  0.47668226  0.84464175  1  0.153438  0.000742  0.119322  0.129523  0.000552  0.985174  0.0
H  H14  1  0.49409967  0.19657582  0.96707071  1  0.189391  0.002385  0.121313  0.098787  0.001412  1.042595  0.001
H  H15  1  0.88642623  0.61813075  0.59309009  1  0.114023  0.002269  0.114158  0.082188  0.000903  1.013832  0.002
H  H16  1  0.20482166  0.29761509  0.60514571  1  0.153174  0.002541  0.119852  0.099461  0.001228  1.015738  0.002
H  H17  1  0.59451050  0.21904966  0.75438005  1  0.158324  0.001644  0.12563  0.10921  0.000671  0.995094  0.002
H  H18  1  0.66644813  0.24266659  0.55286791  1  0.103115  0.000244  0.112798  0.110954  0.000121  0.980406  0.0
H  H19  1  0.95905605  0.14762627  0.57197544  1  0.123298  0.001276  0.110397  0.132962  0.000682  1.025514  0.001
H  H20  1  0.12789580  0.01826947  0.43747576  1  0.123411  0.001159  0.107916  0.114046  0.000578  1.03395  0.001
H  H21  1  0.71761870  0.02330456  0.15535760  1  0.152996  0.000743  0.119363  0.129519  0.000553  0.985056  0.0
H  H22  1  0.99410941  0.30337664  0.03291462  1  0.188383  0.002388  0.121286  0.09868  0.001412  1.042705  0.001
H  H23  1  0.38642304  0.88187085  0.40691488  1  0.114108  0.002267  0.114209  0.08233  0.000902  1.013835  0.002
H  H24  1  0.70482071  0.20239305  0.39486525  1  0.153082  0.00254  0.119813  0.099295  0.001228  1.015566  0.002
H  H25  1  0.09449857  0.28095135  0.24560711  1  0.158725  0.001644  0.125723  0.109273  0.000671  0.995088  0.002
H  H26  1  0.16644470  0.25733404  0.44714713  1  0.102906  0.000244  0.112815  0.111045  0.000121  0.98074  0.0
H  H27  1  0.45904009  0.35238242  0.42804990  1  0.123137  0.001275  0.110312  0.132827  0.000682  1.025586  0.001
H  H28  1  0.37208552  0.98173050  0.93745530  1  0.123457  0.001159  0.107979  0.1141  0.000578  1.033734  0.001
H  H29  1  0.78236855  0.97671812  0.65535268  1  0.152832  0.000743  0.119307  0.129543  0.000553  0.985079  0.0
H  H30  1  0.50589262  0.69660666  0.53292909  1  0.188895  0.002387  0.12131  0.098756  0.001412  1.042599  0.001
H  H31  1  0.11358489  0.11814174  0.90687826  1  0.113788  0.002269  0.11417  0.082296  0.000903  1.013685  0.002
H  H32  1  0.79515933  0.79765123  0.89483985  1  0.153144  0.002541  0.119918  0.099476  0.001229  1.015696  0.002
H  H33  1  0.40550352  0.71909316  0.74562308  1  0.158959  0.001644  0.125673  0.109269  0.000672  0.994932  0.002
H  H34  1  0.33350369  0.74267202  0.94714377  1  0.103496  0.000244  0.112782  0.110939  0.00012  0.980477  0.0
H  H35  1  0.04089539  0.64764240  0.92803280  1  0.123462  0.001275  0.110448  0.132966  0.000682  1.02558  0.001
C  C36  1  0.24183183  0.61284938  0.47988877  1  1.591232  0.00041  0.197733  0.555533  0.000317  4.250521  -0.002
C  C37  1  0.12820002  0.58867023  0.21941420  1  1.588707  -0.000964  0.195677  0.555832  -0.001496  4.250123  -0.003
C  C38  1  0.15587054  0.65829780  0.41392982  1  -0.051488  0.013391  -0.010256  -0.066854  0.009339  3.956461  0.01
C  C39  1  0.74647783  0.56226303  0.07162689  1  0.006849  0.006184  -0.07721  -0.107422  0.004326  3.944766  0.005
C  C40  1  0.18878872  0.60130320  0.34934881  1  -0.003211  -0.002493  -0.046662  -0.046623  -0.003132  3.867819  -0.002
C  C41  1  0.09913316  0.64538573  0.29076530  1  0.037879  0.014791  -0.007129  -0.058457  0.010516  3.937566  0.012
C  C42  1  0.03320393  0.75653177  0.41760039  1  0.438083  -0.001068  0.056326  0.08507  -0.00163  3.887955  -0.001
C  C43  1  0.60471910  0.48664260  0.08910240  1  0.433645  -0.001099  0.041372  0.080117  -0.001651  3.936765  -0.001
C  C44  1  0.42559574  0.66702066  0.09539462  1  0.401571  -0.000677  0.045994  0.081745  -0.001201  3.930213  0.0
C  C45  1  0.97782311  0.74424498  0.29890843  1  0.426832  -0.000576  0.064326  0.089806  -0.00146  3.865237  0.0
C  C46  1  0.72436357  0.69563211  0.06606761  1  -0.014835  -0.004165  -0.055476  -0.001372  -0.004719  3.918677  -0.003
C  C47  1  0.56139959  0.74875045  0.07761781  1  -0.015731  0.00635  -0.081138  -0.132094  0.004434  3.952662  0.005
C  C48  1  0.25817502  0.38713639  0.97987896  1  1.592397  0.00041  0.197587  0.555082  0.000316  4.251542  -0.002
C  C49  1  0.37181805  0.41130008  0.71940960  1  1.588953  -0.000964  0.195495  0.555743  -0.001493  4.250471  -0.003
C  C50  1  0.34413820  0.34166767  0.91391970  1  -0.050478  0.013393  -0.009995  -0.066138  0.009341  3.956607  0.01
C  C51  1  0.75352802  0.43771949  0.57161810  1  0.00711  0.006184  -0.077255  -0.107423  0.004327  3.944667  0.005
C  C52  1  0.31121537  0.39866228  0.84934216  1  -0.003764  -0.00249  -0.046586  -0.046549  -0.003131  3.867913  -0.002
C  C53  1  0.40088394  0.35458574  0.79075622  1  0.037462  0.014789  -0.007146  -0.058612  0.010514  3.937699  0.012
C  C54  1  0.46681102  0.24344443  0.91759587  1  0.437546  -0.001066  0.056225  0.084677  -0.001631  3.888093  -0.001
C  C55  1  0.89528686  0.51334044  0.58909426  1  0.433485  -0.001098  0.041195  0.080077  -0.001651  3.936722  -0.001
C  C56  1  0.07441010  0.33295853  0.59538533  1  0.40149  -0.000674  0.045903  0.081519  -0.0012  3.930686  0.0
C  C57  1  0.52219959  0.25573077  0.79890427  1  0.426994  -0.000574  0.064249  0.089741  -0.001458  3.86515  0.0
C  C58  1  0.77563104  0.30435217  0.56606940  1  -0.014564  -0.004165  -0.055386  -0.001264  -0.004719  3.9184  -0.003
C  C59  1  0.93859295  0.25123031  0.57762149  1  -0.01589  0.006351  -0.08103  -0.132074  0.004435  3.95224  0.005
C  C60  1  0.75817712  0.11284538  0.02011420  1  1.591017  0.00041  0.197686  0.555418  0.000318  4.250666  -0.002
C  C61  1  0.87182336  0.08870618  0.28058438  1  1.588877  -0.000965  0.19545  0.555571  -0.001496  4.250328  -0.003
C  C62  1  0.84414314  0.15830590  0.08606834  1  -0.051514  0.013388  -0.010104  -0.066591  0.009337  3.956659  0.01
C  C63  1  0.25350449  0.06229901  0.42838711  1  0.007608  0.006185  -0.077078  -0.107115  0.004327  3.944581  0.005
C  C64  1  0.81121517  0.10132500  0.15064989  1  -0.002919  -0.002492  -0.046668  -0.046449  -0.003132  3.867582  -0.002
C  C65  1  0.90087935  0.14540298  0.20923483  1  0.037469  0.014782  -0.007188  -0.058648  0.010509  3.937751  0.012
C  C66  1  0.96681785  0.25652654  0.08239497  1  0.438173  -0.001069  0.056244  0.084917  -0.00163  3.888256  -0.001
C  C67  1  0.39528110  0.98666691  0.41091270  1  0.432924  -0.001099  0.040997  0.079696  -0.001652  3.936683  -0.001
C  C68  1  0.57439074  0.16704936  0.40461873  1  0.401574  -0.000677  0.046001  0.081843  -0.001203  3.930343  0.0
C  C69  1  0.02219491  0.24426001  0.20108474  1  0.427231  -0.000575  0.06437  0.089884  -0.001459  3.865165  0.0
C  C70  1  0.27561102  0.19566138  0.43394859  1  -0.014473  -0.004165  -0.055315  -0.001456  -0.004719  3.919142  -0.003
C  C71  1  0.43856932  0.24877752  0.42239938  1  -0.015974  0.006352  -0.081117  -0.132013  0.004434  3.952463  0.005
C  C72  1  0.74182577  0.88715204  0.52012303  1  1.591847  0.000412  0.197679  0.555391  0.000318  4.251175  -0.002
C  C73  1  0.62821737  0.91135983  0.78057904  1  1.588013  -0.000966  0.195666  0.55568  -0.001498  4.250978  -0.003
C  C74  1  0.65585915  0.84169733  0.58607407  1  -0.050914  0.013383  -0.010178  -0.06673  0.009336  3.956786  0.01
C  C75  1  0.24646196  0.93772388  0.92837182  1  0.00718  0.006182  -0.077193  -0.107334  0.004325  3.94473  0.005
C  C76  1  0.68878144  0.89869658  0.65065628  1  -0.002974  -0.002492  -0.0465  -0.046339  -0.003131  3.867501  -0.002
C  C77  1  0.59912233  0.85462227  0.70924339  1  0.037659  0.014786  -0.007218  -0.05861  0.010513  3.937734  0.012
C  C78  1  0.53318469  0.74346789  0.58240486  1  0.438104  -0.001071  0.056248  0.084936  -0.001633  3.887977  -0.001
C  C79  1  0.10471235  0.01334677  0.91088621  1  0.433842  -0.001101  0.041308  0.080008  -0.001653  3.936676  -0.001
C  C80  1  0.92558476  0.83297686  0.90460262  1  0.401465  -0.000675  0.045897  0.081563  -0.001199  3.930531  0.0
C  C81  1  0.47780246  0.75577158  0.70109657  1  0.427205  -0.000575  0.064405  0.089987  -0.001458  3.865094  0.0
C  C82  1  0.22434472  0.80436071  0.93393134  1  -0.014626  -0.004164  -0.055522  -0.001408  -0.004718  3.91873  -0.003
C  C83  1  0.06138203  0.75124423  0.92238400  1  -0.015875  0.00635  -0.081124  -0.132111  0.004434  3.952567  0.005
N  N84  1  0.44770739  0.53839686  0.10125058  1  -1.228709  0.094293  -0.350694  -0.223523  0.063375  3.636066  0.082
N  N85  1  0.94491147  0.79774724  0.36145605  1  -1.219274  0.082177  -0.346752  -0.22832  0.05544  3.62599  0.072
N  N86  1  0.05228901  0.46158154  0.60124527  1  -1.22835  0.094316  -0.350647  -0.223593  0.063391  3.636324  0.082
N  N87  1  0.55510699  0.20223809  0.86145262  1  -1.219525  0.082182  -0.346763  -0.228082  0.055443  3.625858  0.072
N  N88  1  0.55229840  0.03841970  0.39875956  1  -1.228042  0.094296  -0.350662  -0.223618  0.063379  3.636188  0.082
N  N89  1  0.05511379  0.29774768  0.13853654  1  -1.219536  0.082158  -0.34685  -0.22811  0.055426  3.626077  0.072
N  N90  1  0.94770849  0.96159475  0.89873599  1  -1.228901  0.094281  -0.350749  -0.223574  0.063365  3.636246  0.082
N  N91  1  0.44489041  0.70226467  0.63855245  1  -1.220277  0.082175  -0.346801  -0.228373  0.055439  3.626219  0.072
O  O92  1  0.22846351  0.48815066  0.21853312  1  -1.112068  0.119676  -0.335203  -0.54808  0.077022  2.309327  0.108
O  O93  1  0.18896153  0.67157025  0.53576287  1  -1.111173  0.110262  -0.332935  -0.552279  0.071125  2.342375  0.099
O  O94  1  0.05858571  0.63858199  0.16725712  1  -1.168069  0.001364  -0.319969  -0.557946  -6.4e-05  2.143516  0.002
O  O95  1  0.35243495  0.52523148  0.47814897  1  -1.158777  0.002714  -0.313606  -0.546136  0.000912  2.141012  0.002
O  O96  1  0.27157011  0.51183122  0.71852947  1  -1.112583  0.119668  -0.335136  -0.548038  0.077017  2.309488  0.108
O  O97  1  0.31104964  0.32841780  0.03575117  1  -1.111101  0.110303  -0.333032  -0.552317  0.07115  2.342408  0.099
O  O98  1  0.44139975  0.36137228  0.66724870  1  -1.167711  0.001361  -0.319873  -0.557885  -6.6e-05  2.143512  0.002
O  O99  1  0.14757977  0.47475618  0.97814689  1  -1.160191  0.002715  -0.313484  -0.545917  0.000912  2.141492  0.002
O  O100  1  0.77155863  0.98816908  0.28147365  1  -1.112438  0.119682  -0.335181  -0.548054  0.077025  2.309292  0.108
O  O101  1  0.81103745  0.17157141  0.96423723  1  -1.111088  0.11028  -0.332955  -0.552337  0.071136  2.342133  0.099
O  O102  1  0.94140104  0.13862974  0.33274555  1  -1.167683  0.001356  -0.319814  -0.557776  -6.9e-05  2.143588  0.002
O  O103  1  0.64757742  0.02522040  0.02184958  1  -1.158638  0.002713  -0.313586  -0.546124  0.000911  2.141062  0.002
O  O104  1  0.72848076  0.01188053  0.78144734  1  -1.111266  0.119682  -0.335346  -0.548208  0.077024  2.30953  0.108
O  O105  1  0.68896757  0.82844016  0.46424169  1  -1.111726  0.110278  -0.33291  -0.552266  0.071133  2.342274  0.099
O  O106  1  0.55861936  0.86146970  0.83274785  1  -1.168321  0.001365  -0.319878  -0.557846  -6.4e-05  2.143884  0.002
O  O107  1  0.85242535  0.97478093  0.52185638  1  -1.159291  0.002715  -0.313598  -0.546129  0.000912  2.141062  0.002
