# generated using pymatgen
data_CoH16C21(NO2)3
_symmetry_space_group_name_H-M   'P 1'
_cell_length_a   10.63119838
_cell_length_b   11.02153888
_cell_length_c   11.24020288
_cell_angle_alpha   77.43282462
_cell_angle_beta   63.19877024
_cell_angle_gamma   74.26212445
_symmetry_Int_Tables_number   1
_chemical_formula_structural   CoH16C21(NO2)3
_chemical_formula_sum   'Co2 H32 C42 N6 O12'
_cell_volume   1124.50824468
_cell_formula_units_Z   2
loop_
 _symmetry_equiv_pos_site_id
 _symmetry_equiv_pos_as_xyz
  1  'x, y, z'
loop_
 _atom_site_type_symbol
 _atom_site_label
 _atom_site_symmetry_multiplicity
 _atom_site_fract_x
 _atom_site_fract_y
 _atom_site_fract_z
 _atom_site_occupancy
 _atom_site_hle17_ddec_charge
 _atom_site_hle17_ddec_spin_density
 _atom_site_hle17_ddec_sum_bond_order
 _atom_site_hle17_magmom
 _atom_site_hse06_10hf_ddec_charge
 _atom_site_hse06_10hf_ddec_spin_density
 _atom_site_hse06_10hf_ddec_sum_bond_order
 _atom_site_hse06_10hf_magmom
 _atom_site_hse06_ddec_charge
 _atom_site_hse06_ddec_spin_density
 _atom_site_hse06_ddec_sum_bond_order
 _atom_site_hse06_magmom
 _atom_site_pbe_cm5_charge
 _atom_site_pbe_ddec_charge
 _atom_site_pbe_ddec_spin_density
 _atom_site_pbe_ddec_sum_bond_order
 _atom_site_pbe_magmom
Co  Co0  1  0.45990535  0.45446590  0.90966703  1  0.995447  -2.863852  2.004799  -2.558  0.965095  -2.839806  2.422967  -2.624  1.049043  -2.889658  2.344516  -2.708  0.6492  0.888803  -2.78647  2.49754  -2.54
Co  Co1  1  0.54009523  0.54553213  0.09033572  1  0.995415  2.863853  2.004845  2.558  0.965049  2.839803  2.423022  2.624  1.049012  2.889652  2.344542  2.708  0.649173  0.888738  2.786465  2.497613  2.54
H  H2  1  0.66636194  0.84792168  0.58866907  1  0.088164  1e-06  0.985921  0.0  0.097276  -4e-06  1.050869  0.0  0.098273  -2e-06  1.05308  0.0  0.096506  0.09651  -5e-06  1.049507  0.0
H  H3  1  0.33363531  0.15207721  0.41132868  1  0.088147  -1e-06  0.985917  0.0  0.097249  4e-06  1.050872  0.0  0.098243  3e-06  1.053084  0.0  0.096514  0.096483  5e-06  1.049508  0.0
H  H4  1  0.77818616  0.01464970  0.57277901  1  0.0951  -7.2e-05  0.930704  0.0  0.107039  -8.1e-05  0.999704  0.0  0.108478  -6e-05  0.998312  0.0  0.115416  0.10588  -0.000105  1.000896  0.0
H  H5  1  0.22181196  0.98535010  0.42721372  1  0.095069  7.2e-05  0.930732  0.0  0.107026  8.1e-05  0.999709  0.0  0.108456  6e-05  0.998305  0.0  0.115388  0.105863  0.000105  1.000909  0.0
H  H6  1  0.74208599  0.16477114  0.48359617  1  0.087759  1.1e-05  0.925108  0.0  0.103025  -6e-06  0.989552  0.0  0.103323  -3e-06  0.989733  0.0  0.118894  0.102617  -1.2e-05  0.989643  0.0
H  H7  1  0.25790957  0.83523055  0.51639811  1  0.087786  -1.2e-05  0.925008  0.0  0.103041  7e-06  0.98946  0.0  0.103325  2e-06  0.989641  0.0  0.118911  0.102633  1.2e-05  0.989549  0.0
H  H8  1  0.10843240  0.73218490  0.81202733  1  0.099673  -0.000147  0.938549  0.0  0.11047  -0.000173  0.9964  0.0  0.113641  -0.000104  0.994215  0.0  0.104262  0.10823  -0.000234  0.997819  0.0
H  H9  1  0.89157024  0.26781320  0.18797988  1  0.099663  0.000152  0.938501  0.0  0.110516  0.000174  0.996292  0.0  0.113692  0.000104  0.994095  0.0  0.104254  0.10824  0.000234  0.997753  0.0
H  H10  1  0.44889358  0.14654087  0.00152186  1  0.103057  2.5e-05  0.921159  0.0  0.111581  4.3e-05  0.982506  0.0  0.1144  3.7e-05  0.978942  0.0  0.140454  0.109263  4e-05  0.985511  0.0
H  H11  1  0.55111230  0.85345714  0.99847421  1  0.103036  -2.5e-05  0.921212  0.0  0.11157  -4.3e-05  0.982542  0.0  0.114388  -3.8e-05  0.978977  0.0  0.140473  0.109251  -3.9e-05  0.985545  0.0
H  H12  1  0.95624372  0.94303048  0.78578693  1  0.102159  -2e-06  0.974706  0.0  0.112483  -3e-06  1.037206  0.0  0.115435  -1e-06  1.036058  0.0  0.101563  0.11032  -2e-06  1.038325  0.0
H  H13  1  0.04375979  0.05696854  0.21421615  1  0.102151  -2e-06  0.97468  0.0  0.112471  3e-06  1.037182  0.0  0.115428  2e-06  1.036026  0.0  0.101544  0.110308  2e-06  1.038303  0.0
H  H14  1  0.37190635  0.90919546  0.89179360  1  0.092251  -0.000102  0.961867  0.0  0.097892  -0.00015  1.033525  0.0  0.100753  -0.000103  1.031194  0.0  0.100212  0.095823  -0.000189  1.03527  0.0
H  H15  1  0.62809354  0.09080545  0.10821237  1  0.09227  0.000107  0.961755  0.0  0.097865  0.00015  1.033473  0.0  0.100724  0.000102  1.031143  0.0  0.10021  0.095799  0.000189  1.035219  0.0
H  H16  1  0.61225381  0.34929211  0.61900716  1  0.115085  -7.2e-05  0.899387  -0.001  0.129891  -5.2e-05  0.952078  0.0  0.133062  -3.6e-05  0.947751  0.0  0.154352  0.127235  -7.3e-05  0.955553  0.0
H  H17  1  0.38774803  0.65070967  0.38098889  1  0.115072  7.6e-05  0.899476  0.001  0.129878  5.2e-05  0.952166  0.0  0.133048  3.5e-05  0.947844  0.0  0.154349  0.127223  7.3e-05  0.955639  0.0
H  H18  1  0.99074749  0.13121035  0.41128556  1  0.107176  3.4e-05  0.964652  0.0  0.115099  2.8e-05  1.032494  0.0  0.118701  1.7e-05  1.03075  0.0  0.102246  0.112567  4.5e-05  1.033819  0.0
H  H19  1  0.00925184  0.86878858  0.58871396  1  0.107172  -3.6e-05  0.964704  0.0  0.115106  -2.8e-05  1.032528  0.0  0.118708  -1.7e-05  1.030783  0.0  0.102248  0.112574  -4.5e-05  1.03385  0.0
H  H20  1  0.80808967  0.11996854  0.85181348  1  0.054967  2e-05  0.926943  0.0  0.062075  4.3e-05  0.998775  0.0  0.061886  3.3e-05  0.99798  0.0  0.115921  0.062031  6.1e-05  0.999677  0.0
H  H21  1  0.19191698  0.88003050  0.14818915  1  0.054962  -2.2e-05  0.92694  0.0  0.062044  -4.3e-05  0.998784  0.0  0.061855  -3.3e-05  0.99799  0.0  0.115899  0.062001  -6.1e-05  0.999683  0.0
H  H22  1  0.82708179  0.28308072  0.79881667  1  0.075552  0.000134  0.916537  0.0  0.083278  0.00015  0.982113  0.0  0.083566  0.000134  0.981041  0.0  0.122087  0.082898  0.000157  0.982939  0.0
H  H23  1  0.17292535  0.71691637  0.20118085  1  0.075575  -0.000134  0.916556  0.0  0.0833  -0.00015  0.982112  0.0  0.083589  -0.000134  0.981039  0.0  0.122109  0.082917  -0.000157  0.982936  0.0
H  H24  1  0.20050081  0.46058914  0.45640549  1  0.099112  7.2e-05  0.937671  0.0  0.110542  6e-05  0.993372  0.0  0.113743  1e-05  0.991188  0.0  0.105308  0.108064  0.000147  0.995188  0.0
H  H25  1  0.79949026  0.53941358  0.54359936  1  0.099083  -6.9e-05  0.937635  0.0  0.110498  -6e-05  0.993364  0.0  0.1137  -1e-05  0.99118  0.0  0.105277  0.108005  -0.000147  0.995201  0.0
H  H26  1  0.22335360  0.12218117  0.86022780  1  0.114347  -9e-06  0.932072  0.0  0.125671  -1.2e-05  0.987001  0.0  0.128975  -4e-06  0.985963  0.0  0.107152  0.123353  -1.1e-05  0.987876  0.0
H  H27  1  0.77665348  0.87782067  0.13976869  1  0.114351  4e-06  0.932094  0.0  0.12566  1.2e-05  0.987046  0.0  0.128964  3e-06  0.986009  0.0  0.107159  0.123342  1.1e-05  0.987921  0.0
H  H28  1  0.49987710  0.23102634  0.46130082  1  0.092392  3e-06  0.939244  0.0  0.105587  7e-06  0.995202  0.0  0.108296  -5e-06  0.994297  0.0  0.102092  0.103512  3e-05  0.996036  0.0
H  H29  1  0.50011634  0.76897537  0.53869702  1  0.092339  -3e-06  0.939239  0.0  0.105565  -7e-06  0.995158  0.0  0.108272  5e-06  0.994257  0.0  0.102077  0.103493  -3e-05  0.995991  0.0
H  H30  1  0.04292394  0.34452797  0.66005090  1  0.124647  -4e-05  0.947379  0.0  0.134322  -4.2e-05  1.003473  0.0  0.138409  -2.8e-05  1.001362  0.0  0.112449  0.131368  -5.3e-05  1.005094  0.0
H  H31  1  0.95707523  0.65546716  0.33994865  1  0.124612  3.7e-05  0.947378  0.0  0.134285  4.2e-05  1.003477  0.0  0.138376  2.8e-05  1.001366  0.0  0.112422  0.131333  5.3e-05  1.0051  0.0
H  H32  1  0.14859233  0.25215885  0.20612374  1  0.103947  -8.7e-05  0.939979  0.0  0.116724  -5.8e-05  0.995084  0.0  0.120137  -7e-06  0.992302  0.0  0.107338  0.114019  -0.000125  0.997412  0.0
H  H33  1  0.85139998  0.74784764  0.79387708  1  0.103922  8.6e-05  0.939958  0.0  0.11671  5.9e-05  0.995062  0.0  0.12016  7e-06  0.992232  0.0  0.107329  0.114005  0.000125  0.99739  0.0
C  C34  1  0.59396506  0.91436324  0.54904618  1  -0.09695  -8.1e-05  3.741803  0.0  -0.115608  -4.7e-05  3.985752  0.0  -0.118092  -3.9e-05  4.009318  0.0  -0.087499  -0.11395  -5.1e-05  3.969966  0.0
C  C35  1  0.40603280  0.08563756  0.45095177  1  -0.096907  7.1e-05  3.741826  0.0  -0.115538  4.6e-05  3.985781  0.0  -0.118022  3.6e-05  4.009354  0.0  -0.0875  -0.113879  5.1e-05  3.96999  0.0
C  C36  1  0.28912025  0.42678441  0.19788445  1  0.661063  0.002031  3.871127  0.003  0.62069  0.001552  4.163002  0.002  0.662932  0.001102  4.153266  0.001  0.214649  0.588959  0.002099  4.167913  0.003
C  C37  1  0.71087737  0.57321736  0.80211516  1  0.660917  -0.002024  3.871441  -0.003  0.62057  -0.001552  4.163263  -0.002  0.662813  -0.001105  4.153525  -0.001  0.214565  0.588846  -0.0021  4.168161  -0.003
C  C38  1  0.69255639  0.09174213  0.56188447  1  -0.05299  -0.000434  3.65927  -0.001  -0.138171  -0.000378  3.916578  0.0  -0.133327  -0.00029  3.925049  0.0  -0.041461  -0.141311  -0.000468  3.911152  -0.001
C  C39  1  0.30743916  0.90825957  0.43811070  1  -0.053031  0.000432  3.659014  0.001  -0.138199  0.000378  3.916341  0.0  -0.133308  0.000288  3.924754  0.0  -0.041476  -0.141341  0.000468  3.910918  0.001
C  C40  1  0.24751662  0.80718076  0.85615915  1  -0.079505  -0.001969  3.777268  -0.002  -0.058218  -0.000765  4.009645  -0.001  -0.067469  -0.000374  4.030969  0.0  -0.029206  -0.052847  -0.001173  3.996437  -0.001
C  C41  1  0.75248266  0.19281824  0.14384660  1  -0.079683  0.002071  3.777296  0.003  -0.058387  0.000769  4.009687  0.001  -0.067636  0.000375  4.031012  0.0  -0.029239  -0.053015  0.001174  3.996467  0.001
C  C42  1  0.13247426  0.81806345  0.82322591  1  -0.045741  1.9e-05  3.750765  0.0  -0.06931  -0.000357  4.000108  0.0  -0.066031  -0.00022  4.018674  0.0  -0.085162  -0.071258  -0.000424  3.987586  0.0
C  C43  1  0.86752968  0.18193368  0.17677829  1  -0.045642  -0.000135  3.750613  0.0  -0.069266  0.000357  3.999922  0.0  -0.065989  0.000223  4.018494  0.0  -0.085164  -0.071183  0.000424  3.987406  0.0
C  C44  1  0.50076921  0.16909836  0.89352734  1  0.205956  0.003721  3.682522  0.005  0.158761  0.00037  3.972019  0.0  0.171705  0.000315  3.982678  0.0  0.153114  0.149554  0.000585  3.965032  0.0
C  C45  1  0.49923478  0.83089869  0.10646974  1  0.206136  -0.00373  3.682653  -0.005  0.158934  -0.000371  3.972136  0.0  0.171879  -0.000314  3.982801  0.0  0.153213  0.149726  -0.000584  3.965148  0.0
C  C46  1  0.07965465  0.04493376  0.82450213  1  0.293313  8.6e-05  3.78338  0.0  0.281741  -4.8e-05  4.045992  0.0  0.294564  -1.8e-05  4.061796  0.0  0.086828  0.273089  -7.4e-05  4.035072  0.0
C  C47  1  0.92035474  0.95506717  0.17549625  1  0.293219  -0.000181  3.783581  0.0  0.281629  4.9e-05  4.046179  0.0  0.294452  1.2e-05  4.061984  0.0  0.086748  0.272988  7.4e-05  4.035247  0.0
C  C48  1  0.04737821  0.93618661  0.80835003  1  -0.213889  -0.000107  3.775794  0.0  -0.235498  -1.6e-05  4.034269  0.0  -0.243224  -1e-06  4.055791  0.0  -0.113406  -0.230288  -1.8e-05  4.019622  0.0
C  C49  1  0.95262826  0.06381333  0.19164714  1  -0.213902  0.000211  3.775851  0.0  -0.235498  1.4e-05  4.034327  0.0  -0.243228  0.0  4.055856  0.0  -0.113374  -0.230288  1.8e-05  4.019665  0.0
C  C50  1  0.00649327  0.23063183  0.54763613  1  0.288494  0.000137  3.790932  0.0  0.27806  9.8e-05  4.054343  0.0  0.291591  7.7e-05  4.068918  0.0  0.083522  0.268478  0.000265  4.044603  0.0
C  C51  1  0.99350334  0.76936521  0.45236675  1  0.288544  -0.000166  3.790831  0.0  0.278095  -9.9e-05  4.054262  0.0  0.291623  -8.1e-05  4.06884  0.0  0.083586  0.268514  -0.000265  4.044524  0.0
C  C52  1  0.28026858  0.91744904  0.86919937  1  -0.047924  -0.000198  3.758634  0.0  -0.073373  -0.000532  4.013186  -0.001  -0.070454  -0.000367  4.032901  0.0  -0.084373  -0.075052  -0.00067  3.999979  -0.001
C  C53  1  0.71973726  0.08254902  0.13080116  1  -0.047838  8.6e-05  3.75847  0.0  -0.073241  0.000533  4.013018  0.001  -0.07032  0.000366  4.032736  0.0  -0.08433  -0.074923  0.000669  3.999815  0.001
C  C54  1  0.58175364  0.27468259  0.70101383  1  0.172465  0.006162  3.632624  0.008  0.096232  0.000835  3.900823  0.001  0.113008  0.000731  3.908628  0.001  0.168318  0.084699  0.001171  3.895338  0.002
C  C55  1  0.41825074  0.72531733  0.29898334  1  0.172396  -0.006207  3.632684  -0.008  0.096159  -0.000835  3.900874  -0.001  0.112925  -0.00073  3.90869  -0.001  0.168306  0.084624  -0.001171  3.895389  -0.002
C  C56  1  0.18505558  0.36362513  0.31857667  1  -0.098168  -0.000444  3.787861  -0.001  -0.076839  -0.000204  4.019489  0.0  -0.088319  -0.000202  4.041214  0.0  -0.030328  -0.0697  -0.0002  4.006495  0.0
C  C57  1  0.81493587  0.63638043  0.68142738  1  -0.098371  0.000458  3.78803  0.001  -0.077008  0.000201  4.019603  0.0  -0.088493  0.000193  4.041339  0.0  -0.030394  -0.069858  0.0002  4.006586  0.0
C  C58  1  0.59378948  0.04411225  0.52831552  1  0.066519  6.5e-05  3.757287  0.0  0.085558  3.5e-05  3.999527  0.0  0.083825  3.4e-05  4.025128  0.0  -0.013947  0.086745  6.3e-05  3.982238  0.0
C  C59  1  0.40620437  0.95588760  0.47168611  1  0.066563  -5.3e-05  3.757188  0.0  0.085562  -3.1e-05  3.999476  0.0  0.08381  -2.9e-05  4.025074  0.0  -0.013938  0.086748  -6.3e-05  3.982186  0.0
C  C60  1  0.03611022  0.20491546  0.41956523  1  -0.208494  0.000181  3.772543  0.0  -0.229733  0.000142  4.032811  0.0  -0.237209  6.3e-05  4.051846  0.0  -0.110844  -0.224625  0.000204  4.020044  0.0
C  C61  1  0.96388402  0.79508725  0.58043561  1  -0.20846  -0.000153  3.772458  0.0  -0.229694  -0.00014  4.032719  0.0  -0.237171  -5.8e-05  4.051765  0.0  -0.110818  -0.224586  -0.000204  4.019951  0.0
C  C62  1  0.88156330  0.18381477  0.78581987  1  0.261707  8.9e-05  3.61839  0.0  0.182036  0.000117  3.904607  0.0  0.198254  8.9e-05  3.903214  0.0  0.027811  0.170997  0.000155  3.905448  0.0
C  C63  1  0.11843965  0.81618226  0.21417588  1  0.261649  -8.5e-05  3.618509  0.0  0.182027  -0.000117  3.904616  0.0  0.198242  -8.8e-05  3.903225  0.0  0.027797  0.170992  -0.000155  3.90545  0.0
C  C64  1  0.33076898  0.68089084  0.88293790  1  0.638158  0.005682  3.891312  0.012  0.600833  0.001408  4.180894  0.006  0.638847  0.00144  4.175773  0.005  0.197793  0.573596  0.001561  4.181827  0.007
C  C65  1  0.66922648  0.31911100  0.11706973  1  0.638109  -0.005681  3.891199  -0.012  0.600755  -0.001408  4.180823  -0.006  0.638765  -0.001441  4.175704  -0.005  0.19769  0.573524  -0.001562  4.181744  -0.007
C  C66  1  0.15304202  0.38921274  0.44696713  1  -0.031268  0.000252  3.756969  0.0  -0.053399  0.000191  4.004338  0.0  -0.049285  7.4e-05  4.023  0.0  -0.078864  -0.056356  0.000291  3.992482  0.0
C  C67  1  0.84694673  0.61079089  0.55303672  1  -0.031191  -0.000291  3.75671  0.0  -0.05332  -0.000189  4.004065  0.0  -0.049206  -7.5e-05  4.022729  0.0  -0.078872  -0.056267  -0.000292  3.992215  0.0
C  C68  1  0.19851348  0.03571179  0.85160480  1  -0.177075  -0.000362  3.745127  -0.001  -0.199673  -0.000167  4.004104  0.0  -0.20663  -8.4e-05  4.02444  0.0  -0.100913  -0.194662  -0.000301  3.989979  0.0
C  C69  1  0.80149002  0.96428724  0.14839917  1  -0.177009  0.000475  3.745105  0.001  -0.199607  0.000164  4.004076  0.0  -0.206564  8.8e-05  4.024412  0.0  -0.100893  -0.194599  0.000301  3.989949  0.0
C  C70  1  0.49954751  0.12963343  0.47916648  1  -0.105901  -6.7e-05  3.751223  0.0  -0.127353  -4.1e-05  3.998738  0.0  -0.130337  -3.8e-05  4.021598  0.0  -0.089036  -0.125268  -5.6e-05  3.98339  0.0
C  C71  1  0.50044442  0.87037018  0.52083247  1  -0.105828  6.6e-05  3.751116  0.0  -0.127291  3.9e-05  3.998657  0.0  -0.130277  3.7e-05  4.021525  0.0  -0.089015  -0.125209  5.6e-05  3.983314  0.0
C  C72  1  0.06398760  0.32433346  0.56160685  1  -0.201442  -0.000412  3.753618  -0.001  -0.223439  -0.000205  4.010749  0.0  -0.230928  -0.000139  4.030031  0.0  -0.105341  -0.218423  -0.00036  3.997971  -0.001
C  C73  1  0.93601195  0.67566454  0.43839368  1  -0.201423  0.000454  3.753509  0.001  -0.223414  0.000206  4.010651  0.0  -0.230908  0.000143  4.029937  0.0  -0.105291  -0.218399  0.00036  3.997873  0.001
C  C74  1  0.12382411  0.27162377  0.30616727  1  -0.044292  0.000264  3.759477  0.001  -0.069285  0.000156  4.006396  0.0  -0.065045  0.000175  4.024437  0.0  -0.083373  -0.072173  0.000257  3.994727  0.0
C  C75  1  0.87616781  0.72837987  0.69383434  1  -0.044174  -0.000279  3.759388  -0.001  -0.069204  -0.000156  4.006321  0.0  -0.064991  -0.000173  4.024343  0.0  -0.083335  -0.072097  -0.000257  3.994649  0.0
N  N76  1  0.61593550  0.15064624  0.68680814  1  0.048988  -0.001536  3.582502  -0.003  0.168587  -0.001309  3.771352  -0.002  0.159754  -0.001091  3.792073  -0.002  -0.130032  0.173299  -0.001425  3.759381  -0.002
N  N77  1  0.38406448  0.84935455  0.31318714  1  0.049124  0.001564  3.582395  0.003  0.16871  0.00131  3.771265  0.002  0.159905  0.001096  3.7919  0.002  -0.129971  0.173421  0.001425  3.759296  0.002
N  N78  1  0.50863630  0.28987141  0.83131937  1  -0.379151  -0.034762  3.270953  -0.057  -0.338455  -0.026382  3.58711  -0.036  -0.363636  -0.022629  3.591599  -0.031  -0.34718  -0.319124  -0.029523  3.584205  -0.041
N  N79  1  0.49136937  0.71012754  0.16867569  1  -0.379172  0.034781  3.271003  0.057  -0.338455  0.026382  3.587135  0.036  -0.363644  0.022631  3.591632  0.031  -0.347246  -0.319121  0.029524  3.584221  0.041
N  N80  1  0.56508625  0.08119565  0.80862604  1  -0.277344  -0.00355  2.826172  -0.006  -0.27686  -0.001498  3.087419  -0.002  -0.284798  -0.001112  3.099498  -0.002  -0.222506  -0.271855  -0.00197  3.080596  -0.003
N  N81  1  0.43491732  0.91880327  0.19136814  1  -0.277495  0.003555  2.82623  0.006  -0.277013  0.001499  3.087478  0.002  -0.284963  0.00111  3.099559  0.002  -0.222588  -0.272008  0.00197  3.080659  0.003
O  O82  1  0.35171138  0.50091195  0.21581738  1  -0.63433  0.04533  2.132173  0.072  -0.602829  0.034259  2.411564  0.05  -0.642879  0.026704  2.398561  0.037  -0.317843  -0.568393  0.042033  2.41819  0.062
O  O83  1  0.64828959  0.49908893  0.78418458  1  -0.634206  -0.045329  2.132348  -0.072  -0.602733  -0.034257  2.411739  -0.05  -0.642778  -0.026702  2.398733  -0.037  -0.317807  -0.568305  -0.04203  2.418366  -0.062
O  O84  1  0.31256293  0.40090592  0.08358097  1  -0.605952  -0.046259  2.11619  -0.074  -0.570986  -0.034501  2.383211  -0.05  -0.610559  -0.026966  2.369034  -0.038  -0.310684  -0.537317  -0.042161  2.391081  -0.062
O  O85  1  0.68743638  0.59909305  0.91642212  1  -0.605918  0.046262  2.116137  0.074  -0.570967  0.034503  2.383141  0.05  -0.610547  0.026971  2.368972  0.038  -0.310665  -0.537296  0.042165  2.391004  0.062
O  O86  1  0.92194376  0.15709011  0.65302993  1  -0.32543  0.000111  2.318137  0.0  -0.262022  0.000127  2.563758  0.0  -0.280715  8e-05  2.564972  0.0  -0.186453  -0.248592  9.6e-05  2.562448  0.0
O  O87  1  0.07806319  0.84290320  0.34697029  1  -0.325419  -0.000116  2.318036  0.0  -0.262031  -0.000126  2.563658  0.0  -0.280721  -7.9e-05  2.564876  0.0  -0.186473  -0.248599  -9.6e-05  2.562346  0.0
O  O88  1  0.00053049  0.16553858  0.81695791  1  -0.3078  -8.6e-05  2.330489  0.0  -0.239741  -7.1e-05  2.564399  0.0  -0.258454  -3.8e-05  2.565056  0.0  -0.178793  -0.226565  -0.000125  2.563557  0.0
O  O89  1  0.99947493  0.83446135  0.18303970  1  -0.307811  7.9e-05  2.330676  0.0  -0.239721  7.2e-05  2.564539  0.0  -0.258439  3.9e-05  2.565205  0.0  -0.178776  -0.226549  0.000125  2.563693  0.0
O  O90  1  0.33803276  0.58589355  0.82876053  1  -0.610297  -0.061845  1.951827  -0.104  -0.586274  -0.043102  2.198146  -0.07  -0.626271  -0.032583  2.186963  -0.053  -0.334203  -0.552362  -0.052958  2.203964  -0.085
O  O91  1  0.66196588  0.41410360  0.17125036  1  -0.610222  0.06184  1.951612  0.104  -0.586186  0.0431  2.197942  0.07  -0.626185  0.03258  2.18675  0.053  -0.334088  -0.552274  0.052956  2.203753  0.085
O  O92  1  0.39211952  0.66803253  0.96071219  1  -0.643584  -0.022045  2.022618  -0.041  -0.613518  -0.015049  2.27899  -0.03  -0.650979  -0.011091  2.272774  -0.023  -0.306032  -0.581811  -0.019255  2.281035  -0.036
O  O93  1  0.60788289  0.33197121  0.03928852  1  -0.643555  0.022052  2.022648  0.041  -0.613472  0.015048  2.279027  0.03  -0.650931  0.011092  2.272808  0.023  -0.305999  -0.581769  0.019257  2.281071  0.036
