# generated using pymatgen
data_CaP2H18(C4O3)2
_symmetry_space_group_name_H-M   'P 1'
_cell_length_a   5.50116016
_cell_length_b   7.56206470
_cell_length_c   16.87791797
_cell_angle_alpha   96.97268638
_cell_angle_beta   90.79374089
_cell_angle_gamma   101.84382072
_symmetry_Int_Tables_number   1
_chemical_formula_structural   CaP2H18(C4O3)2
_chemical_formula_sum   'Ca2 P4 H36 C16 O12'
_cell_volume   681.55022098
_cell_formula_units_Z   2
loop_
 _symmetry_equiv_pos_site_id
 _symmetry_equiv_pos_as_xyz
  1  'x, y, z'
loop_
 _atom_site_type_symbol
 _atom_site_label
 _atom_site_symmetry_multiplicity
 _atom_site_fract_x
 _atom_site_fract_y
 _atom_site_fract_z
 _atom_site_occupancy
 _atom_site_hle17_bader_spin_density
 _atom_site_hle17_ddec_charge
 _atom_site_hle17_ddec_spin_density
 _atom_site_hle17_ddec_sum_bond_order
 _atom_site_hle17_magmom
 _atom_site_hse06_10hf_bader_spin_density
 _atom_site_hse06_10hf_ddec_charge
 _atom_site_hse06_10hf_ddec_spin_density
 _atom_site_hse06_10hf_ddec_sum_bond_order
 _atom_site_hse06_10hf_magmom
 _atom_site_hse06_bader_spin_density
 _atom_site_hse06_ddec_charge
 _atom_site_hse06_ddec_spin_density
 _atom_site_hse06_ddec_sum_bond_order
 _atom_site_hse06_magmom
 _atom_site_pbe_bader_spin_density
 _atom_site_pbe_cm5_charge
 _atom_site_pbe_ddec_charge
 _atom_site_pbe_ddec_spin_density
 _atom_site_pbe_ddec_sum_bond_order
 _atom_site_pbe_magmom
Ca  Ca0  1  0.79000978  0.78373351  0.00734892  1  0  1.616931  0  1.069691  0  0  1.492109  0  1.41539  0  0  1.530806  0  1.373705  0  0  0.971468  1.462907  0  1.444936  0
Ca  Ca1  1  0.20997870  0.21627279  0.99264935  1  0  1.61689  0  1.069744  0  0  1.492098  0  1.415391  0  0  1.530793  0  1.373714  0  0  0.971443  1.462821  0  1.445089  0
P  P2  1  0.77405582  0.33792415  0.87556908  1  0  1.45262  0  4.76368  0  0  1.301064  0  5.27411  0  0  1.352794  0  5.234243  0  0  0.382625  1.265018  0  5.300784  0
P  P3  1  0.22592994  0.66208739  0.12442893  1  0  1.452734  0  4.764021  0  0  1.301188  0  5.27444  0  0  1.352899  0  5.234576  0  0  0.382726  1.265148  0  5.301124  0
P  P4  1  0.29576140  0.80487865  0.88418556  1  0  1.433683  0  4.766085  0  0  1.278753  0  5.279013  0  0  1.330648  0  5.239326  0  0  0.38006  1.242674  0  5.305544  0
P  P5  1  0.70423386  0.19512524  0.11581439  1  0  1.433732  0  4.76602  0  0  1.278801  0  5.278963  0  0  1.330681  0  5.23928  0  0  0.380129  1.242725  0  5.305491  0
H  H6  1  0.22933211  0.35742153  0.59578522  1  0  0.082529  0  0.967157  0  0  0.102481  0  1.034982  0  0  0.103748  0  1.035064  0  0  0.081412  0.101509  0  1.035003  0
H  H7  1  0.77064793  0.64253682  0.40421494  1  0  0.082482  0  0.96709  0  0  0.102399  0  1.034979  0  0  0.10366  0  1.035068  0  0  0.081435  0.101423  0  1.035005  0
H  H8  1  0.01858694  0.35039935  0.51429084  1  0  0.089275  0  0.968623  0  0  0.112068  0  1.029117  0  0  0.11293  0  1.030194  0  0  0.084239  0.111398  0  1.028414  0
H  H9  1  0.98139527  0.64954985  0.48570752  1  0  0.089217  0  0.968552  0  0  0.11197  0  1.029127  0  0  0.112833  0  1.030199  0  0  0.084177  0.111302  0  1.028423  0
H  H10  1  0.01325629  0.15305717  0.56208810  1  0  0.086302  0  0.960104  0  0  0.108858  0  1.022237  0  0  0.109849  0  1.023006  0  0  0.083321  0.108091  0  1.021755  0
H  H11  1  0.98672139  0.84690155  0.43792156  1  0  0.086398  0  0.960184  0  0  0.108953  0  1.022286  0  0  0.10994  0  1.023058  0  0  0.08345  0.108184  0  1.021806  0
H  H12  1  0.65969861  0.29998010  0.60750807  1  0  0.04697  0  0.949163  0  0  0.067277  0  1.011364  0  0  0.06772  0  1.011998  0  0  0.082755  0.066885  0  1.010995  0
H  H13  1  0.34030076  0.70000738  0.39249729  1  0  0.047006  0  0.949204  0  0  0.067288  0  1.011378  0  0  0.067729  0  1.012016  0  0  0.082753  0.066898  0  1.011007  0
H  H14  1  0.86792880  0.50817340  0.63701388  1  0  0.049974  0  0.938182  0  0  0.072638  0  0.995466  0  0  0.072657  0  0.996979  0  0  0.084191  0.072469  0  0.994606  0
H  H15  1  0.13207145  0.49181511  0.36298030  1  0  0.050143  0  0.938117  0  0  0.07269  0  0.995489  0  0  0.072715  0  0.996991  0  0  0.084221  0.072519  0  0.994631  0
H  H16  1  0.07448010  0.36814534  0.73822008  1  0  0.061875  0  0.942331  0  0  0.078569  0  1.008192  0  0  0.079493  0  1.008119  0  0  0.090678  0.077816  0  1.008361  0
H  H17  1  0.92551717  0.63188361  0.26178816  1  0  0.06178  0  0.942321  0  0  0.078479  0  1.008233  0  0  0.079393  0  1.00817  0  0  0.09064  0.077728  0  1.008398  0
H  H18  1  0.87935346  0.15535495  0.70876222  1  0  0.062121  0  0.929755  0  0  0.085175  0  0.984832  0  0  0.08534  0  0.986318  0  0  0.091339  0.084951  0  0.983923  0
H  H19  1  0.12066175  0.84465310  0.29125127  1  0  0.062194  0  0.929596  0  0  0.085235  0  0.984732  0  0  0.085397  0  0.986216  0  0  0.091341  0.084997  0  0.98384  0
H  H20  1  0.51040392  0.25956439  0.75831993  1  0  0.121432  0  0.947925  0  0  0.137251  0  1.004581  0  0  0.139624  0  1.004144  0  0  0.106582  0.135443  0  1.00513  0
H  H21  1  0.48957861  0.74043998  0.24168052  1  0  0.121462  0  0.947832  0  0  0.137268  0  1.004521  0  0  0.139638  0  1.00408  0  0  0.106597  0.135467  0  1.005066  0
H  H22  1  0.66442118  0.48992290  0.77013870  1  0  0.128497  0  0.93956  0  0  0.141741  0  1.000147  0  0  0.144044  0  0.99981  0  0  0.109006  0.140083  0  1.000476  0
H  H23  1  0.33555895  0.51008927  0.22986345  1  0  0.128527  0  0.939541  0  0  0.1418  0  1.000083  0  0  0.144097  0  0.999748  0  0  0.109048  0.140144  0  1.000413  0
H  H24  1  0.48446393  0.66244264  0.56591689  1  0  0.087217  0  0.959172  0  0  0.109474  0  1.020961  0  0  0.110462  0  1.021748  0  0  0.083432  0.108697  0  1.020472  0
H  H25  1  0.51555069  0.33756675  0.43408067  1  0  0.087257  0  0.959155  0  0  0.109522  0  1.020938  0  0  0.110511  0  1.021724  0  0  0.083406  0.108755  0  1.02044  0
H  H26  1  0.48791217  0.86509952  0.52258392  1  0  0.087403  0  0.971418  0  0  0.110118  0  1.031698  0  0  0.111015  0  1.032665  0  0  0.083584  0.109388  0  1.03111  0
H  H27  1  0.51213784  0.13491467  0.47741552  1  0  0.08737  0  0.971535  0  0  0.110163  0  1.031714  0  0  0.111059  0  1.032676  0  0  0.083562  0.10943  0  1.031132  0
H  H28  1  0.70708805  0.86292466  0.60039759  1  0  0.083115  0  0.966789  0  0  0.102317  0  1.035574  0  0  0.103586  0  1.035649  0  0  0.081566  0.101356  0  1.035571  0
H  H29  1  0.29294636  0.13707468  0.39960600  1  0  0.083084  0  0.966977  0  0  0.102382  0  1.035662  0  0  0.103652  0  1.035738  0  0  0.081554  0.101418  0  1.035662  0
H  H30  1  0.36130089  0.01599676  0.65160081  1  0  0.050999  0  0.941879  0  0  0.072873  0  1.000336  0  0  0.072879  0  1.001778  0  0  0.085054  0.072772  0  0.999443  0
H  H31  1  0.63873784  0.98401430  0.34839533  1  0  0.051049  0  0.941897  0  0  0.072913  0  1.00037  0  0  0.072914  0  1.001817  0  0  0.085107  0.072813  0  0.99947  0
H  H32  1  0.14079048  0.81568480  0.61908456  1  0  0.045624  0  0.950565  0  0  0.064507  0  1.014475  0  0  0.065027  0  1.014854  0  0  0.082076  0.06402  0  1.014354  0
H  H33  1  0.85923063  0.18432933  0.38090984  1  0  0.045596  0  0.95061  0  0  0.064513  0  1.014527  0  0  0.065039  0  1.014898  0  0  0.082088  0.064012  0  1.014413  0
H  H34  1  0.34117414  0.64605311  0.71158000  1  0  0.055316  0  0.940627  0  0  0.076588  0  1.00064  0  0  0.076527  0  1.002058  0  0  0.088684  0.076539  0  0.999769  0
H  H35  1  0.65882306  0.35393918  0.28841501  1  0  0.055405  0  0.940592  0  0  0.076649  0  1.000591  0  0  0.076589  0  1.002  0  0  0.088711  0.076604  0  0.999721  0
H  H36  1  0.57007053  0.84330891  0.74156314  1  0  0.067384  0  0.935118  0  0  0.086816  0  0.994523  0  0  0.087884  0  0.994628  0  0  0.092923  0.085943  0  0.994597  0
H  H37  1  0.42993691  0.15667984  0.25843350  1  0  0.067328  0  0.935038  0  0  0.086758  0  0.99445  0  0  0.087826  0  0.994547  0  0  0.092881  0.085883  0  0.994526  0
H  H38  1  0.22630956  0.00597483  0.79432682  1  0  0.136534  0  0.93775  0  0  0.151491  0  0.995214  0  0  0.154351  0  0.994323  0  0  0.115956  0.149326  0  0.996074  0
H  H39  1  0.77369202  0.99402068  0.20566549  1  0  0.136534  0  0.937713  0  0  0.151553  0  0.995114  0  0  0.154413  0  0.994226  0  0  0.115986  0.149387  0  0.995978  0
H  H40  1  0.01172442  0.79782409  0.77515483  1  0  0.132545  0  0.929659  0  0  0.148477  0  0.984607  0  0  0.150619  0  0.984448  0  0  0.111055  0.146892  0  0.984898  0
H  H41  1  0.98827901  0.20217262  0.22484055  1  0  0.13248  0  0.929712  0  0  0.148485  0  0.98459  0  0  0.150629  0  0.98443  0  0  0.111028  0.146897  0  0.984885  0
C  C42  1  0.03747037  0.30220771  0.57244371  1  0  -0.286037  0  3.735763  0  0  -0.360387  0  3.981506  0  0  -0.363097  0  3.993609  0  0  -0.246092  -0.358228  0  3.973116  0
C  C43  1  0.96251155  0.69776154  0.42755665  1  0  -0.285941  0  3.735762  0  0  -0.360206  0  3.981357  0  0  -0.362909  0  3.993467  0  0  -0.246141  -0.358041  0  3.972967  0
C  C44  1  0.85072879  0.35918168  0.63116264  1  0  -0.063612  0  3.715053  0  0  -0.098482  0  3.97713  0  0  -0.09949  0  3.993627  0  0  -0.168128  -0.097573  0  3.965587  0
C  C45  1  0.14927298  0.64080765  0.36883872  1  0  -0.063995  0  3.715332  0  0  -0.098665  0  3.977264  0  0  -0.099679  0  3.993755  0  0  -0.168159  -0.097758  0  3.965724  0
C  C46  1  0.88653093  0.30290983  0.71372376  1  0  -0.057643  0  3.704142  0  0  -0.099636  0  3.963792  0  0  -0.099747  0  3.979495  0  0  -0.161183  -0.099315  0  3.952851  0
C  C47  1  0.11346553  0.69709342  0.28628446  1  0  -0.05752  0  3.704187  0  0  -0.099576  0  3.963901  0  0  -0.099685  0  3.9796  0  0  -0.161278  -0.099244  0  3.952959  0
C  C48  1  0.69317002  0.35065496  0.77237689  1  0  -0.434863  0  3.680469  0  0  -0.454863  0  3.932976  0  0  -0.463936  0  3.940796  0  0  -0.163066  -0.448544  0  3.927727  0
C  C49  1  0.30680850  0.64935845  0.22762534  1  0  -0.435024  0  3.680585  0  0  -0.455035  0  3.933188  0  0  -0.464077  0  3.940964  0  0  -0.163122  -0.448724  0  3.92794  0
C  C50  1  0.51254062  0.81141892  0.57906913  1  0  -0.284356  0  3.730572  0  0  -0.357511  0  3.97496  0  0  -0.360305  0  3.987183  0  0  -0.245143  -0.355258  0  3.966514  0
C  C51  1  0.48748470  0.18859073  0.42093330  1  0  -0.284386  0  3.730708  0  0  -0.357668  0  3.975103  0  0  -0.36046  0  3.987328  0  0  -0.245059  -0.35542  0  3.966652  0
C  C52  1  0.33481596  0.86632946  0.64158515  1  0  -0.063126  0  3.712153  0  0  -0.096784  0  3.972804  0  0  -0.097639  0  3.989131  0  0  -0.168013  -0.095986  0  3.961346  0
C  C53  1  0.66519945  0.13367446  0.35841382  1  0  -0.063124  0  3.712138  0  0  -0.096891  0  3.972917  0  0  -0.097746  0  3.989232  0  0  -0.168101  -0.096079  0  3.961456  0
C  C54  1  0.37396219  0.79598854  0.72096701  1  0  -0.063113  0  3.710293  0  0  -0.104351  0  3.969946  0  0  -0.104488  0  3.985544  0  0  -0.163037  -0.104052  0  3.95911  0
C  C55  1  0.62604677  0.20400960  0.27903148  1  0  -0.063059  0  3.710181  0  0  -0.1042  0  3.969764  0  0  -0.104326  0  3.985349  0  0  -0.162981  -0.103904  0  3.958927  0
C  C56  1  0.21089365  0.85719856  0.78718708  1  0  -0.437689  0  3.673953  0  0  -0.459897  0  3.933135  0  0  -0.468801  0  3.940085  0  0  -0.158565  -0.45368  0  3.928425  0
C  C57  1  0.78911014  0.14280075  0.21280967  1  0  -0.437713  0  3.673931  0  0  -0.460045  0  3.933115  0  0  -0.468961  0  3.940077  0  0  -0.158612  -0.453828  0  3.92841  0
O  O58  1  0.92055426  0.55115394  0.91086564  1  0  -0.433868  0  2.002726  0  0  -0.369211  0  2.26673  0  0  -0.380219  0  2.249972  0  0  -0.150846  -0.361891  0  2.278675  0
O  O59  1  0.07943273  0.44886449  0.08913169  1  0  -0.433898  0  2.002779  0  0  -0.369218  0  2.266759  0  0  -0.380211  0  2.249993  0  0  -0.150769  -0.36189  0  2.278704  0
O  O60  1  0.95280263  0.21475713  0.88207588  1  0  -0.862871  0  1.916446  0  0  -0.789531  0  2.17939  0  0  -0.816621  0  2.161682  0  0  -0.404887  -0.77006  0  2.190933  0
O  O61  1  0.04718759  0.78526099  0.11792739  1  0  -0.862935  0  1.916393  0  0  -0.789598  0  2.179377  0  0  -0.816684  0  2.161673  0  0  -0.404935  -0.770143  0  2.190916  0
O  O62  1  0.54919505  0.32698880  0.92589780  1  0  -0.879402  0  1.905534  0  0  -0.810476  0  2.184515  0  0  -0.840719  0  2.165192  0  0  -0.40978  -0.788123  0  2.196777  0
O  O63  1  0.45077376  0.67304387  0.07410865  1  0  -0.879484  0  1.905999  0  0  -0.810525  0  2.184922  0  0  -0.840766  0  2.165604  0  0  -0.409817  -0.788182  0  2.197172  0
O  O64  1  0.57041202  0.81337960  0.89205753  1  0  -0.84349  0  1.883072  0  0  -0.77469  0  2.14775  0  0  -0.805525  0  2.131291  0  0  -0.392231  -0.752035  0  2.157997  0
O  O65  1  0.42958069  0.18663192  0.10794589  1  0  -0.843466  0  1.882903  0  0  -0.774726  0  2.147681  0  0  -0.805565  0  2.131233  0  0  -0.392248  -0.752061  0  2.157932  0
O  O66  1  0.16937643  0.90833898  0.94822574  1  0  -0.932909  0  1.984252  0  0  -0.846652  0  2.260844  0  0  -0.874944  0  2.24118  0  0  -0.448017  -0.826209  0  2.273811  0
O  O67  1  0.83061084  0.09167121  0.05177338  1  0  -0.932982  0  1.984484  0  0  -0.846685  0  2.261046  0  0  -0.874937  0  2.241356  0  0  -0.448045  -0.826213  0  2.273941  0
O  O68  1  0.18760604  0.58398849  0.88667207  1  0  -0.335288  0  1.9236  0  0  -0.27814  0  2.173934  0  0  -0.286451  0  2.158335  0  0  -0.093015  -0.273165  0  2.185241  0
O  O69  1  0.81238512  0.41601141  0.11332400  1  0  -0.335217  0  1.923543  0  0  -0.278101  0  2.173931  0  0  -0.286421  0  2.15834  0  0  -0.093023  -0.273128  0  2.185238  0
