# generated using pymatgen
data_TiCuH20C20(N2F3)2
_symmetry_space_group_name_H-M   'P 1'
_cell_length_a   8.58824544
_cell_length_b   8.58763627
_cell_length_c   17.55227045
_cell_angle_alpha   104.12074714
_cell_angle_beta   102.24506748
_cell_angle_gamma   93.91543300
_symmetry_Int_Tables_number   1
_chemical_formula_structural   TiCuH20C20(N2F3)2
_chemical_formula_sum   'Ti2 Cu2 H40 C40 N8 F12'
_cell_volume   1216.97155209
_cell_formula_units_Z   2
loop_
 _symmetry_equiv_pos_site_id
 _symmetry_equiv_pos_as_xyz
  1  'x, y, z'
loop_
 _atom_site_type_symbol
 _atom_site_label
 _atom_site_symmetry_multiplicity
 _atom_site_fract_x
 _atom_site_fract_y
 _atom_site_fract_z
 _atom_site_occupancy
 _atom_site_pbe_cm5_charge
 _atom_site_pbe_ddec_charge
 _atom_site_pbe_ddec_spin_density
 _atom_site_pbe_ddec_sum_bond_order
 _atom_site_pbe_magmom
Ti  Ti0  1  0.50000619  0.50000560  0.50000096  1  1.349695  2.215932  0.001476  2.520954  0.001
Ti  Ti1  1  0.49999616  0.99999727  0.00000078  1  1.349137  2.215148  0.00143  2.521867  0.001
Cu  Cu2  1  0.49999937  0.00000237  0.50000031  1  0.76641  0.685116  -0.718921  2.245023  -0.552
Cu  Cu3  1  0.00000246  0.00000252  0.99999978  1  0.764503  0.685418  -0.718861  2.240196  -0.552
H  H4  1  0.24814324  0.71092674  0.43622931  1  0.111682  0.095914  -0.001113  1.059607  -0.002
H  H5  1  0.77494888  0.81146694  0.06373459  1  0.111874  0.09655  -0.001113  1.059972  -0.002
H  H6  1  0.75186147  0.28908085  0.56377361  1  0.111704  0.095938  -0.001113  1.059614  -0.002
H  H7  1  0.22505518  0.18854293  0.93626167  1  0.111862  0.096462  -0.001113  1.060088  -0.002
H  H8  1  0.95866300  0.65177309  0.36452287  1  0.114632  0.121792  -0.00073  0.976779  -0.001
H  H9  1  0.78773165  0.59373337  0.13546875  1  0.114427  0.120903  -0.00073  0.977419  -0.001
H  H10  1  0.04134299  0.34822607  0.63548094  1  0.114617  0.121769  -0.00073  0.976786  -0.001
H  H11  1  0.21225862  0.40627036  0.86452355  1  0.11442  0.120875  -0.00073  0.977545  -0.001
H  H12  1  0.80593489  0.88372185  0.34325522  1  0.100027  0.088391  -4e-05  1.063444  0.0
H  H13  1  0.04112557  0.46261292  0.15681706  1  0.100052  0.089895  -4.1e-05  1.063442  0.0
H  H14  1  0.19406210  0.11627118  0.65674461  1  0.100015  0.088411  -4e-05  1.063462  0.0
H  H15  1  0.95886011  0.53738361  0.84317733  1  0.100056  0.089914  -4.1e-05  1.063421  0.0
H  H16  1  0.95043697  0.16746023  0.40093485  1  0.112101  0.116276  -0.000717  0.987031  -0.001
H  H17  1  0.26708694  0.54952025  0.09910890  1  0.112334  0.117235  -0.000716  0.986182  -0.001
H  H18  1  0.04955209  0.83253513  0.59906093  1  0.112094  0.116255  -0.000717  0.987114  -0.001
H  H19  1  0.73290775  0.45048369  0.90089361  1  0.112325  0.11725  -0.000716  0.986131  -0.001
H  H20  1  0.24101002  0.20627225  0.46869187  1  0.113225  0.100679  -0.001091  1.050299  -0.002
H  H21  1  0.23792354  0.77235766  0.03136598  1  0.113606  0.101832  -0.001091  1.050613  -0.002
H  H22  1  0.75898140  0.79373280  0.53130585  1  0.113225  0.100681  -0.00109  1.050361  -0.002
H  H23  1  0.76208424  0.22764635  0.96863859  1  0.11362  0.101871  -0.001092  1.050556  -0.002
H  H24  1  0.43370369  0.81331809  0.61374709  1  0.112821  0.100568  -0.001079  1.050628  -0.002
H  H25  1  0.69935448  0.81958398  0.88612710  1  0.111792  0.098377  -0.001079  1.049863  -0.002
H  H26  1  0.56629508  0.18667850  0.38624935  1  0.112818  0.100518  -0.00108  1.050681  -0.002
H  H27  1  0.30064616  0.18042837  0.11387305  1  0.111781  0.098364  -0.001079  1.049836  -0.002
H  H28  1  0.42144242  0.87335333  0.75984868  1  0.108802  0.130134  -0.00066  1.009619  -0.001
H  H29  1  0.61331643  0.66122473  0.74001208  1  0.1079  0.129327  -0.000655  1.009199  -0.001
H  H30  1  0.57856317  0.12663120  0.24014830  1  0.108764  0.130071  -0.00066  1.009673  -0.001
H  H31  1  0.38668184  0.33878760  0.25998724  1  0.107921  0.129348  -0.000655  1.009208  -0.001
H  H32  1  0.46300194  0.15965304  0.84218539  1  0.105076  0.12642  -0.000103  1.034518  0.0
H  H33  1  0.81728514  0.62075605  0.65767500  1  0.10463  0.125339  -0.000105  1.035687  0.0
H  H34  1  0.53700723  0.84033280  0.15781612  1  0.10509  0.126424  -0.000103  1.034514  0.0
H  H35  1  0.18271425  0.37924665  0.34232562  1  0.104625  0.125329  -0.000105  1.03566  0.0
H  H36  1  0.50747681  0.38127332  0.77314549  1  0.109793  0.11227  -0.000748  0.996823  -0.001
H  H37  1  0.10782655  0.73443083  0.72675092  1  0.108683  0.110986  -0.000747  0.995204  -0.001
H  H38  1  0.49252419  0.61871497  0.22685881  1  0.109775  0.1123  -0.000748  0.996729  -0.001
H  H39  1  0.89217370  0.26555980  0.27324957  1  0.108643  0.11095  -0.000747  0.995196  -0.001
H  H40  1  0.51384382  0.30365196  0.62794929  1  0.112064  0.097969  -0.001093  1.058744  -0.002
H  H41  1  0.17548608  0.88593704  0.87195464  1  0.111622  0.098822  -0.001092  1.058818  -0.002
H  H42  1  0.48614681  0.69634837  0.37205350  1  0.112067  0.09793  -0.001093  1.058758  -0.002
H  H43  1  0.82451655  0.11405360  0.12804612  1  0.111599  0.098812  -0.001092  1.058771  -0.002
C  C44  1  0.17848184  0.80810656  0.42552902  1  0.04557  0.080688  0.000889  3.918782  0.0
C  C45  1  0.88288740  0.75261291  0.07445516  1  0.045387  0.079591  0.000881  3.920386  0.0
C  C46  1  0.82151861  0.19189493  0.57447102  1  0.045523  0.080635  0.000889  3.918846  0.0
C  C47  1  0.11711407  0.24739577  0.92554239  1  0.045286  0.07951  0.00088  3.92056  0.0
C  C48  1  0.01674056  0.77643195  0.38568861  1  -0.079407  -0.120561  -0.004445  3.963995  -0.005
C  C49  1  0.89118571  0.63074957  0.11432448  1  -0.079856  -0.1199  -0.004448  3.965653  -0.005
C  C50  1  0.98326194  0.22356715  0.61431252  1  -0.079362  -0.12051  -0.004446  3.963949  -0.005
C  C51  1  0.10880923  0.36925424  0.88567121  1  -0.079744  -0.119708  -0.004447  3.965848  -0.005
C  C52  1  0.93205820  0.90537129  0.37490897  1  -0.068546  -0.029051  0.004402  3.975835  0.002
C  C53  1  0.03103558  0.55704493  0.12513178  1  -0.06732  -0.029382  0.004398  3.97452  0.002
C  C54  1  0.06794239  0.09462174  0.62509069  1  -0.068524  -0.029092  0.004402  3.975949  0.002
C  C55  1  0.96895747  0.44295409  0.87486600  1  -0.067359  -0.029467  0.004398  3.974546  0.002
C  C56  1  0.01185499  0.06225589  0.40592923  1  -0.079585  -0.120173  -0.004392  3.971613  -0.005
C  C57  1  0.15686267  0.60589336  0.09410903  1  -0.080457  -0.12183  -0.004392  3.971431  -0.005
C  C58  1  0.98814332  0.93773708  0.59406732  1  -0.079647  -0.120176  -0.004392  3.971695  -0.005
C  C59  1  0.84313638  0.39410694  0.90589243  1  -0.080408  -0.121837  -0.004391  3.971408  -0.005
C  C60  1  0.17404313  0.08552080  0.44486880  1  0.049197  0.088756  0.001213  3.905937  0.0
C  C61  1  0.14100815  0.72910401  0.05516103  1  0.047606  0.086624  0.001197  3.906622  0.0
C  C62  1  0.82595396  0.91448185  0.55512928  1  0.049216  0.088793  0.001213  3.905895  0.0
C  C63  1  0.85899494  0.27089993  0.94484072  1  0.047557  0.086606  0.001197  3.906698  0.0
C  C64  1  0.44776508  0.93721660  0.65124170  1  0.046574  0.08056  0.001078  3.909041  0.0
C  C65  1  0.78577870  0.79625870  0.84865513  1  0.047677  0.083355  0.001066  3.907395  0.0
C  C66  1  0.55223212  0.06277761  0.34875658  1  0.046609  0.080605  0.001078  3.909076  0.0
C  C67  1  0.21422133  0.20374883  0.15134497  1  0.047649  0.083407  0.001066  3.907372  0.0
C  C68  1  0.44149220  0.97112861  0.73217606  1  -0.081699  -0.126241  -0.004454  3.95395  -0.005
C  C69  1  0.73872261  0.70903866  0.76771136  1  -0.081078  -0.125486  -0.004454  3.953675  -0.005
C  C70  1  0.55850888  0.02885835  0.26782182  1  -0.081657  -0.126153  -0.004454  3.953887  -0.005
C  C71  1  0.26127654  0.29097127  0.23228835  1  -0.081076  -0.125627  -0.004454  3.953754  -0.005
C  C72  1  0.46428781  0.13178860  0.77821773  1  -0.063688  -0.033115  0.004538  3.935837  0.003
C  C73  1  0.85330952  0.68600339  0.72165305  1  -0.06291  -0.031819  0.004533  3.935834  0.003
C  C74  1  0.53571779  0.86819722  0.22178338  1  -0.06373  -0.033135  0.004537  3.93597  0.003
C  C75  1  0.14669439  0.31399688  0.27834667  1  -0.06292  -0.031774  0.004533  3.935779  0.003
C  C76  1  0.49045454  0.25356514  0.74059103  1  -0.084328  -0.131854  -0.004472  3.988071  -0.005
C  C77  1  0.01267245  0.74986380  0.75930053  1  -0.082355  -0.130161  -0.004466  3.985045  -0.005
C  C78  1  0.50954641  0.74643157  0.25941136  1  -0.084357  -0.132004  -0.004471  3.988169  -0.005
C  C79  1  0.98732856  0.25013287  0.24070016  1  -0.082314  -0.130099  -0.004465  3.984906  -0.005
C  C80  1  0.49538548  0.21172809  0.65942556  1  0.043434  0.078156  0.001022  3.918576  0.0
C  C81  1  0.05205575  0.83596415  0.84047633  1  0.043767  0.077207  0.001019  3.922013  0.0
C  C82  1  0.50461238  0.78827221  0.34057576  1  0.043497  0.078266  0.001023  3.918737  0.0
C  C83  1  0.94794614  0.16403011  0.15952475  1  0.043793  0.077179  0.001019  3.921823  0.0
N  N84  1  0.25600695  0.96023122  0.45374090  1  -0.338025  -0.22147  -0.065872  3.584013  -0.086
N  N85  1  0.00677104  0.80207577  0.04627645  1  -0.336494  -0.220204  -0.065854  3.580736  -0.086
N  N86  1  0.74399071  0.03977629  0.54625836  1  -0.337995  -0.221452  -0.065867  3.584085  -0.086
N  N87  1  0.99323256  0.19793177  0.95372405  1  -0.33645  -0.220158  -0.065853  3.580737  -0.086
N  N88  1  0.47503441  0.05588912  0.61575069  1  -0.343767  -0.223199  -0.064277  3.603758  -0.084
N  N89  1  0.93992672  0.85918328  0.88415619  1  -0.343747  -0.224181  -0.06423  3.605367  -0.084
N  N90  1  0.52496113  0.94411114  0.38424866  1  -0.343796  -0.223155  -0.064276  3.603898  -0.084
N  N91  1  0.06007898  0.14082183  0.11584371  1  -0.343724  -0.224137  -0.064231  3.605179  -0.084
F  F92  1  0.72607429  0.53007104  0.53516326  1  -0.409588  -0.615539  -0.000346  0.861816  0.0
F  F93  1  0.49508133  0.19101425  0.96493172  1  -0.409967  -0.615825  -0.000353  0.861152  0.0
F  F94  1  0.27393382  0.46993536  0.46484048  1  -0.40957  -0.615549  -0.000346  0.861871  0.0
F  F95  1  0.50491715  0.80898121  0.03506854  1  -0.409957  -0.615792  -0.000353  0.86115  0.0
F  F96  1  0.50115258  0.72264597  0.50080830  1  -0.380188  -0.627505  0.001582  1.074441  0.0
F  F97  1  0.72189979  0.00023215  0.99930765  1  -0.381104  -0.62872  0.001588  1.074536  0.0
F  F98  1  0.49885696  0.27736160  0.49919345  1  -0.38018  -0.627505  0.001582  1.074378  0.0
F  F99  1  0.27809916  0.99976693  0.00069251  1  -0.381103  -0.628693  0.001588  1.074607  0.0
F  F100  1  0.48201092  0.54999962  0.60822118  1  -0.413986  -0.620114  -0.000394  0.850937  0.0
F  F101  1  0.44185859  0.87394867  0.89174520  1  -0.413159  -0.619149  -0.00038  0.851039  0.0
F  F102  1  0.51800007  0.45001040  0.39178215  1  -0.413974  -0.620061  -0.000394  0.850892  0.0
F  F103  1  0.55813309  0.12604077  0.10825646  1  -0.413151  -0.619142  -0.00038  0.851019  0.0
