# generated using pymatgen
data_Al6H57C90O28F5
_symmetry_space_group_name_H-M   'P 1'
_cell_length_a   12.64392333
_cell_length_b   12.11757008
_cell_length_c   28.05357251
_cell_angle_alpha   90.40673832
_cell_angle_beta   89.57700806
_cell_angle_gamma   122.37008605
_symmetry_Int_Tables_number   1
_chemical_formula_structural   Al6H57C90O28F5
_chemical_formula_sum   'Al6 H57 C90 O28 F5'
_cell_volume   3630.15932358
_cell_formula_units_Z   1
loop_
 _symmetry_equiv_pos_site_id
 _symmetry_equiv_pos_as_xyz
  1  'x, y, z'
loop_
 _atom_site_type_symbol
 _atom_site_label
 _atom_site_symmetry_multiplicity
 _atom_site_fract_x
 _atom_site_fract_y
 _atom_site_fract_z
 _atom_site_occupancy
 _atom_site_pbe_bader_charge
 _atom_site_pbe_bader_spin_density
 _atom_site_pbe_cm5_charge
 _atom_site_pbe_ddec_charge
 _atom_site_pbe_ddec_spin_density
 _atom_site_pbe_ddec_sum_bond_order
 _atom_site_pbe_magmom
Al  Al0  1  0.40268744  0.80648250  0.49526794  1  2.493134  0  0.395519  1.686035  0  2.558326  0
Al  Al1  1  0.66638317  0.08007970  0.49735686  1  2.474248  0  0.508243  1.663281  0  2.503133  0
Al  Al2  1  0.43092423  0.08513142  0.49866778  1  2.479399  0  0.506144  1.662978  0  2.50455  0
Al  Al3  1  0.92676310  0.86014022  0.98255147  1  2.493294  0  0.397047  1.684069  0  2.556462  0
Al  Al4  1  0.91684689  0.59114421  0.98433372  1  2.480828  0  0.50592  1.660903  0  2.506295  0
Al  Al5  1  0.67216481  0.57663972  0.98134478  1  2.481853  0  0.505434  1.6625  0  2.507198  0
H  H6  1  0.76237842  0.21244828  0.27772401  1  0.083214  0  0.110746  0.119159  0  1.004748  0
H  H7  1  0.48185029  0.80126088  0.18626271  1  0.085259  0  0.109508  0.115416  0  1.011513  0
H  H8  1  0.82470892  0.80550597  0.19962220  1  0.105726  0  0.118166  0.145835  0  0.989359  0
H  H9  1  0.77752417  0.21671973  0.62742112  1  0.094341  0  0.108519  0.112221  0  1.005753  0
H  H10  1  0.87185531  0.43544459  0.76554538  1  0.098813  0  0.103169  0.10522  0  1.008586  0
H  H11  1  0.89704111  0.47197751  0.85298425  1  0.075114  0  0.106368  0.10745  0  1.024388  0
H  H12  1  0.78892914  0.25776389  0.71474492  1  0.071717  0  0.102935  0.102844  0  1.00248  0
H  H13  1  0.47256291  0.25098721  0.78240214  1  0.060732  0  0.103847  0.105089  0  1.032593  0
H  H14  1  0.50088267  0.30200451  0.86859544  1  0.097769  0  0.113653  0.117701  0  0.982084  0
H  H15  1  0.51008652  0.32986846  0.61503352  1  0.081005  0  0.110872  0.117789  0  0.98989  0
H  H16  1  0.15849603  0.98163702  0.61816656  1  0.095733  0  0.110018  0.11218  0  0.98705  0
H  H17  1  0.10588588  0.62153410  0.86124964  1  0.139712  0  0.120881  0.143168  0  0.995039  0
H  H18  1  0.10240493  0.94756389  0.70432783  1  0.04475  0  0.099653  0.095613  0  1.014223  0
H  H19  1  0.18415403  0.02031301  0.77906262  1  0.083128  0  0.104768  0.104205  0  1.012573  0
H  H20  1  0.12527880  0.98722289  0.86528339  1  0.120553  0  0.122528  0.136658  0  0.971243  0
H  H21  1  0.32075289  0.77244537  0.72143752  1  0.109146  0  0.097723  0.105627  0  1.035858  0
H  H22  1  0.36414387  0.79498340  0.63471526  1  0.082289  0  0.102923  0.102024  0  1.041727  0
H  H23  1  0.45896777  0.68645954  0.61509837  1  0.129871  0  0.124206  0.149627  0  0.977856  0
H  H24  1  0.59249344  0.45799025  0.20382366  1  0.06518  0  0.11081  0.115791  0  0.984489  0
H  H25  1  0.84276781  0.79901218  0.75025743  1  0.047184  0  0.103723  0.10556  0  1.00058  0
H  H26  1  0.87146970  0.77978177  0.83680771  1  0.076313  0  0.103156  0.106132  0  1.022657  0
H  H27  1  0.84795498  0.99083896  0.70427568  1  0.049354  0  0.106149  0.107775  0  0.991398  0
H  H28  1  0.83072424  0.03085074  0.61812982  1  0.102871  0  0.112697  0.118963  0  0.988941  0
H  H29  1  0.58283689  0.42949499  0.29213367  1  0.099055  0  0.115049  0.122591  0  0.976645  0
H  H30  1  0.10204554  0.98089698  0.29109670  1  0.127328  0  0.123058  0.156222  0  0.967209  0
H  H31  1  0.23756379  0.72012641  0.28658836  1  0.090529  0  0.113287  0.12636  0  0.984374  0
H  H32  1  0.48284768  0.83759468  0.27388162  1  0.090636  0  0.11279  0.11699  0  0.991539  0
H  H33  1  0.32388704  0.37115973  0.77156617  1  0.037278  0  0.085603  0.115525  0  0.999261  0
H  H34  1  0.28446276  0.40812909  0.71608063  1  0.045129  0  0.084323  0.120703  0  1.014682  0
H  H35  1  0.18673705  0.25042613  0.74120599  1  0.020911  0  0.080536  0.104076  0  1.011937  0
H  H36  1  0.32215754  0.24608254  0.67483851  1  0.035028  0  0.088028  0.079303  0  0.979623  0
H  H37  1  0.35275242  0.20079504  0.72950866  1  -0.000961  0  0.08013  0.059185  0  1.025493  0
H  H38  1  0.53656598  0.44236478  0.73968146  1  0.054856  0  0.090339  0.09073  0  1.010882  0
H  H39  1  0.50804527  0.46651043  0.68050951  1  0.039952  0  0.090878  0.094692  0  0.993207  0
H  H40  1  0.82797887  0.04066758  0.13965838  1  0.049891  0  0.081213  0.111917  0  1.027806  0
H  H41  1  0.97472889  0.18924774  0.14352936  1  0.005259  0  0.084776  0.111902  0  1.032013  0
H  H42  1  0.94116652  0.05799796  0.18115909  1  0.026711  0  0.078854  0.114071  0  1.044471  0
H  H43  1  0.92204230  0.22739095  0.22644641  1  0.018657  0  0.087556  0.075736  0  0.977239  0
H  H44  1  0.77793627  0.07611070  0.22434257  1  -0.004167  0  0.078884  0.060862  0  1.033254  0
H  H45  1  0.71137145  0.15326994  0.15467364  1  0.052465  0  0.099213  0.103452  0  0.962759  0
H  H46  1  0.85405109  0.30236296  0.15515884  1  0.066686  0  0.098936  0.100124  0  0.998206  0
H  H47  1  0.34608598  0.64932132  0.95732184  1  0.019196  0  0.087212  0.115091  0  0.997202  0
H  H48  1  0.28026312  0.70995456  0.91779894  1  0.005767  0  0.079837  0.107264  0  1.028763  0
H  H49  1  0.21033666  0.53895201  0.92411609  1  0.040933  0  0.088461  0.117269  0  0.995639  0
H  H50  1  0.33425239  0.60924206  0.84810044  1  0.039231  0  0.082739  0.071447  0  0.994376  0
H  H51  1  0.40834621  0.56212627  0.88926286  1  0.030537  0  0.088953  0.082835  0  0.984762  0
H  H52  1  0.54851844  0.80080302  0.91363750  1  0.047353  0  0.09922  0.102118  0  0.976568  0
H  H53  1  0.48109394  0.84174517  0.86760939  1  0.023881  0  0.094106  0.094763  0  0.978299  0
H  H54  1  0.18352311  0.52780074  0.10980224  1  0.048902  0  0.09015  0.119935  0  0.993572  0
H  H55  1  0.20176060  0.44651737  0.15862829  1  0.028845  0  0.086152  0.112677  0  0.995906  0
H  H56  1  0.05480107  0.37680542  0.12984859  1  0.023961  0  0.087411  0.114508  0  1.039455  0
H  H57  1  0.05546504  0.48421162  0.20827794  1  0.043366  0  0.087432  0.077091  0  0.981238  0
H  H58  1  0.03265228  0.55872576  0.15885026  1  0.02676  0  0.087615  0.078218  0  0.998413  0
H  H59  1  0.26690506  0.72566323  0.15766206  1  0.027091  0  0.096299  0.095648  0  0.984604  0
H  H60  1  0.27966676  0.65647459  0.21125649  1  0.020208  0  0.093967  0.091073  0  0.993994  0
H  H61  1  0.32030500  0.58959300  0.51857995  1  0.575212  0  0.288908  0.37626  0  0.933372  0
H  H62  1  0.01197085  0.07229051  0.01188010  1  0.585657  0  0.294479  0.386339  0  0.91837  0
C  C63  1  0.61526736  0.89782439  0.42608769  1  1.689039  0  0.278863  0.704116  0  4.169667  0
C  C64  1  0.62924189  0.40422551  0.22040962  1  0.003472  0  -0.075165  -0.107069  0  3.973286  0
C  C65  1  0.62408268  0.38877525  0.26944924  1  -0.029766  0  -0.077533  -0.125358  0  3.959199  0
C  C66  1  0.67261822  0.31935927  0.29031162  1  0.095195  0  0.008454  0.134394  0  4.108584  0
C  C67  1  0.68256462  0.35109729  0.19117571  1  0.11314  0  0.002551  0.058591  0  4.074327  0
C  C68  1  0.69013851  0.37080312  0.14132963  1  -0.196131  0  -0.002531  0.008635  0  4.071416  0
C  C69  1  0.66536195  0.30019349  0.34027821  1  -0.507093  0  -0.004334  -0.002437  0  4.043179  0
C  C70  1  0.70093497  0.38944426  0.09837666  1  -0.104569  0  -0.03505  -0.205655  0  3.92546  0
C  C71  1  0.22003001  0.87922197  0.38653689  1  0.285271  0  -0.024344  -0.173135  0  3.923627  0
C  C72  1  0.12570165  0.91930557  0.27138107  1  0.090303  0  -0.087321  -0.256832  0  3.952391  0
C  C73  1  0.10970212  0.90497107  0.22263559  1  0.431858  0  0.110349  0.259844  0  4.055872  0
C  C74  1  0.62963828  0.23133981  0.43096695  1  1.622995  0  0.284448  0.722341  0  4.149913  0
C  C75  1  0.18599931  0.75904653  0.21872723  1  -0.022165  0  0.008397  0.117616  0  3.946709  0
C  C76  1  0.20164283  0.77197320  0.26789577  1  0.019209  0  -0.082471  -0.203024  0  3.915032  0
C  C77  1  0.17260442  0.85166965  0.29461581  1  0.038796  0  0.012315  0.171605  0  4.120033  0
C  C78  1  0.13793633  0.82646484  0.19498290  1  0.141998  0  -0.006941  -0.044909  0  4.08644  0
C  C79  1  0.11616939  0.81458866  0.14542672  1  -0.514421  0  -0.017276  -0.002677  0  4.119688  0
C  C80  1  0.19497459  0.86610722  0.34423496  1  -0.501796  0  -0.012045  -0.020707  0  4.050013  0
C  C81  1  0.09347479  0.80182552  0.10287179  1  0.257367  0  -0.028754  -0.184991  0  3.917545  0
C  C82  1  0.64506495  0.87962567  0.37818594  1  0.084646  0  -0.022175  -0.165493  0  3.915548  0
C  C83  1  0.55647736  0.82945998  0.25716130  1  -0.017838  0  -0.072721  -0.095269  0  3.9619  0
C  C84  1  0.55574373  0.80900110  0.20846272  1  0.01913  0  -0.084287  -0.143333  0  3.967786  0
C  C85  1  0.27455407  0.90265112  0.43314934  1  1.639667  0  0.282933  0.702544  0  4.170975  0
C  C86  1  0.74839012  0.81020487  0.21546331  1  0.093891  0  -0.083279  -0.245858  0  3.941853  0
C  C87  1  0.74745765  0.83174937  0.26386125  1  0.441422  0  0.112246  0.255272  0  4.03758  0
C  C88  1  0.65296376  0.84170775  0.28632632  1  0.116781  0  -0.003811  0.01487  0  4.132887  0
C  C89  1  0.65156603  0.79904993  0.18703141  1  0.083234  0  0.009663  0.151755  0  4.111558  0
C  C90  1  0.65456722  0.78231344  0.13719043  1  -0.442374  0  -0.008897  -0.015757  0  4.056234  0
C  C91  1  0.65316324  0.86325929  0.33578507  1  -0.348368  0  -0.019749  -0.015155  0  4.098478  0
C  C92  1  0.66333735  0.77199240  0.09433237  1  0.186202  0  -0.027347  -0.181547  0  3.915911  0
C  C93  1  0.64275215  0.27105393  0.61589143  1  -0.061348  0  -0.01721  -0.05105  0  4.011995  0
C  C94  1  0.72362168  0.25294724  0.64397860  1  -0.023692  0  -0.081094  -0.086655  0  3.986559  0
C  C95  1  0.72957762  0.27646415  0.69264432  1  -0.040666  0  -0.088272  -0.127761  0  3.9983  0
C  C96  1  0.62410413  0.89067606  0.56182542  1  1.571856  0  0.271179  0.635262  0  4.094243  0
C  C97  1  0.65745685  0.31971513  0.71482373  1  -0.006751  0  0.002653  0.023506  0  3.926485  0
C  C98  1  0.57846966  0.34196050  0.68623003  1  0.016657  0  -0.000534  0.083368  0  3.913001  0
C  C99  1  0.57210886  0.31563127  0.63736018  1  -0.034467  0  -0.076244  -0.133515  0  3.929357  0
C  C100  1  0.78957846  0.40224460  0.78810350  1  -0.099309  0  -0.087195  -0.135232  0  3.967016  0
C  C101  1  0.80450779  0.42386251  0.83699359  1  0.023783  0  -0.078281  -0.077526  0  3.971106  0
C  C102  1  0.58140028  0.32862488  0.84590330  1  -0.040311  0  -0.075085  -0.077492  0  3.97099  0
C  C103  1  0.56645211  0.30281254  0.79725812  1  0.00306  0  -0.084447  -0.128183  0  3.963576  0
C  C104  1  0.67021981  0.34187620  0.76707113  1  0.005681  0  0.005446  0.090772  0  3.97013  0
C  C105  1  0.70091507  0.38981933  0.86624491  1  -0.042275  0  -0.017075  -0.056581  0  3.994278  0
C  C106  1  0.26297746  0.88788277  0.62111905  1  0.000644  0  -0.009916  -0.034185  0  3.968432  0
C  C107  1  0.62299313  0.22993713  0.56521582  1  1.5279  0  0.279473  0.651325  0  4.071911  0
C  C108  1  0.19191222  0.93417521  0.64098629  1  -0.040279  0  -0.078852  -0.086728  0  3.983204  0
C  C109  1  0.16221572  0.91630391  0.68937647  1  -0.01335  0  -0.088989  -0.135972  0  3.986876  0
C  C110  1  0.20651596  0.85654342  0.71916467  1  -0.049608  0  -0.005204  0.082379  0  4.003922  0
C  C111  1  0.28172644  0.81488717  0.69902649  1  0.000457  0  -0.088079  -0.127116  0  3.966469  0
C  C112  1  0.30735610  0.82845855  0.65055415  1  -0.041166  0  -0.079786  -0.076731  0  3.967345  0
C  C113  1  0.15355647  0.72847805  0.79569662  1  0.41839  0  0.102941  0.245549  0  4.020835  0
C  C114  1  0.12369403  0.70970240  0.84368050  1  -0.001683  0  -0.087745  -0.218796  0  3.997688  0
C  C115  1  0.13514554  0.91577636  0.84529407  1  -0.026784  0  -0.079143  -0.100609  0  3.976404  0
C  C116  1  0.16622698  0.93243521  0.79713581  1  -0.093767  0  -0.084654  -0.113887  0  3.987445  0
C  C117  1  0.17598060  0.83909303  0.77047048  1  0.032652  0  -0.005982  -0.027832  0  3.991424  0
C  C118  1  0.29894502  0.90296539  0.56985799  1  1.551763  0  0.271111  0.639821  0  4.091439  0
C  C119  1  0.11324692  0.80358684  0.86885676  1  0.016342  0  -0.013226  -0.028816  0  4.006188  0
C  C120  1  0.64402464  0.86169100  0.61130318  1  -0.023974  0  -0.010524  -0.016651  0  3.984083  0
C  C121  1  0.54417399  0.75379487  0.63455416  1  0.013439  0  -0.086078  -0.215207  0  3.983105  0
C  C122  1  0.55434527  0.73694057  0.68264263  1  0.388931  0  0.10171  0.237214  0  4.048882  0
C  C123  1  0.66237368  0.81979392  0.70911117  1  0.025621  0  -0.007112  -0.009661  0  4.012507  0
C  C124  1  0.76310216  0.92426228  0.68435604  1  0.02186  0  -0.083706  -0.112735  0  3.985894  0
C  C125  1  0.75410531  0.94658402  0.63641492  1  0.003785  0  -0.083348  -0.103048  0  3.991968  0
C  C126  1  0.77573391  0.79391905  0.77626457  1  -0.04905  0  -0.091316  -0.118483  0  4.014548  0
C  C127  1  0.79091940  0.78158676  0.82447496  1  -0.010397  0  -0.090472  -0.1078  0  4.015695  0
C  C128  1  0.59842309  0.77523015  0.84340475  1  0.021553  0  -0.004963  0.007977  0  3.955458  0
C  C129  1  0.65601142  0.28050181  0.38314194  1  0.290745  0  -0.032357  -0.19399  0  3.925462  0
C  C130  1  0.58835853  0.78968284  0.79457107  1  0.432052  0  0.100553  0.183464  0  4.00043  0
C  C131  1  0.67353260  0.79910501  0.76014812  1  0.051268  0  -0.01832  -0.032065  0  4.057402  0
C  C132  1  0.70268768  0.77127310  0.85768180  1  0.033469  0  -0.004932  -0.062403  0  3.94562  0
C  C133  1  0.04591702  0.78004849  0.05506882  1  1.65195  0  0.274473  0.708904  0  4.161906  0
C  C134  1  0.72564042  0.43765262  0.05053333  1  1.656316  0  0.282837  0.723155  0  4.151106  0
C  C135  1  0.69307197  0.75487098  0.04629420  1  1.652085  0  0.279078  0.707726  0  4.1715  0
C  C136  1  0.06538327  0.77772018  0.91866126  1  1.554311  0  0.27269  0.625982  0  4.104352  0
C  C137  1  0.72170044  0.43299045  0.91663732  1  1.518275  0  0.278609  0.648829  0  4.076926  0
C  C138  1  0.72617361  0.75718304  0.90876303  1  1.560576  0  0.275565  0.645096  0  4.090258  0
C  C139  1  0.72584729  0.26608237  0.26090845  1  -0.010535  0  -0.077349  -0.177747  0  3.895415  0
C  C140  1  0.73142825  0.28015528  0.21155892  1  -0.026047  0  0.009948  0.098685  0  3.912933  0
C  C141  1  0.50025068  0.39253863  0.70529461  1  -0.029786  0  -0.164322  -0.207994  0  3.966255  0
C  C142  1  0.36087039  0.28432265  0.71051053  1  -0.021005  0  -0.165578  -0.090023  0  3.967545  0
C  C143  1  0.28463495  0.33083225  0.73617362  1  -0.084043  0  -0.248007  -0.358421  0  3.976378  0
C  C144  1  0.78599377  0.22368096  0.17893696  1  -0.024072  0  -0.158005  -0.203663  0  3.97346  0
C  C145  1  0.84720108  0.15820497  0.20211758  1  0.018759  0  -0.168971  -0.090275  0  3.978453  0
C  C146  1  0.90059538  0.10872103  0.16468931  1  -0.06988  0  -0.251393  -0.360541  0  3.954103  0
C  C147  1  0.50506887  0.77050203  0.87826627  1  0.013538  0  -0.158377  -0.181831  0  3.964166  0
C  C148  1  0.38378958  0.63503662  0.88245850  1  -0.022448  0  -0.165753  -0.093854  0  3.961801  0
C  C149  1  0.30037122  0.63296898  0.92250876  1  -0.057508  0  -0.245216  -0.353291  0  3.973599  0
C  C150  1  0.21670896  0.67409206  0.19047600  1  0.026883  0  -0.158097  -0.203962  0  3.970557  0
C  C151  1  0.10093538  0.54200526  0.17592935  1  -0.037691  0  -0.16359  -0.087525  0  3.95239  0
C  C152  1  0.13722356  0.46909303  0.14177944  1  -0.078969  0  -0.242435  -0.355138  0  3.96458  0
O  O153  1  0.29193631  0.81728616  0.44983935  1  -1.206906  0  -0.19669  -0.526506  0  2.280021  0
O  O154  1  0.69963368  0.20506298  0.54549852  1  -1.263501  0  -0.233389  -0.598079  0  2.303283  0
O  O155  1  0.52510382  0.21365918  0.54463221  1  -1.268793  0  -0.237313  -0.604319  0  2.294746  0
O  O156  1  0.31173023  0.00214493  0.54738060  1  -1.270329  0  -0.251078  -0.616974  0  2.264123  0
O  O157  1  0.50145538  0.99273524  0.49699388  1  -1.605557  0  -0.390954  -1.269998  0  2.293429  0
O  O158  1  0.79621159  0.84393991  0.02915116  1  -1.206056  0  -0.206734  -0.554495  0  2.279471  0
O  O159  1  0.01420724  0.85636680  0.04008643  1  -1.215755  0  -0.210319  -0.560784  0  2.290939  0
O  O160  1  0.03541245  0.68172470  0.03223488  1  -1.257116  0  -0.243994  -0.608804  0  2.22909  0
O  O161  1  0.82864647  0.46255616  0.03124707  1  -1.240501  0  -0.231561  -0.593031  0  2.229859  0
O  O162  1  0.64645893  0.45855468  0.03160789  1  -1.242859  0  -0.225418  -0.587358  0  2.259092  0
O  O163  1  0.61349785  0.64545482  0.02578039  1  -1.25074  0  -0.240048  -0.597379  0  2.221388  0
O  O164  1  0.50403194  0.81877906  0.43941352  1  -1.206681  0  -0.200611  -0.538073  0  2.289767  0
O  O165  1  0.83166297  0.84226281  0.92532511  1  -1.236779  0  -0.208254  -0.545082  0  2.334515  0
O  O166  1  0.04715431  0.85961502  0.93874548  1  -1.240338  0  -0.209417  -0.551046  0  2.352757  0
O  O167  1  0.03886558  0.66826536  0.93730966  1  -1.27178  0  -0.244478  -0.607956  0  2.301193  0
O  O168  1  0.82531140  0.46402397  0.93606502  1  -1.269347  0  -0.234323  -0.598389  0  2.307261  0
O  O169  1  0.63721883  0.44530616  0.93720573  1  -1.271181  0  -0.237781  -0.604645  0  2.28538  0
O  O170  1  0.63967036  0.65619523  0.93140843  1  -1.262985  0  -0.241999  -0.612147  0  2.292677  0
O  O171  1  0.83721467  0.67415779  0.98339615  1  -1.609036  0  -0.391113  -1.269891  0  2.295679  0
O  O172  1  0.70208916  0.99491786  0.45013305  1  -1.255402  0  -0.240838  -0.602611  0  2.234413  0
O  O173  1  0.70668360  0.20664618  0.44995442  1  -1.243694  0  -0.22758  -0.589507  0  2.239995  0
O  O174  1  0.52802912  0.20944770  0.45001289  1  -1.236977  0  -0.225479  -0.585511  0  2.248766  0
O  O175  1  0.30662453  0.01299396  0.45285370  1  -1.241408  0  -0.23858  -0.598958  0  2.230765  0
O  O176  1  0.31986752  0.82007250  0.55232443  1  -1.245864  0  -0.218595  -0.575478  0  2.366787  0
O  O177  1  0.52390905  0.80803933  0.54094170  1  -1.249906  0  -0.221117  -0.580755  0  2.353379  0
O  O178  1  0.70830015  0.00304986  0.54469114  1  -1.269144  0  -0.24452  -0.602568  0  2.274122  0
O  O179  1  0.31076327  0.63564120  0.49269280  1  -1.363866  0  -0.575911  -0.989282  0  1.80024  0
O  O180  1  0.00511740  0.03066948  0.98155565  1  -1.374529  0  -0.578505  -0.997101  0  1.791579  0
F  F181  1  0.84190813  0.84454084  0.29099648  1  -0.630604  0  -0.09188  -0.135883  0  1.349849  0
F  F182  1  0.15514590  0.63022271  0.77210367  1  -0.635297  0  -0.098564  -0.147151  0  1.343419  0
F  F183  1  0.45433751  0.63368846  0.70493526  1  -0.640596  0  -0.088346  -0.141119  0  1.399119  0
F  F184  1  0.49202129  0.80185665  0.77994706  1  -0.634584  0  -0.097096  -0.143364  0  1.383675  0
F  F185  1  0.06401281  0.96958683  0.19992601  1  -0.639394  0  -0.084452  -0.134954  0  1.379461  0
