# generated using pymatgen
data_CoH5(C3N2)2
_symmetry_space_group_name_H-M   'P 1'
_cell_length_a   8.96599176
_cell_length_b   10.31268304
_cell_length_c   12.41540814
_cell_angle_alpha   80.98862482
_cell_angle_beta   68.83141062
_cell_angle_gamma   64.22275022
_symmetry_Int_Tables_number   1
_chemical_formula_structural   CoH5(C3N2)2
_chemical_formula_sum   'Co4 H20 C24 N16'
_cell_volume   963.98355569
_cell_formula_units_Z   4
loop_
 _symmetry_equiv_pos_site_id
 _symmetry_equiv_pos_as_xyz
  1  'x, y, z'
loop_
 _atom_site_type_symbol
 _atom_site_label
 _atom_site_symmetry_multiplicity
 _atom_site_fract_x
 _atom_site_fract_y
 _atom_site_fract_z
 _atom_site_occupancy
 _atom_site_hle17_ddec_charge
 _atom_site_hle17_ddec_spin_density
 _atom_site_hle17_ddec_sum_bond_order
 _atom_site_hle17_magmom
 _atom_site_hse06_10hf_ddec_charge
 _atom_site_hse06_10hf_ddec_spin_density
 _atom_site_hse06_10hf_ddec_sum_bond_order
 _atom_site_hse06_10hf_magmom
 _atom_site_hse06_ddec_charge
 _atom_site_hse06_ddec_spin_density
 _atom_site_hse06_ddec_sum_bond_order
 _atom_site_hse06_magmom
 _atom_site_pbe_cm5_charge
 _atom_site_pbe_ddec_charge
 _atom_site_pbe_ddec_spin_density
 _atom_site_pbe_ddec_sum_bond_order
 _atom_site_pbe_magmom
Co  Co0  1  0.88310422  0.09857697  0.36926141  1  0.743902  2.281827  2.558083  1.86  0.742714  2.047235  2.986411  1.754  0.841665  2.334624  2.902838  1.985  0.729025  0.669628  1.86503  3.049541  1.59
Co  Co1  1  0.35103888  0.90141416  0.63084871  1  0.742966  -2.282541  2.558323  -1.86  0.741584  -2.047533  2.986808  -1.755  0.840758  -2.334944  2.902747  -1.985  0.728439  0.668305  -1.865061  3.050201  -1.59
Co  Co2  1  0.00208509  0.59852847  0.13070890  1  0.742178  -2.281106  2.559663  -1.86  0.741293  -2.046772  2.988138  -1.755  0.840331  -2.333958  2.904259  -1.985  0.728443  0.668204  -1.864617  3.051345  -1.59
Co  Co3  1  0.73159953  0.40147227  0.86920906  1  0.742559  2.281551  2.55875  1.86  0.741755  2.04651  2.986852  1.754  0.840677  2.333791  2.903346  1.984  0.728838  0.668672  1.864197  3.049981  1.59
H  H4  1  0.72972983  0.11176194  0.66094633  1  0.060613  0.000275  0.970858  0.001  0.066762  -0.000171  1.040027  0.0  0.068173  6.2e-05  1.038063  0.001  0.115007  0.065904  -0.000339  1.041082  0.0
H  H5  1  0.50228315  0.88842321  0.33916338  1  0.061222  -0.000272  0.968546  -0.001  0.067534  0.000174  1.037691  0.0  0.068932  -6e-05  1.035695  -0.001  0.115272  0.066746  0.000337  1.038673  0.0
H  H6  1  0.14111513  0.61118164  0.83887367  1  0.061483  -0.000263  0.969189  -0.001  0.067411  0.000177  1.038634  0.0  0.068747  -5.7e-05  1.036733  -0.001  0.115515  0.066643  0.000341  1.039595  0.0
H  H7  1  0.59103212  0.38863940  0.16095106  1  0.059443  0.000279  0.968206  0.001  0.065609  -0.000168  1.037768  0.0  0.066984  6.4e-05  1.035811  0.001  0.113926  0.064791  -0.000337  1.038792  0.0
H  H8  1  0.61305951  0.99028101  0.40172640  1  0.090624  4.9e-05  1.014474  0.001  0.09285  -0.000337  1.0897  0.0  0.095085  -0.000625  1.090079  0.0  0.105734  0.091478  -0.000235  1.088989  0.0
H  H9  1  0.00493190  0.00958000  0.59848720  1  0.090214  -3.6e-05  1.014877  -0.001  0.092919  0.000339  1.089506  0.0  0.095137  0.000626  1.089866  0.0  0.105606  0.091558  0.000235  1.088798  0.0
H  H10  1  0.76432843  0.49073717  0.09811766  1  0.08987  -2.8e-05  1.014987  -0.001  0.092204  0.000343  1.090192  0.0  0.094414  0.000629  1.090576  0.0  0.105635  0.090845  0.00024  1.089487  0.0
H  H11  1  0.35335584  0.50942422  0.90153186  1  0.090878  4.7e-05  1.013614  0.001  0.093495  -0.000334  1.08855  0.0  0.095781  -0.000621  1.088795  0.0  0.105683  0.092095  -0.000233  1.087902  0.0
H  H12  1  0.10964821  0.76973814  0.26795249  1  0.097991  -0.000145  0.924227  0.0  0.107051  -0.000145  0.983257  0.0  0.108835  -0.000187  0.980451  0.0  0.139401  0.105218  -0.000107  0.985871  0.0
H  H13  1  0.14733171  0.23007092  0.73233981  1  0.098145  0.000145  0.922536  0.0  0.107615  0.000149  0.981439  0.0  0.109422  0.000191  0.978585  0.0  0.139447  0.105776  0.000114  0.984028  0.0
H  H14  1  0.12727774  0.27014936  0.23237424  1  0.098384  0.000145  0.922772  0.0  0.107639  0.000146  0.981888  0.0  0.109376  0.000189  0.979142  0.0  0.139276  0.105837  0.00011  0.984439  0.0
H  H15  1  0.62994567  0.73001077  0.76791406  1  0.098481  -0.000152  0.923585  0.0  0.1079  -0.000149  0.982298  0.0  0.109703  -0.000192  0.97947  0.0  0.139303  0.10604  -0.000112  0.984951  0.0
H  H16  1  0.75316939  0.89878550  0.08323299  1  0.10488  -0.000144  0.945355  -0.001  0.119166  -0.000126  0.996401  0.0  0.120792  -0.000185  0.996414  -0.001  0.122599  0.117539  -8.5e-05  0.996914  0.0
H  H17  1  0.73510503  0.10109759  0.91689733  1  0.106191  0.000137  0.945066  0.001  0.120496  0.000119  0.995884  0.0  0.122127  0.00018  0.995897  0.001  0.123154  0.118902  8.7e-05  0.996342  0.0
H  H18  1  0.58588877  0.39879558  0.41668999  1  0.105519  0.000136  0.94397  0.001  0.119518  0.000114  0.995324  0.0  0.121194  0.000177  0.995264  0.001  0.123058  0.117886  8e-05  0.995831  0.0
H  H19  1  0.40251533  0.60117669  0.58299160  1  0.104346  -0.000151  0.943822  -0.001  0.118246  -0.000129  0.995435  0.0  0.119918  -0.000188  0.99538  -0.001  0.122217  0.116624  -8.8e-05  0.995946  0.0
H  H20  1  0.70817296  0.13821858  0.18719823  1  0.096807  -6.8e-05  0.965697  0.001  0.106049  -9.3e-05  1.028562  0.0  0.107591  4.6e-05  1.028191  0.001  0.115611  0.104571  -0.000199  1.029194  0.0
H  H21  1  0.03362583  0.86165005  0.81280400  1  0.097004  7e-05  0.966707  -0.001  0.106494  9.5e-05  1.029141  0.0  0.108044  -4.5e-05  1.028784  -0.001  0.116104  0.10503  0.000203  1.029763  0.0
H  H22  1  0.64449367  0.63825207  0.31255821  1  0.097238  7e-05  0.96654  -0.001  0.106358  9.3e-05  1.029379  0.0  0.107886  -4.5e-05  1.029034  -0.001  0.116126  0.104914  0.000201  1.029991  0.0
H  H23  1  0.59662172  0.36171996  0.68708432  1  0.096909  -6.6e-05  0.965768  0.001  0.10637  -9.4e-05  1.028374  0.0  0.107912  4.7e-05  1.028003  0.001  0.116005  0.104868  -0.000201  1.029028  0.0
C  C24  1  0.66825168  0.07220260  0.62062528  1  0.195148  -0.015456  3.736187  -0.011  0.153477  -0.001345  4.014686  0.004  0.166001  0.005395  4.033163  0.014  0.113726  0.146885  -0.007086  3.999287  -0.004
C  C25  1  0.36090396  0.92792638  0.37953203  1  0.196262  0.015558  3.733867  0.011  0.154469  0.001377  4.012396  -0.004  0.167028  -0.00536  4.030875  -0.014  0.114179  0.147841  0.007136  3.996947  0.004
C  C26  1  0.03909159  0.57188642  0.87923543  1  0.195906  0.015353  3.730247  0.011  0.154561  0.001345  4.008851  -0.004  0.167152  -0.005382  4.027214  -0.014  0.113589  0.14791  0.007066  3.993475  0.004
C  C27  1  0.49006289  0.42804427  0.12055266  1  0.197534  -0.01534  3.731758  -0.011  0.155725  -0.001319  4.010368  0.004  0.168332  0.005392  4.028787  0.014  0.114876  0.149069  -0.007041  3.994991  -0.004
C  C28  1  0.60749040  0.00816593  0.48685774  1  -0.040231  -0.03009  3.758822  -0.024  -0.076253  -0.017115  4.042671  -0.013  -0.076934  -0.011835  4.074107  -0.004  -0.025738  -0.074713  -0.022447  4.018134  -0.02
C  C29  1  0.10231724  0.99191682  0.51330522  1  -0.041967  0.0298  3.758964  0.023  -0.078426  0.017104  4.043035  0.013  -0.079045  0.011836  4.07448  0.004  -0.026044  -0.076924  0.022491  4.018569  0.02
C  C30  1  0.84409594  0.50836215  0.01300366  1  -0.040928  0.029704  3.755652  0.023  -0.076832  0.017054  4.039662  0.013  -0.077476  0.011815  4.071096  0.003  -0.025935  -0.075312  0.0224  4.015207  0.019
C  C31  1  0.36547371  0.49174965  0.98671524  1  -0.042364  -0.030011  3.755365  -0.024  -0.078985  -0.017089  4.039409  -0.013  -0.07967  -0.011834  4.07084  -0.004  -0.02645  -0.077444  -0.022423  4.014874  -0.02
C  C32  1  0.50326564  0.98796839  0.59657161  1  -0.070311  0.121759  3.747644  0.155  -0.114993  0.072806  4.118214  0.1  -0.122479  0.13501  4.129468  0.179  -0.046259  -0.107225  0.042022  4.10641  0.061
C  C33  1  0.08760504  0.01218484  0.40358137  1  -0.067143  -0.121739  3.743166  -0.155  -0.111605  -0.072792  4.113253  -0.1  -0.119082  -0.134973  4.124571  -0.179  -0.045646  -0.103859  -0.042029  4.101438  -0.061
C  C34  1  0.84968445  0.48808756  0.90325883  1  -0.067759  -0.122058  3.742679  -0.155  -0.112325  -0.072818  4.112872  -0.1  -0.119791  -0.134975  4.124104  -0.179  -0.046337  -0.104601  -0.042077  4.10112  -0.061
C  C35  1  0.24092514  0.51198702  0.09641696  1  -0.068537  0.122015  3.746008  0.156  -0.113045  0.072826  4.116329  0.1  -0.120504  0.134959  4.127673  0.179  -0.046009  -0.105296  0.0421  4.104477  0.061
C  C36  1  0.00657648  0.83774920  0.23231130  1  0.225524  0.001005  3.662124  0.001  0.183621  0.001265  3.922947  0.002  0.203184  0.001202  3.939062  0.002  0.144834  0.169235  0.001285  3.913774  0.002
C  C37  1  0.07665605  0.16208813  0.76792832  1  0.224901  -0.000914  3.658604  -0.001  0.182486  -0.001231  3.919483  -0.002  0.202014  -0.001178  3.935622  -0.002  0.144783  0.168143  -0.001314  3.910158  -0.002
C  C38  1  0.98844431  0.33804805  0.26784223  1  0.224701  -0.000915  3.655768  -0.001  0.182822  -0.001217  3.916785  -0.002  0.202372  -0.001165  3.932958  -0.002  0.145396  0.168488  -0.001278  3.907445  -0.002
C  C39  1  0.59486487  0.66206723  0.73221052  1  0.224226  0.001087  3.660381  0.001  0.182001  0.001332  3.921198  0.002  0.201518  0.00126  3.937324  0.002  0.144776  0.167629  0.001381  3.912014  0.002
C  C40  1  0.81893152  0.90807339  0.13789881  1  -0.030842  0.010694  3.769957  0.012  -0.058336  0.003919  4.029604  0.004  -0.056191  0.003121  4.054127  0.003  -0.010709  -0.059744  0.004515  4.013854  0.004
C  C41  1  0.86484761  0.09179553  0.86229427  1  -0.033026  -0.010655  3.771742  -0.012  -0.060396  -0.003889  4.031405  -0.004  -0.058221  -0.003103  4.055919  -0.003  -0.011166  -0.061842  -0.004533  4.015625  -0.004
C  C42  1  0.70629395  0.40818521  0.36210976  1  -0.031291  -0.010685  3.769288  -0.012  -0.058528  -0.003924  4.028678  -0.004  -0.056389  -0.003133  4.053131  -0.003  -0.011019  -0.059928  -0.004569  4.012929  -0.004
C  C43  1  0.47744611  0.59185476  0.63774542  1  -0.030063  0.01071  3.769017  0.012  -0.057253  0.003925  4.028225  0.004  -0.055144  0.003126  4.052739  0.003  -0.009563  -0.05867  0.004528  4.012445  0.004
C  C44  1  0.79744089  0.02629096  0.18933730  1  -0.029509  -0.010119  3.764432  -0.012  -0.052742  -0.00367  4.019234  -0.004  -0.050514  -0.002926  4.042736  -0.004  -0.011337  -0.054482  -0.004257  4.004169  -0.005
C  C45  1  0.01304965  0.97357658  0.81077402  1  -0.029634  0.010162  3.764997  0.012  -0.053321  0.00367  4.019977  0.004  -0.05112  0.002923  4.043545  0.004  -0.011965  -0.05505  0.004317  4.004876  0.005
C  C46  1  0.73603954  0.52640714  0.31057801  1  -0.029763  0.010121  3.767025  0.012  -0.052575  0.003647  4.021842  0.004  -0.050355  0.002907  4.045387  0.004  -0.011271  -0.054326  0.004273  4.006773  0.005
C  C47  1  0.57401728  0.47363595  0.68922362  1  -0.028552  -0.010162  3.76594  -0.012  -0.051795  -0.003689  4.020568  -0.004  -0.049572  -0.00295  4.044055  -0.004  -0.011316  -0.053517  -0.004287  4.005515  -0.005
N  N48  1  0.71454068  0.06252360  0.50303257  1  -0.369379  0.053653  3.338576  0.077  -0.322898  0.037439  3.64505  0.047  -0.363723  0.030598  3.67084  0.035  -0.384803  -0.294262  0.041712  3.627077  0.054
N  N49  1  0.27993209  0.93751391  0.49714534  1  -0.369895  -0.053547  3.337142  -0.076  -0.323505  -0.037416  3.643822  -0.047  -0.364371  -0.03058  3.66958  -0.035  -0.385067  -0.294878  -0.041724  3.625911  -0.054
N  N50  1  0.96757916  0.56245074  0.99683582  1  -0.369755  -0.053502  3.336418  -0.076  -0.323396  -0.03736  3.643003  -0.047  -0.364226  -0.030529  3.6687  -0.035  -0.384309  -0.294793  -0.041669  3.625152  -0.054
N  N51  1  0.52684197  0.43755013  0.00295867  1  -0.369119  0.053911  3.336232  0.077  -0.322411  0.037677  3.642332  0.048  -0.363248  0.030805  3.66813  0.035  -0.384316  -0.293772  0.041974  3.62436  0.055
N  N52  1  0.54142472  0.02746706  0.67912957  1  -0.362844  0.038086  3.058402  0.055  -0.330367  0.023198  3.337766  0.032  -0.347782  0.024696  3.357555  0.035  -0.354413  -0.316668  0.024053  3.320503  0.033
N  N53  1  0.24783755  0.97273416  0.32104024  1  -0.365242  -0.038152  3.057023  -0.055  -0.332728  -0.023216  3.336297  -0.032  -0.350133  -0.024731  3.356053  -0.035  -0.3553  -0.319046  -0.024085  3.319116  -0.033
N  N54  1  0.97065091  0.52728482  0.82071659  1  -0.365012  -0.037977  3.054769  -0.055  -0.332582  -0.023132  3.334122  -0.032  -0.349956  -0.024621  3.353776  -0.035  -0.354804  -0.318896  -0.024006  3.316971  -0.033
N  N55  1  0.31846365  0.47269993  0.17900221  1  -0.363793  0.03811  3.057386  0.055  -0.331338  0.023257  3.336808  0.032  -0.348772  0.024754  3.356545  0.035  -0.354353  -0.31763  0.024125  3.319578  0.033
N  N56  1  0.91631271  0.98079564  0.24897008  1  -0.352225  0.043247  3.338879  0.057  -0.30359  0.031819  3.635915  0.037  -0.341661  0.024532  3.654996  0.025  -0.373274  -0.277471  0.035887  3.624987  0.042
N  N57  1  0.14608484  0.01903409  0.75120894  1  -0.350753  -0.043369  3.335857  -0.057  -0.30176  -0.031895  3.632646  -0.037  -0.339908  -0.024582  3.651835  -0.025  -0.372847  -0.275512  -0.035966  3.621513  -0.042
N  N58  1  0.91461427  0.48102478  0.25104196  1  -0.35074  -0.043375  3.337596  -0.058  -0.303114  -0.03192  3.635542  -0.037  -0.34117  -0.024621  3.654634  -0.025  -0.373716  -0.276961  -0.036003  3.624532  -0.043
N  N59  1  0.64743922  0.51905371  0.74887212  1  -0.352772  0.043159  3.340222  0.057  -0.304794  0.031731  3.638123  0.036  -0.342863  0.024422  3.657173  0.024  -0.374423  -0.278671  0.0358  3.627203  0.042
N  N60  1  0.95150143  0.78923975  0.16557364  1  -0.359282  -0.037345  3.376874  -0.044  -0.311807  -0.027873  3.68607  -0.027  -0.35144  -0.020315  3.706156  -0.014  -0.378961  -0.285188  -0.032361  3.67482  -0.033
N  N61  1  0.90628894  0.21059657  0.83468019  1  -0.359298  0.037375  3.375002  0.044  -0.312086  0.02792  3.684533  0.027  -0.351698  0.020377  3.704562  0.014  -0.379429  -0.285442  0.032374  3.673254  0.033
N  N62  1  0.86675267  0.28944531  0.33456841  1  -0.361031  0.037367  3.373873  0.044  -0.313358  0.027907  3.683067  0.027  -0.352968  0.020347  3.703073  0.014  -0.379835  -0.286749  0.032375  3.671812  0.033
N  N63  1  0.49130544  0.71062990  0.66545884  1  -0.358987  -0.037225  3.374951  -0.043  -0.31105  -0.02775  3.683698  -0.027  -0.350681  -0.020201  3.703751  -0.014  -0.378968  -0.284403  -0.032223  3.672426  -0.033
