# generated using pymatgen
data_ZnH22C29NO4
_symmetry_space_group_name_H-M   'P 1'
_cell_length_a   10.75710667
_cell_length_b   14.12731028
_cell_length_c   15.08656437
_cell_angle_alpha   88.29054902
_cell_angle_beta   88.17435163
_cell_angle_gamma   90.78529567
_symmetry_Int_Tables_number   1
_chemical_formula_structural   ZnH22C29NO4
_chemical_formula_sum   'Zn2 H44 C58 N2 O8'
_cell_volume   2290.25976929
_cell_formula_units_Z   2
loop_
 _symmetry_equiv_pos_site_id
 _symmetry_equiv_pos_as_xyz
  1  'x, y, z'
loop_
 _atom_site_type_symbol
 _atom_site_label
 _atom_site_symmetry_multiplicity
 _atom_site_fract_x
 _atom_site_fract_y
 _atom_site_fract_z
 _atom_site_occupancy
 _atom_site_pbe_bader_charge
 _atom_site_pbe_bader_spin_density
 _atom_site_pbe_cm5_charge
 _atom_site_pbe_ddec_charge
 _atom_site_pbe_ddec_spin_density
 _atom_site_pbe_ddec_sum_bond_order
 _atom_site_pbe_magmom
Zn  Zn0  1  0.51201241  0.60459737  0.49220610  1  1.306452  0  0.670264  0.836668  0  2.37745  0
Zn  Zn1  1  0.51183272  0.40159629  0.50047097  1  1.29144  0  0.673533  0.837251  0  2.377567  0
H  H2  1  0.92183463  0.57044220  0.37564178  1  -0.01591  0  0.085967  0.077921  0  1.010364  0
H  H3  1  0.88527593  0.40967460  0.62192405  1  0.002582  0  0.087165  0.084531  0  0.977907  0
H  H4  1  0.57007816  0.36786880  0.78645093  1  0.105449  0  0.102797  0.105726  0  1.001186  0
H  H5  1  0.34744757  0.61592375  0.76296696  1  0.061889  0  0.100432  0.100967  0  1.006761  0
H  H6  1  0.66209421  0.06482363  0.41761656  1  0.0971  0  0.112172  0.123101  0  1.006502  0
H  H7  1  0.56041546  0.95421346  0.36790298  1  0.065488  0  0.111358  0.120105  0  1.013343  0
H  H8  1  0.37198557  0.25429034  0.59100360  1  0.135773  0  0.130915  0.109152  0  0.976861  0
H  H9  1  0.44334077  0.74080795  0.61810760  1  0.140951  0  0.125914  0.109171  0  0.995363  0
H  H10  1  0.34900374  0.07817557  0.60349667  1  0.073665  0  0.113745  0.121666  0  0.988963  0
H  H11  1  0.43137827  0.91500266  0.64071283  1  0.084276  0  0.112467  0.119336  0  0.991978  0
H  H12  1  0.91473134  0.44552874  0.37482644  1  0.050404  0  0.085913  0.086193  0  1.020582  0
H  H13  1  0.88892630  0.35089421  0.52043616  1  0.043418  0  0.083754  0.081233  0  1.023916  0
H  H14  1  0.13147461  0.44184221  0.38223318  1  0.009939  0  0.086398  0.081257  0  0.990501  0
H  H15  1  0.10673797  0.34433599  0.52260971  1  0.04875  0  0.082837  0.076813  0  0.998014  0
H  H16  1  0.13809493  0.56671035  0.38542694  1  0.045495  0  0.089582  0.089861  0  0.986429  0
H  H17  1  0.10219946  0.39777040  0.62654402  1  0.015047  0  0.085512  0.080973  0  0.987962  0
H  H18  1  0.91329770  0.65433973  0.51981835  1  0.029678  0  0.084572  0.080436  0  1.000129  0
H  H19  1  0.89126225  0.59069583  0.62113977  1  0.017379  0  0.087445  0.084914  0  0.983192  0
H  H20  1  0.12877819  0.64677266  0.53573790  1  0.029938  0  0.085862  0.085652  0  1.001308  0
H  H21  1  0.10678497  0.57656705  0.63387218  1  0.016137  0  0.084555  0.077589  0  0.986062  0
H  H22  1  0.60821442  0.58732935  0.20130368  1  0.081556  0  0.101456  0.110923  0  1.041666  0
H  H23  1  0.28608751  0.40857514  0.24524455  1  0.065157  0  0.101628  0.104814  0  1.018773  0
H  H24  1  0.53166592  0.36334256  0.95138062  1  0.040772  0  0.099586  0.100415  0  0.995541  0
H  H25  1  0.30334162  0.60963026  0.92676253  1  0.065644  0  0.096986  0.092849  0  1.002263  0
H  H26  1  0.84940964  0.19301978  0.44003946  1  0.044424  0  0.101285  0.098096  0  0.998695  0
H  H27  1  0.99111289  0.25182001  0.31652432  1  0.028463  0  0.101001  0.095728  0  0.99582  0
H  H28  1  0.90557528  0.33562857  0.18506009  1  0.072719  0  0.096916  0.093903  0  1.026759  0
H  H29  1  0.67647794  0.36224222  0.17881759  1  0.05916  0  0.097649  0.092731  0  1.017034  0
H  H30  1  0.53600260  0.30480293  0.30249346  1  0.086969  0  0.102486  0.109848  0  1.031317  0
H  H31  1  0.74975356  0.70051983  0.40472871  1  0.104998  0  0.104022  0.108395  0  1.038658  0
H  H32  1  0.87329906  0.67060877  0.26652188  1  0.084782  0  0.101398  0.096776  0  1.005883  0
H  H33  1  0.80080263  0.73050854  0.12024091  1  0.084807  0  0.097817  0.094115  0  1.024121  0
H  H34  1  0.60272255  0.81819381  0.11238451  1  0.04923  0  0.099012  0.094974  0  1.003227  0
H  H35  1  0.48129343  0.85140830  0.25068874  1  0.031133  0  0.100063  0.097323  0  0.998652  0
H  H36  1  0.75822222  0.49528367  0.07600643  1  0.070645  0  0.098672  0.098199  0  1.012711  0
H  H37  1  0.93116475  0.56741952  0.98354819  1  0.049718  0  0.096481  0.092165  0  1.022427  0
H  H38  1  0.89035258  0.70229051  0.87809639  1  0.014603  0  0.098469  0.093763  0  0.998628  0
H  H39  1  0.67564047  0.76517991  0.86849816  1  0.045994  0  0.098867  0.09265  0  0.996283  0
H  H40  1  0.50375717  0.69340457  0.96213058  1  0.038176  0  0.097894  0.094778  0  1.013252  0
H  H41  1  0.15265288  0.49595555  0.98938430  1  0.052268  0  0.096427  0.093376  0  1.031244  0
H  H42  1  0.97542340  0.39820375  0.94169520  1  0.069366  0  0.100473  0.097338  0  0.999561  0
H  H43  1  0.94551550  0.23263612  0.00072658  1  0.070108  0  0.100282  0.095429  0  0.995983  0
H  H44  1  0.09493870  0.16598892  0.10833220  1  0.050509  0  0.099632  0.094433  0  0.995826  0
H  H45  1  0.27281889  0.26405580  0.15550235  1  0.039536  0  0.099144  0.098825  0  1.004051  0
C  C46  1  0.47225499  0.49968003  0.32974514  1  1.578221  0  0.215383  0.594263  0  4.167087  0
C  C47  1  0.08127602  0.58294155  0.56381670  1  -0.035658  0  -0.163485  -0.172344  0  3.875037  0
C  C48  1  0.51835201  0.54400645  0.08278398  1  -0.013728  0  -0.007219  0.021978  0  3.985523  0
C  C49  1  0.33141405  0.44477325  0.10736280  1  -0.012987  0  -0.008928  0.020693  0  3.986723  0
C  C50  1  0.53143498  0.54757955  0.17440487  1  -0.024754  0  -0.086536  -0.149985  0  3.967121  0
C  C51  1  0.35015603  0.44686391  0.19904945  1  -0.059193  0  -0.085768  -0.148698  0  3.956114  0
C  C52  1  0.44855589  0.49864358  0.23265411  1  -0.001804  0  -0.017365  -0.01516  0  4.005063  0
C  C53  1  0.41675012  0.49358226  0.04842469  1  -0.031744  0  -0.001584  -0.021819  0  3.916455  0
C  C54  1  0.48889124  0.41746603  0.90971453  1  -0.032377  0  -0.092039  -0.135205  0  3.991919  0
C  C55  1  0.36113322  0.55591086  0.89605003  1  -0.086576  0  -0.095132  -0.144693  0  4.025301  0
C  C56  1  0.51161175  0.42021602  0.81832251  1  -0.034432  0  -0.08393  -0.084456  0  3.980729  0
C  C57  1  0.38584959  0.56001463  0.80483132  1  -0.057851  0  -0.088025  -0.092887  0  3.992706  0
C  C58  1  0.46394362  0.49352213  0.76564249  1  -0.022431  0  -0.018471  -0.025171  0  3.961791  0
C  C59  1  0.41610841  0.48675973  0.95002206  1  0.019832  0  -0.007555  0.078487  0  4.016024  0
C  C60  1  0.59426971  0.10355144  0.45677997  1  -0.033805  0  -0.078588  -0.219662  0  3.910609  0
C  C61  1  0.53413497  0.90993285  0.42588766  1  -0.076867  0  -0.078451  -0.216683  0  3.912931  0
C  C62  1  0.74918185  0.50632254  0.49617434  1  1.556706  0  0.223689  0.593996  0  4.089354  0
C  C63  1  0.59685115  0.20222912  0.44845645  1  0.477767  0  0.141055  0.240785  0  3.936095  0
C  C64  1  0.54669185  0.81204551  0.41937030  1  0.552194  0  0.139124  0.236472  0  3.940366  0
C  C65  1  0.43332099  0.20851387  0.55303447  1  0.504909  0  0.059472  0.110534  0  3.916984  0
C  C66  1  0.46935274  0.79175859  0.56466235  1  0.488556  0  0.056769  0.106277  0  3.912543  0
C  C67  1  0.42234097  0.11030565  0.56059624  1  -0.013596  0  -0.081856  -0.184553  0  3.953211  0
C  C68  1  0.46120428  0.88884860  0.57633042  1  -0.053129  0  -0.083334  -0.185952  0  3.957705  0
C  C69  1  0.50363702  0.05520044  0.50987781  1  -0.01975  0  0.013381  0.11583  0  3.994259  0
C  C70  1  0.49669765  0.95091108  0.50535703  1  0.014584  0  0.012055  0.112905  0  3.998167  0
C  C71  1  0.49909199  0.50146231  0.66880859  1  1.580284  0  0.209784  0.590348  0  4.182068  0
C  C72  1  0.27267360  0.49620878  0.51532743  1  1.507262  0  0.218959  0.591134  0  4.102359  0
C  C73  1  0.95055573  0.50567247  0.41128663  1  -0.011605  0  -0.159797  -0.168491  0  3.84528  0
C  C74  1  0.92804289  0.41135898  0.55462429  1  -0.003862  0  -0.163981  -0.172836  0  3.859533  0
C  C75  1  0.09365427  0.50320107  0.41689206  1  -0.043894  0  -0.158326  -0.165627  0  3.849089  0
C  C76  1  0.07165138  0.40602042  0.55788215  1  -0.07286  0  -0.166167  -0.173425  0  3.893508  0
C  C77  1  0.93866184  0.58888288  0.55555241  1  -0.013945  0  -0.165301  -0.174028  0  3.890388  0
C  C78  1  0.88977312  0.50335634  0.50567464  1  0.026911  0  -0.01711  0.025561  0  3.798856  0
C  C79  1  0.13123687  0.49618988  0.51503389  1  0.101556  0  -0.019409  0.022262  0  3.810364  0
C  C80  1  0.68330947  0.24560096  0.37949365  1  -0.012158  0  -0.009147  0.032214  0  3.993036  0
C  C81  1  0.81169512  0.22990037  0.38248833  1  -0.074313  0  -0.088798  -0.126096  0  3.993819  0
C  C82  1  0.89117504  0.26305057  0.31317926  1  -0.021919  0  -0.091939  -0.083455  0  4.03694  0
C  C83  1  0.84325793  0.31085378  0.23959551  1  -0.038341  0  -0.090578  -0.084815  0  4.015143  0
C  C84  1  0.71540422  0.32551660  0.23599317  1  -0.014035  0  -0.091718  -0.076176  0  4.008756  0
C  C85  1  0.63558378  0.29300941  0.30538221  1  -0.027188  0  -0.087355  -0.109307  0  3.948022  0
C  C86  1  0.60866771  0.77924097  0.33690505  1  0.061517  0  -0.008634  0.033153  0  3.988175  0
C  C87  1  0.71851429  0.72718860  0.34074995  1  -0.004216  0  -0.082643  -0.101401  0  3.940153  0
C  C88  1  0.78735107  0.71044720  0.26296872  1  -0.116507  0  -0.090328  -0.082163  0  4.010208  0
C  C89  1  0.74714304  0.74420657  0.18090947  1  -0.041935  0  -0.089929  -0.082283  0  4.015383  0
C  C90  1  0.63601122  0.79395040  0.17657648  1  0.015263  0  -0.093774  -0.083229  0  4.035434  0
C  C91  1  0.56776931  0.81212823  0.25413772  1  -0.140298  0  -0.089895  -0.125064  0  3.984859  0
C  C92  1  0.61860688  0.58847141  0.02462124  1  0.021527  0  -0.005169  0.077183  0  3.993265  0
C  C93  1  0.74021161  0.55446021  0.03022162  1  -0.100575  0  -0.091183  -0.135202  0  3.980634  0
C  C94  1  0.83749967  0.59512033  0.97810455  1  -0.003236  0  -0.09886  -0.091779  0  4.052956  0
C  C95  1  0.81473982  0.67086593  0.91948811  1  -0.001814  0  -0.098838  -0.099147  0  4.047295  0
C  C96  1  0.69429198  0.70598140  0.91402252  1  -0.080036  0  -0.094891  -0.081606  0  4.039899  0
C  C97  1  0.59725168  0.66526105  0.96625898  1  -0.036516  0  -0.089136  -0.124773  0  3.980771  0
C  C98  1  0.22580709  0.38714796  0.07586353  1  -0.010019  0  -0.008381  0.076639  0  3.995781  0
C  C99  1  0.14082677  0.42345448  0.01518766  1  -0.020538  0  -0.092274  -0.132611  0  3.984454  0
C  C100  1  0.04079255  0.36838489  0.98843748  1  -0.090684  0  -0.09581  -0.085653  0  4.040045  0
C  C101  1  0.02373083  0.27557228  0.02161597  1  -0.059574  0  -0.097935  -0.097863  0  4.047964  0
C  C102  1  0.10737521  0.23841922  0.08206693  1  -0.083685  0  -0.096896  -0.087416  0  4.057537  0
C  C103  1  0.20704953  0.29370416  0.10896448  1  -0.014786  0  -0.094294  -0.138731  0  3.982363  0
N  N104  1  0.51643594  0.25413143  0.49734345  1  -1.207481  0  -0.303922  -0.2385  0  3.42419  0
N  N105  1  0.51308773  0.75324527  0.48900792  1  -1.232058  0  -0.302126  -0.236655  0  3.408536  0
O  O106  1  0.52179600  0.57419931  0.35889957  1  -1.167314  0  -0.311708  -0.542328  0  2.34972  0
O  O107  1  0.44426412  0.42433092  0.37483811  1  -1.175386  0  -0.314308  -0.553178  0  2.361004  0
O  O108  1  0.69622881  0.58503768  0.50926754  1  -1.16535  0  -0.313947  -0.549262  0  2.380229  0
O  O109  1  0.69447070  0.43068826  0.47356520  1  -1.177816  0  -0.31606  -0.551461  0  2.37349  0
O  O110  1  0.48313253  0.58161102  0.63011206  1  -1.171696  0  -0.319239  -0.560925  0  2.327236  0
O  O111  1  0.54278547  0.42779030  0.63305191  1  -1.166945  0  -0.327772  -0.562667  0  2.302795  0
O  O112  1  0.32643216  0.57344092  0.48877109  1  -1.176119  0  -0.324886  -0.562554  0  2.356328  0
O  O113  1  0.32662006  0.42033359  0.53893852  1  -1.173781  0  -0.319745  -0.555103  0  2.334002  0
