# generated using pymatgen
data_AgH5C5N3ClO3
_symmetry_space_group_name_H-M   'P 1'
_cell_length_a   7.77901103
_cell_length_b   8.30262916
_cell_length_c   13.19681601
_cell_angle_alpha   89.99968978
_cell_angle_beta   89.99983537
_cell_angle_gamma   89.99983282
_symmetry_Int_Tables_number   1
_chemical_formula_structural   AgH5C5N3ClO3
_chemical_formula_sum   'Ag4 H20 C20 N12 Cl4 O12'
_cell_volume   852.33277697
_cell_formula_units_Z   4
loop_
 _symmetry_equiv_pos_site_id
 _symmetry_equiv_pos_as_xyz
  1  'x, y, z'
loop_
 _atom_site_type_symbol
 _atom_site_label
 _atom_site_symmetry_multiplicity
 _atom_site_fract_x
 _atom_site_fract_y
 _atom_site_fract_z
 _atom_site_occupancy
 _atom_site_hle17_bader_spin_density
 _atom_site_hle17_ddec_charge
 _atom_site_hle17_ddec_spin_density
 _atom_site_hle17_ddec_sum_bond_order
 _atom_site_hle17_magmom
 _atom_site_hse06_10hf_bader_spin_density
 _atom_site_hse06_10hf_ddec_charge
 _atom_site_hse06_10hf_ddec_spin_density
 _atom_site_hse06_10hf_ddec_sum_bond_order
 _atom_site_hse06_10hf_magmom
 _atom_site_hse06_bader_spin_density
 _atom_site_hse06_ddec_charge
 _atom_site_hse06_ddec_spin_density
 _atom_site_hse06_ddec_sum_bond_order
 _atom_site_hse06_magmom
 _atom_site_pbe_bader_spin_density
 _atom_site_pbe_cm5_charge
 _atom_site_pbe_ddec_charge
 _atom_site_pbe_ddec_spin_density
 _atom_site_pbe_ddec_sum_bond_order
 _atom_site_pbe_magmom
Ag  Ag0  1  0.89805671  0.20651196  0.76827284  1  0  0.548739  0  1.332541  0  0  0.402548  0  1.766013  0  0  0.433123  0  1.718312  0  0  0.427559  0.381411  0  1.799005  0
Ag  Ag1  1  0.10194395  0.20651176  0.23172667  1  0  0.548742  0  1.332519  0  0  0.40256  0  1.765993  0  0  0.433134  0  1.71829  0  0  0.42757  0.381423  0  1.798983  0
Ag  Ag2  1  0.39805531  0.79348832  0.73172633  1  0  0.548762  0  1.332535  0  0  0.402593  0  1.765991  0  0  0.433171  0  1.718291  0  0  0.427591  0.381458  0  1.798983  0
Ag  Ag3  1  0.60194482  0.79348763  0.26827194  1  0  0.548741  0  1.332523  0  0  0.402553  0  1.765986  0  0  0.433129  0  1.718284  0  0  0.427577  0.381419  0  1.798981  0
H  H4  1  0.09455683  0.80757512  0.61939416  1  0  0.317446  0  0.904215  0  0  0.301995  0  0.967529  0  0  0.308105  0  0.963237  0  0  0.291333  0.297576  0  0.97067  0
H  H5  1  0.90544069  0.80757624  0.38060406  1  0  0.317484  0  0.904175  0  0  0.302034  0  0.967496  0  0  0.308143  0  0.963204  0  0  0.291345  0.297617  0  0.970631  0
H  H6  1  0.59455644  0.19242359  0.88060552  1  0  0.317454  0  0.904198  0  0  0.302002  0  0.967518  0  0  0.308111  0  0.963227  0  0  0.291322  0.297581  0  0.970663  0
H  H7  1  0.40544170  0.19242352  0.11939404  1  0  0.317463  0  0.904197  0  0  0.302012  0  0.967517  0  0  0.308121  0  0.963226  0  0  0.291331  0.297592  0  0.970655  0
H  H8  1  0.25658407  0.79708943  0.53372944  1  0  0.317439  0  0.924305  0  0  0.300375  0  0.987498  0  0  0.30793  0  0.981578  0  0  0.291238  0.294937  0  0.991766  0
H  H9  1  0.74341476  0.79708905  0.46626882  1  0  0.317447  0  0.924347  0  0  0.300377  0  0.987551  0  0  0.307932  0  0.981632  0  0  0.291217  0.294938  0  0.991819  0
H  H10  1  0.75658452  0.20290762  0.96627148  1  0  0.317387  0  0.924344  0  0  0.300407  0  0.987422  0  0  0.307964  0  0.981497  0  0  0.291241  0.294969  0  0.991689  0
H  H11  1  0.24341487  0.20291115  0.03372880  1  0  0.317385  0  0.924355  0  0  0.300399  0  0.987436  0  0  0.307953  0  0.981517  0  0  0.291246  0.29496  0  0.991702  0
H  H12  1  0.13706852  0.11863440  0.58617138  1  0  0.099413  0  0.943309  0  0  0.107865  0  1.006027  0  0  0.110768  0  1.003373  0  0  0.116645  0.105715  0  1.008057  0
H  H13  1  0.86292856  0.11863174  0.41382843  1  0  0.099453  0  0.943262  0  0  0.107857  0  1.006041  0  0  0.110787  0  1.003352  0  0  0.116646  0.105708  0  1.00807  0
H  H14  1  0.63706969  0.88136780  0.91382672  1  0  0.099453  0  0.943219  0  0  0.107859  0  1.005999  0  0  0.110789  0  1.003309  0  0  0.116651  0.105711  0  1.008027  0
H  H15  1  0.36293402  0.88136813  0.08617277  1  0  0.099395  0  0.94332  0  0  0.107815  0  1.00609  0  0  0.110748  0  1.003392  0  0  0.116663  0.105668  0  1.008118  0
H  H16  1  0.32393685  0.25454587  0.45585395  1  0  0.104118  0  0.945858  0  0  0.113983  0  1.007109  0  0  0.116905  0  1.005854  0  0  0.10433  0.111819  0  1.008223  0
H  H17  1  0.67606238  0.25454260  0.54414464  1  0  0.104144  0  0.945868  0  0  0.114025  0  1.007096  0  0  0.116948  0  1.005839  0  0  0.104341  0.111859  0  1.00821  0
H  H18  1  0.82393381  0.74545531  0.04414504  1  0  0.104159  0  0.945832  0  0  0.114026  0  1.007074  0  0  0.116948  0  1.005817  0  0  0.104338  0.111863  0  1.008185  0
H  H19  1  0.17606133  0.74546070  0.95585718  1  0  0.104225  0  0.945852  0  0  0.114076  0  1.007103  0  0  0.116998  0  1.005845  0  0  0.104364  0.11191  0  1.008215  0
H  H20  1  0.34864003  0.55572271  0.45864651  1  0  0.116912  0  0.949856  0  0  0.127367  0  1.011314  0  0  0.130478  0  1.009178  0  0  0.108327  0.125002  0  1.013067  0
H  H21  1  0.65135826  0.55572073  0.54135257  1  0  0.116892  0  0.949789  0  0  0.127348  0  1.011257  0  0  0.130445  0  1.009138  0  0  0.108326  0.124996  0  1.012995  0
H  H22  1  0.84863794  0.44427840  0.04135623  1  0  0.116885  0  0.949836  0  0  0.127331  0  1.011311  0  0  0.130428  0  1.009192  0  0  0.108316  0.124991  0  1.013031  0
H  H23  1  0.15135942  0.44428384  0.95864778  1  0  0.116931  0  0.949795  0  0  0.127359  0  1.011298  0  0  0.130455  0  1.00918  0  0  0.108336  0.125015  0  1.013022  0
C  C24  1  0.15463482  0.24835474  0.58494206  1  0  0.112555  0  3.693088  0  0  0.075798  0  3.954532  0  0  0.082356  0  3.971102  0  0  0.027208  0.071097  0  3.943818  0
C  C25  1  0.84536700  0.24835332  0.41505731  1  0  0.112537  0  3.692975  0  0  0.075823  0  3.954397  0  0  0.082355  0  3.970975  0  0  0.027202  0.071125  0  3.943682  0
C  C26  1  0.65463253  0.75164501  0.91505601  1  0  0.11256  0  3.692994  0  0  0.075853  0  3.954399  0  0  0.082385  0  3.970977  0  0  0.027199  0.071152  0  3.943682  0
C  C27  1  0.34536644  0.75164660  0.08494392  1  0  0.112647  0  3.693166  0  0  0.075922  0  3.954578  0  0  0.082446  0  3.971175  0  0  0.02723  0.071222  0  3.943862  0
C  C28  1  0.25721990  0.32509807  0.51327455  1  0  -0.097148  0  3.762639  0  0  -0.115137  0  4.025921  0  0  -0.119018  0  4.045986  0  0  -0.091147  -0.112637  0  4.012511  0
C  C29  1  0.74278168  0.32509631  0.48672531  1  0  -0.097276  0  3.762758  0  0  -0.115276  0  4.026036  0  0  -0.119155  0  4.046101  0  0  -0.091192  -0.112773  0  4.012627  0
C  C30  1  0.75721750  0.67490381  0.98672485  1  0  -0.097255  0  3.762709  0  0  -0.115243  0  4.02598  0  0  -0.119121  0  4.046042  0  0  -0.091172  -0.112749  0  4.012588  0
C  C31  1  0.24278043  0.67490992  0.01327685  1  0  -0.097338  0  3.762763  0  0  -0.11532  0  4.026069  0  0  -0.119198  0  4.04613  0  0  -0.091218  -0.112829  0  4.012687  0
C  C32  1  0.27084733  0.49206443  0.51437983  1  0  -0.112631  0  3.686409  0  0  -0.136184  0  3.941023  0  0  -0.136729  0  3.959641  0  0  -0.084303  -0.135647  0  3.928688  0
C  C33  1  0.72915630  0.49206272  0.48562098  1  0  -0.112575  0  3.686353  0  0  -0.136113  0  3.940923  0  0  -0.136648  0  3.959548  0  0  -0.084297  -0.135585  0  3.92858  0
C  C34  1  0.77084546  0.50793620  0.98562031  1  0  -0.112565  0  3.686359  0  0  -0.136098  0  3.940951  0  0  -0.136632  0  3.959575  0  0  -0.084271  -0.135579  0  3.928597  0
C  C35  1  0.22915170  0.50793993  0.01438044  1  0  -0.112567  0  3.686225  0  0  -0.136086  0  3.940827  0  0  -0.136618  0  3.95945  0  0  -0.084285  -0.135567  0  3.928471  0
C  C36  1  0.18325876  0.58110591  0.58856052  1  0  0.194777  0  3.836158  0  0  0.184295  0  4.085959  0  0  0.188661  0  4.108899  0  0  0.083305  0.180856  0  4.070704  0
C  C37  1  0.81674203  0.58110700  0.41144074  1  0  0.194841  0  3.836328  0  0  0.184386  0  4.086098  0  0  0.188755  0  4.109029  0  0  0.083374  0.180945  0  4.070849  0
C  C38  1  0.68325752  0.41889497  0.91143901  1  0  0.19479  0  3.836213  0  0  0.184299  0  4.086044  0  0  0.188667  0  4.108977  0  0  0.083282  0.180862  0  4.07079  0
C  C39  1  0.31674249  0.41889781  0.08856053  1  0  0.194714  0  3.836075  0  0  0.184225  0  4.085924  0  0  0.188592  0  4.108854  0  0  0.083285  0.180787  0  4.070673  0
C  C40  1  0.08183324  0.49220740  0.65697802  1  0  0.158891  0  3.819733  0  0  0.152214  0  4.091227  0  0  0.15907  0  4.11092  0  0  0.122932  0.147374  0  4.078126  0
C  C41  1  0.91816396  0.49220761  0.34302506  1  0  0.158778  0  3.819915  0  0  0.152115  0  4.091388  0  0  0.15897  0  4.11108  0  0  0.122866  0.147277  0  4.078288  0
C  C42  1  0.58183463  0.50779013  0.84302244  1  0  0.158875  0  3.819834  0  0  0.152205  0  4.091317  0  0  0.159061  0  4.111009  0  0  0.122907  0.147367  0  4.078208  0
C  C43  1  0.41816767  0.50779091  0.15697756  1  0  0.158938  0  3.819721  0  0  0.152255  0  4.09122  0  0  0.159115  0  4.11091  0  0  0.122938  0.147419  0  4.078113  0
N  N44  1  0.06706041  0.33235927  0.65557948  1  0  -0.344717  0  3.392547  0  0  -0.271026  0  3.675238  0  0  -0.288779  0  3.692597  0  0  -0.344355  -0.258795  0  3.663286  0
N  N45  1  0.93293987  0.33236062  0.34442036  1  0  -0.344687  0  3.392442  0  0  -0.271019  0  3.675146  0  0  -0.288769  0  3.692509  0  0  -0.344352  -0.258796  0  3.663202  0
N  N46  1  0.56706129  0.66763951  0.84442025  1  0  -0.344752  0  3.392512  0  0  -0.27108  0  3.675212  0  0  -0.288835  0  3.692585  0  0  -0.344344  -0.258848  0  3.663263  0
N  N47  1  0.43294051  0.66764146  0.15557921  1  0  -0.344768  0  3.392544  0  0  -0.271075  0  3.675237  0  0  -0.288826  0  3.692601  0  0  -0.344372  -0.25885  0  3.663297  0
N  N48  1  0.20426757  0.74750252  0.59854824  1  0  -0.633377  0  3.213484  0  0  -0.570189  0  3.454779  0  0  -0.592058  0  3.453385  0  0  -0.607786  -0.554803  0  3.455661  0
N  N49  1  0.79573270  0.74750256  0.40145095  1  0  -0.633389  0  3.213558  0  0  -0.57022  0  3.454879  0  0  -0.592088  0  3.453483  0  0  -0.607767  -0.554833  0  3.455765  0
N  N50  1  0.70426818  0.25249709  0.90145126  1  0  -0.633373  0  3.213421  0  0  -0.570246  0  3.454659  0  0  -0.592116  0  3.453265  0  0  -0.607777  -0.55486  0  3.455538  0
N  N51  1  0.29573105  0.25249750  0.09854809  1  0  -0.633349  0  3.213356  0  0  -0.570229  0  3.45463  0  0  -0.592098  0  3.453238  0  0  -0.607791  -0.55484  0  3.455508  0
N  N52  1  0.73127120  0.93396425  0.63681200  1  0  0.681573  0  4.151329  0  0  0.713541  0  4.437418  0  0  0.740216  0  4.445921  0  0  0.089534  0.694526  0  4.431223  0
N  N53  1  0.26872978  0.93396366  0.36318882  1  0  0.681572  0  4.151401  0  0  0.713497  0  4.437522  0  0  0.740178  0  4.446027  0  0  0.089485  0.694484  0  4.431325  0
N  N54  1  0.23127142  0.06603528  0.86318896  1  0  0.681465  0  4.151477  0  0  0.713432  0  4.437582  0  0  0.740092  0  4.44609  0  0  0.089511  0.694419  0  4.431381  0
N  N55  1  0.76872839  0.06603527  0.13681026  1  0  0.681373  0  4.151229  0  0  0.713353  0  4.437335  0  0  0.740008  0  4.445844  0  0  0.089416  0.694342  0  4.431133  0
Cl  Cl56  1  0.97335878  0.59567420  0.75081639  1  0  -0.063809  0  1.441957  0  0  -0.046533  0  1.703436  0  0  -0.051277  0  1.696625  0  0  0.039966  -0.043142  0  1.708336  0
Cl  Cl57  1  0.02663811  0.59567646  0.24918331  1  0  -0.063791  0  1.441909  0  0  -0.04651  0  1.703367  0  0  -0.051254  0  1.696555  0  0  0.039986  -0.043115  0  1.708266  0
Cl  Cl58  1  0.47335979  0.40431985  0.74918568  1  0  -0.063804  0  1.441924  0  0  -0.046512  0  1.703364  0  0  -0.051256  0  1.696553  0  0  0.039985  -0.043122  0  1.708269  0
Cl  Cl59  1  0.52664283  0.40432072  0.25081542  1  0  -0.063819  0  1.441906  0  0  -0.046526  0  1.703367  0  0  -0.051271  0  1.696555  0  0  0.03997  -0.043137  0  1.70827  0
O  O60  1  0.87933891  0.96229258  0.60218075  1  0  -0.459439  0  1.780644  0  0  -0.445763  0  2.000238  0  0  -0.460195  0  1.994021  0  0  -0.185395  -0.435248  0  2.004455  0
O  O61  1  0.12066199  0.96229209  0.39781846  1  0  -0.459443  0  1.780704  0  0  -0.44575  0  2.000302  0  0  -0.460191  0  1.994092  0  0  -0.185384  -0.435234  0  2.004518  0
O  O62  1  0.37933905  0.03770535  0.89781769  1  0  -0.459361  0  1.780779  0  0  -0.445699  0  2.000393  0  0  -0.46013  0  1.994184  0  0  -0.185354  -0.435187  0  2.004615  0
O  O63  1  0.62066214  0.03770604  0.10218012  1  0  -0.459271  0  1.780514  0  0  -0.445609  0  2.000126  0  0  -0.460039  0  1.993918  0  0  -0.18529  -0.435092  0  2.004339  0
O  O64  1  0.67810888  0.00287940  0.71707845  1  0  -0.472387  0  1.851606  0  0  -0.451162  0  2.109705  0  0  -0.468765  0  2.098193  0  0  -0.196664  -0.438289  0  2.117363  0
O  O65  1  0.32189241  0.00287574  0.28292024  1  0  -0.472367  0  1.851637  0  0  -0.451136  0  2.109757  0  0  -0.468742  0  2.098242  0  0  -0.196632  -0.438263  0  2.117411  0
O  O66  1  0.17810660  0.99712149  0.78292185  1  0  -0.472374  0  1.851608  0  0  -0.451159  0  2.109731  0  0  -0.468758  0  2.098217  0  0  -0.196688  -0.438284  0  2.117387  0
O  O67  1  0.82189290  0.99712184  0.21707724  1  0  -0.472344  0  1.851592  0  0  -0.451126  0  2.109694  0  0  -0.468722  0  2.09818  0  0  -0.196657  -0.438254  0  2.117349  0
O  O68  1  0.63139630  0.83634852  0.59092088  1  0  -0.468339  0  1.811925  0  0  -0.444013  0  2.037734  0  0  -0.460818  0  2.029191  0  0  -0.192747  -0.431772  0  2.043309  0
O  O69  1  0.36860241  0.83634967  0.40908330  1  0  -0.46838  0  1.811903  0  0  -0.443988  0  2.03767  0  0  -0.460794  0  2.029126  0  0  -0.192732  -0.431756  0  2.043254  0
O  O70  1  0.13139728  0.16365008  0.90908253  1  0  -0.468332  0  1.811921  0  0  -0.443968  0  2.037687  0  0  -0.460761  0  2.029136  0  0  -0.192734  -0.431737  0  2.043277  0
O  O71  1  0.86860223  0.16365019  0.09091637  1  0  -0.468332  0  1.811927  0  0  -0.443986  0  2.037703  0  0  -0.460778  0  2.029151  0  0  -0.192729  -0.431765  0  2.043302  0
