# generated using pymatgen
data_AlH9C27(OF)6
_symmetry_space_group_name_H-M   'P 1'
_cell_length_a   4.01703092
_cell_length_b   16.06572841
_cell_length_c   16.06569623
_cell_angle_alpha   119.87989833
_cell_angle_beta   90.81494787
_cell_angle_gamma   90.81281717
_symmetry_Int_Tables_number   1
_chemical_formula_structural   AlH9C27(OF)6
_chemical_formula_sum   'Al1 H9 C27 O6 F6'
_cell_volume   898.63930999
_cell_formula_units_Z   1
loop_
 _symmetry_equiv_pos_site_id
 _symmetry_equiv_pos_as_xyz
  1  'x, y, z'
loop_
 _atom_site_type_symbol
 _atom_site_label
 _atom_site_symmetry_multiplicity
 _atom_site_fract_x
 _atom_site_fract_y
 _atom_site_fract_z
 _atom_site_occupancy
 _atom_site_pbe_bader_charge
 _atom_site_pbe_bader_spin_density
 _atom_site_pbe_cm5_charge
 _atom_site_pbe_ddec_charge
 _atom_site_pbe_ddec_spin_density
 _atom_site_pbe_ddec_sum_bond_order
 _atom_site_pbe_magmom
Al  Al0  1  0.99999530  0.49975406  0.50017283  1  2.506368  0  0.433217  1.605091  0  2.565003  0
H  H1  1  0.50002427  0.92248351  0.07740356  1  0.076881  0  0.101963  0.102957  0  1.021975  0
H  H2  1  0.47843062  0.65513545  0.07736208  1  0.072534  0  0.101575  0.102791  0  1.019732  0
H  H3  1  0.52150658  0.92252705  0.34472642  1  0.076078  0  0.101842  0.103128  0  1.020596  0
H  H4  1  0.76009156  0.05932216  0.16219997  1  0.051064  0  0.110169  0.136593  0  0.99408  0
H  H5  1  0.23054309  0.05257082  0.39292087  1  0.076555  0  0.109877  0.135668  0  0.995031  0
H  H6  1  0.24000633  0.83773357  0.94058787  1  0.052466  0  0.110047  0.136426  0  0.993645  0
H  H7  1  0.76919005  0.60694887  0.94733923  1  0.075552  0  0.109669  0.135362  0  0.994948  0
H  H8  1  0.75144439  0.60403561  0.16044462  1  0.084052  0  0.110532  0.137149  0  0.993167  0
H  H9  1  0.24854479  0.83947068  0.39586630  1  0.084985  0  0.110485  0.136994  0  0.993162  0
C  C10  1  0.51222584  0.57313767  0.64731557  1  1.618554  0  0.287978  0.706656  0  4.051243  0
C  C11  1  0.50000479  0.57313134  0.42681663  1  1.581254  0  0.280561  0.700546  0  4.048426  0
C  C12  1  0.48779496  0.35259680  0.42677194  1  1.6422  0  0.288559  0.707528  0  4.051055  0
C  C13  1  0.49983590  0.78272372  0.06520761  1  -0.025654  0  -0.00462  0.081906  0  4.009379  0
C  C14  1  0.49996911  0.88330263  0.11657282  1  -0.184564  0  -0.085234  -0.168701  0  3.914123  0
C  C15  1  0.50009703  0.93467328  0.21715027  1  -0.026784  0  -0.004637  0.081912  0  4.009095  0
C  C16  1  0.50466129  0.88328273  0.26652590  1  0.054104  0  -0.087099  -0.172776  0  3.921434  0
C  C17  1  0.49998394  0.78263392  0.21723529  1  -0.0894  0  -0.006051  0.077544  0  4.012952  0
C  C18  1  0.49525273  0.73334126  0.11659043  1  0.052262  0  -0.086933  -0.172354  0  3.920305  0
C  C19  1  0.62468497  0.19329345  0.28133856  1  0.422402  0  0.107001  0.300717  0  4.071379  0
C  C20  1  0.63467032  0.09385138  0.23056006  1  0.173787  0  -0.107613  -0.28602  0  3.994821  0
C  C21  1  0.49669862  0.04078055  0.27006388  1  0.035313  0  -0.004587  0.116531  0  4.026146  0
C  C22  1  0.35197284  0.09025842  0.36063998  1  0.102826  0  -0.107996  -0.285412  0  3.994303  0
C  C23  1  0.35155412  0.18980516  0.40915387  1  0.366416  0  0.107409  0.301884  0  4.068383  0
C  C24  1  0.48613004  0.24462546  0.37188803  1  0.057218  0  -0.02311  -0.256529  0  3.95494  0
C  C25  1  0.36542251  0.76936376  0.90605019  1  0.169852  0  -0.107592  -0.2857  0  3.993971  0
C  C26  1  0.37536593  0.71857320  0.80659868  1  0.423335  0  0.107046  0.30049  0  4.071341  0
C  C27  1  0.51378427  0.62801063  0.75528238  1  0.08225  0  -0.022811  -0.25626  0  3.954818  0
C  C28  1  0.64833587  0.59073227  0.81008796  1  0.364612  0  0.106881  0.301147  0  4.06899  0
C  C29  1  0.64792314  0.63923864  0.90963485  1  0.103007  0  -0.107286  -0.283985  0  3.992954  0
C  C30  1  0.50328443  0.72982735  0.95911059  1  0.036514  0  -0.004629  0.115867  0  4.025984  0
C  C31  1  0.63572587  0.63785829  0.23030613  1  -0.018535  0  -0.108346  -0.29067  0  3.992988  0
C  C32  1  0.63471488  0.58927409  0.28135795  1  0.405218  0  0.113102  0.313004  0  4.048176  0
C  C33  1  0.50001227  0.62664622  0.37328267  1  0.18427  0  -0.025069  -0.266803  0  3.922808  0
C  C34  1  0.36528588  0.71857264  0.41064089  1  0.398716  0  0.113005  0.313039  0  4.048649  0
C  C35  1  0.36424833  0.76960913  0.36204586  1  -0.014499  0  -0.107905  -0.290036  0  3.993132  0
C  C36  1  0.49997960  0.72953768  0.27036445  1  0.115245  0  0.001734  0.129914  0  4.020564  0
O  O37  1  0.25001978  0.39300798  0.40918898  1  -1.238208  0  -0.22418  -0.578603  0  2.352233  0
O  O38  1  0.27184793  0.51381015  0.60577177  1  -1.240413  0  -0.225858  -0.582794  0  2.353012  0
O  O39  1  0.26860687  0.59016998  0.48615461  1  -1.247957  0  -0.233087  -0.599419  0  2.388318  0
O  O40  1  0.72823136  0.39410889  0.48608758  1  -1.238617  0  -0.226011  -0.583271  0  2.352601  0
O  O41  1  0.73139811  0.51378349  0.40978262  1  -1.246353  0  -0.23325  -0.599624  0  2.388234  0
O  O42  1  0.75004696  0.59074283  0.60693669  1  -1.23874  0  -0.223977  -0.578528  0  2.352047  0
F  F43  1  0.21043431  0.23649858  0.49662581  1  -0.624175  0  -0.09251  -0.126253  0  1.317103  0
F  F44  1  0.75981020  0.24341014  0.24210151  1  -0.623704  0  -0.09212  -0.125489  0  1.32044  0
F  F45  1  0.24038264  0.75780458  0.75646223  1  -0.624354  0  -0.09202  -0.125179  0  1.320771  0
F  F46  1  0.78930762  0.50323517  0.76337958  1  -0.621917  0  -0.092546  -0.126302  0  1.317481  0
F  F47  1  0.76702789  0.50091726  0.23831843  1  -0.621128  0  -0.087744  -0.120011  0  1.342833  0
F  F48  1  0.23299690  0.76161490  0.49900611  1  -0.620891  0  -0.087828  -0.120125  0  1.343113  0
