# generated using pymatgen
data_CdH16C16(NO)4
_symmetry_space_group_name_H-M   'P 1'
_cell_length_a   7.99674426
_cell_length_b   8.57578314
_cell_length_c   12.07201178
_cell_angle_alpha   90.00019988
_cell_angle_beta   90.00001197
_cell_angle_gamma   94.62637676
_symmetry_Int_Tables_number   1
_chemical_formula_structural   CdH16C16(NO)4
_chemical_formula_sum   'Cd2 H32 C32 N8 O8'
_cell_volume   825.18123352
_cell_formula_units_Z   2
loop_
 _symmetry_equiv_pos_site_id
 _symmetry_equiv_pos_as_xyz
  1  'x, y, z'
loop_
 _atom_site_type_symbol
 _atom_site_label
 _atom_site_symmetry_multiplicity
 _atom_site_fract_x
 _atom_site_fract_y
 _atom_site_fract_z
 _atom_site_occupancy
 _atom_site_hle17_bader_spin_density
 _atom_site_hle17_ddec_charge
 _atom_site_hle17_ddec_spin_density
 _atom_site_hle17_ddec_sum_bond_order
 _atom_site_hle17_magmom
 _atom_site_hse06_10hf_bader_spin_density
 _atom_site_hse06_10hf_ddec_charge
 _atom_site_hse06_10hf_ddec_spin_density
 _atom_site_hse06_10hf_ddec_sum_bond_order
 _atom_site_hse06_10hf_magmom
 _atom_site_hse06_bader_spin_density
 _atom_site_hse06_ddec_charge
 _atom_site_hse06_ddec_spin_density
 _atom_site_hse06_ddec_sum_bond_order
 _atom_site_hse06_magmom
 _atom_site_pbe_bader_spin_density
 _atom_site_pbe_cm5_charge
 _atom_site_pbe_ddec_charge
 _atom_site_pbe_ddec_spin_density
 _atom_site_pbe_ddec_sum_bond_order
 _atom_site_pbe_magmom
Cd  Cd0  1  0.50000339  0.50000005  0.50000017  1  0  1.014124  0  1.763016  0  0  0.819955  0  2.200413  0  0  0.871095  0  2.157147  0  0  0.769078  0.783957  0  2.229868  0
Cd  Cd1  1  0.49999967  0.99999885  0.00000086  1  0  1.014163  0  1.762975  0  0  0.819961  0  2.200355  0  0  0.871101  0  2.15709  0  0  0.769085  0.783957  0  2.229804  0
H  H2  1  0.29318691  0.61175787  0.20035016  1  0  0.061102  0  0.939242  0  0  0.075494  0  1.007743  0  0  0.075024  0  1.009452  0  0  0.099883  0.07572  0  1.006683  0
H  H3  1  0.70681021  0.88824797  0.70034175  1  0  0.061048  0  0.939187  0  0  0.075436  0  1.00773  0  0  0.074981  0  1.009404  0  0  0.099871  0.07566  0  1.006674  0
H  H4  1  0.70681296  0.38824817  0.79965266  1  0  0.061102  0  0.939257  0  0  0.075517  0  1.007735  0  0  0.075047  0  1.009448  0  0  0.099874  0.075735  0  1.006676  0
H  H5  1  0.29318694  0.11175576  0.29965609  1  0  0.061062  0  0.939238  0  0  0.075463  0  1.007758  0  0  0.075001  0  1.009452  0  0  0.099887  0.075684  0  1.006704  0
H  H6  1  0.27543043  0.72136908  0.32255031  1  0  0.071148  0  0.916248  0  0  0.092355  0  0.973133  0  0  0.091853  0  0.974607  0  0  0.109465  0.092655  0  0.972181  0
H  H7  1  0.72456904  0.77863500  0.82254246  1  0  0.071206  0  0.916149  0  0  0.09243  0  0.973024  0  0  0.091926  0  0.974499  0  0  0.109487  0.092728  0  0.972072  0
H  H8  1  0.72457295  0.27863458  0.67745500  1  0  0.071197  0  0.91623  0  0  0.092395  0  0.973118  0  0  0.091895  0  0.974592  0  0  0.109463  0.092693  0  0.972164  0
H  H9  1  0.27542537  0.22136642  0.17745622  1  0  0.071199  0  0.916203  0  0  0.092405  0  0.973094  0  0  0.091903  0  0.974571  0  0  0.109469  0.092703  0  0.972141  0
H  H10  1  0.00738173  0.48874505  0.20512715  1  0  0.10362  0  0.963156  0  0  0.112459  0  1.026721  0  0  0.115338  0  1.026935  0  0  0.102484  0.110371  0  1.026759  0
H  H11  1  0.99262071  0.01125956  0.70512198  1  0  0.103559  0  0.963211  0  0  0.112417  0  1.026757  0  0  0.115294  0  1.026973  0  0  0.102474  0.110326  0  1.026799  0
H  H12  1  0.99261962  0.51126332  0.79487815  1  0  0.103577  0  0.963225  0  0  0.112422  0  1.026785  0  0  0.1153  0  1.027  0  0  0.102508  0.110347  0  1.026804  0
H  H13  1  0.00737800  0.98873479  0.29487918  1  0  0.103556  0  0.963207  0  0  0.112404  0  1.02677  0  0  0.115282  0  1.026985  0  0  0.102474  0.110328  0  1.026793  0
H  H14  1  0.80348928  0.29015511  0.29438134  1  0  0.112097  0  0.953466  0  0  0.120149  0  1.015928  0  0  0.123809  0  1.012032  0  0  0.111222  0.117378  0  1.018899  0
H  H15  1  0.19650995  0.20985466  0.79437906  1  0  0.112079  0  0.953493  0  0  0.12006  0  1.016038  0  0  0.123719  0  1.012145  0  0  0.111197  0.11729  0  1.019002  0
H  H16  1  0.19651445  0.70985206  0.70562148  1  0  0.112023  0  0.95353  0  0  0.120048  0  1.016033  0  0  0.123708  0  1.012139  0  0  0.111183  0.117282  0  1.018998  0
H  H17  1  0.80349126  0.79013966  0.20561797  1  0  0.112093  0  0.95345  0  0  0.120061  0  1.015989  0  0  0.123721  0  1.012096  0  0  0.111188  0.117293  0  1.018953  0
H  H18  1  0.87992733  0.17114061  0.47488300  1  0  0.101314  0  0.953499  0  0  0.111587  0  1.013006  0  0  0.114153  0  1.012969  0  0  0.105389  0.109707  0  1.013213  0
H  H19  1  0.12006760  0.32886308  0.97488350  1  0  0.101295  0  0.953502  0  0  0.111536  0  1.013041  0  0  0.114097  0  1.013006  0  0  0.105365  0.109652  0  1.01325  0
H  H20  1  0.12007513  0.82885369  0.52511650  1  0  0.101328  0  0.953489  0  0  0.111588  0  1.013011  0  0  0.114156  0  1.01297  0  0  0.105362  0.10971  0  1.013215  0
H  H21  1  0.87993872  0.67113235  0.02511435  1  0  0.101344  0  0.953437  0  0  0.111583  0  1.012989  0  0  0.11414  0  1.012954  0  0  0.105404  0.109702  0  1.013201  0
H  H22  1  0.15726305  0.26174580  0.56218004  1  0  0.078579  0  0.94949  0  0  0.085742  0  1.014921  0  0  0.088269  0  1.013054  0  0  0.112468  0.083844  0  1.016337  0
H  H23  1  0.84272928  0.23825822  0.06217971  1  0  0.078611  0  0.949439  0  0  0.085809  0  1.014842  0  0  0.088337  0  1.012972  0  0  0.112454  0.083911  0  1.016255  0
H  H24  1  0.84273862  0.73825319  0.43781947  1  0  0.078603  0  0.94945  0  0  0.085763  0  1.014885  0  0  0.088288  0  1.01302  0  0  0.112481  0.083867  0  1.016296  0
H  H25  1  0.15727727  0.76173955  0.93781897  1  0  0.078597  0  0.949394  0  0  0.085788  0  1.014814  0  0  0.088314  0  1.012949  0  0  0.11244  0.083885  0  1.01623  0
H  H26  1  0.55139991  0.70040330  0.31923353  1  0  0.293497  0  0.959867  0  0  0.277702  0  1.024756  0  0  0.285405  0  1.018698  0  0  0.27977  0.27216  0  1.029169  0
H  H27  1  0.44859843  0.79960195  0.81922902  1  0  0.293488  0  0.959897  0  0  0.277704  0  1.024778  0  0  0.285409  0  1.01872  0  0  0.279764  0.272163  0  1.029183  0
H  H28  1  0.44860223  0.29960038  0.68076846  1  0  0.293531  0  0.959853  0  0  0.277751  0  1.024728  0  0  0.285455  0  1.018667  0  0  0.279782  0.272209  0  1.029135  0
H  H29  1  0.55139770  0.20040414  0.18077131  1  0  0.293477  0  0.959923  0  0  0.277692  0  1.024798  0  0  0.285395  0  1.01874  0  0  0.279768  0.272152  0  1.029207  0
H  H30  1  0.54209935  0.51887451  0.26771745  1  0  0.298765  0  0.938622  0  0  0.286969  0  0.994925  0  0  0.293857  0  0.99024  0  0  0.283145  0.282032  0  0.998315  0
H  H31  1  0.45789907  0.98113165  0.76771836  1  0  0.298783  0  0.938546  0  0  0.28703  0  0.994811  0  0  0.293913  0  0.990119  0  0  0.283182  0.282088  0  0.998207  0
H  H32  1  0.45790064  0.48113270  0.73228123  1  0  0.298729  0  0.938587  0  0  0.286923  0  0.994928  0  0  0.293804  0  0.990248  0  0  0.283131  0.281984  0  0.99833  0
H  H33  1  0.54209944  0.01887324  0.23228197  1  0  0.298756  0  0.938608  0  0  0.286964  0  0.994912  0  0  0.29385  0  0.990226  0  0  0.283155  0.282021  0  0.998312  0
C  C34  1  0.31033056  0.60783962  0.29080318  1  0  0.02073  0  3.670099  0  0  -0.04275  0  3.930085  0  0  -0.038366  0  3.941207  0  0  -0.065275  -0.045675  0  3.922344  0
C  C35  1  0.68966913  0.89216665  0.79079727  1  0  0.020744  0  3.669973  0  0  -0.042761  0  3.930063  0  0  -0.038374  0  3.941194  0  0  -0.065293  -0.045684  0  3.922324  0
C  C36  1  0.68967556  0.39216636  0.70919964  1  0  0.020661  0  3.670098  0  0  -0.042812  0  3.930129  0  0  -0.038434  0  3.94126  0  0  -0.065254  -0.045722  0  3.922374  0
C  C37  1  0.31032653  0.10783476  0.20920141  1  0  0.02072  0  3.670086  0  0  -0.042806  0  3.930218  0  0  -0.038429  0  3.941353  0  0  -0.06529  -0.045722  0  3.922473  0
C  C38  1  0.18696097  0.48187616  0.33867325  1  0  0.225648  0  3.724026  0  0  0.227542  0  3.968974  0  0  0.235232  0  3.990246  0  0  0.119131  0.222509  0  3.954455  0
C  C39  1  0.81303557  0.01813152  0.83866642  1  0  0.225599  0  3.723997  0  0  0.227452  0  3.968994  0  0  0.23514  0  3.990267  0  0  0.119113  0.222411  0  3.954481  0
C  C40  1  0.81304164  0.51813219  0.66132874  1  0  0.225523  0  3.724076  0  0  0.2274  0  3.96907  0  0  0.235089  0  3.990345  0  0  0.119081  0.222354  0  3.954564  0
C  C41  1  0.18696337  0.98186517  0.16133226  1  0  0.22557  0  3.723985  0  0  0.227403  0  3.969013  0  0  0.235096  0  3.990287  0  0  0.119126  0.222359  0  3.954506  0
C  C42  1  0.03641864  0.43587646  0.28429699  1  0  -0.178963  0  3.724983  0  0  -0.194321  0  3.971127  0  0  -0.203105  0  3.993157  0  0  -0.088446  -0.188665  0  3.956373  0
C  C43  1  0.96358250  0.06412738  0.78429278  1  0  -0.178803  0  3.725043  0  0  -0.194155  0  3.97116  0  0  -0.202939  0  3.993194  0  0  -0.088357  -0.188496  0  3.956411  0
C  C44  1  0.96358498  0.56412954  0.71570417  1  0  -0.178878  0  3.724858  0  0  -0.194231  0  3.971  0  0  -0.203017  0  3.993036  0  0  -0.088487  -0.188581  0  3.956237  0
C  C45  1  0.03641746  0.93586695  0.21570507  1  0  -0.178838  0  3.724829  0  0  -0.194198  0  3.970958  0  0  -0.202983  0  3.992993  0  0  -0.08843  -0.188552  0  3.956201  0
C  C46  1  0.92352650  0.32438692  0.33331110  1  0  0.012486  0  3.705727  0  0  -0.008987  0  3.959927  0  0  -0.004144  0  3.97644  0  0  -0.063794  -0.011859  0  3.948692  0
C  C47  1  0.07647230  0.17561836  0.83330707  1  0  0.012477  0  3.705724  0  0  -0.008952  0  3.959938  0  0  -0.004111  0  3.976454  0  0  -0.063814  -0.011828  0  3.948705  0
C  C48  1  0.07647724  0.67562025  0.66668923  1  0  0.012675  0  3.705648  0  0  -0.008777  0  3.959842  0  0  -0.003936  0  3.976362  0  0  -0.063668  -0.011655  0  3.948618  0
C  C49  1  0.92352742  0.82437363  0.16668830  1  0  0.012501  0  3.705711  0  0  -0.008879  0  3.959893  0  0  -0.004037  0  3.976405  0  0  -0.063759  -0.011757  0  3.948672  0
C  C50  1  0.96519643  0.25905859  0.43466778  1  0  -0.127066  0  3.746554  0  0  -0.142261  0  4.003507  0  0  -0.149422  0  4.024926  0  0  -0.08927  -0.137747  0  3.989187  0
C  C51  1  0.03479745  0.24094725  0.93466556  1  0  -0.127068  0  3.746466  0  0  -0.142227  0  4.003421  0  0  -0.149382  0  4.024836  0  0  -0.08927  -0.137711  0  3.989099  0
C  C52  1  0.03480649  0.74094039  0.56533255  1  0  -0.127148  0  3.746659  0  0  -0.142324  0  4.003592  0  0  -0.149486  0  4.025015  0  0  -0.089283  -0.137815  0  3.989278  0
C  C53  1  0.96520512  0.75904823  0.06533229  1  0  -0.127105  0  3.746569  0  0  -0.142277  0  4.003518  0  0  -0.149424  0  4.024924  0  0  -0.089304  -0.13777  0  3.989204  0
C  C54  1  0.11718854  0.31001874  0.48365218  1  0  0.120156  0  3.734268  0  0  0.090712  0  3.989629  0  0  0.097281  0  4.008787  0  0  0.04188  0.086539  0  3.976598  0
C  C55  1  0.88280651  0.18998616  0.98365158  1  0  0.120156  0  3.734138  0  0  0.090673  0  3.989488  0  0  0.097242  0  4.008645  0  0  0.04192  0.086506  0  3.976452  0
C  C56  1  0.88281426  0.68997907  0.51634899  1  0  0.120151  0  3.734277  0  0  0.090726  0  3.989624  0  0  0.097293  0  4.008785  0  0  0.041889  0.086557  0  3.976587  0
C  C57  1  0.11719653  0.81001400  0.01634875  1  0  0.120211  0  3.734015  0  0  0.090726  0  3.989368  0  0  0.097293  0  4.008526  0  0  0.041974  0.086566  0  3.976325  0
C  C58  1  0.52772621  0.11361605  0.46897834  1  0  0.166331  0  3.928363  0  0  0.144168  0  4.214811  0  0  0.156979  0  4.228083  0  0  0.076574  0.135525  0  4.205431  0
C  C59  1  0.47226516  0.38637711  0.96897737  1  0  0.166152  0  3.928833  0  0  0.144005  0  4.215209  0  0  0.156813  0  4.228483  0  0  0.076498  0.135357  0  4.205831  0
C  C60  1  0.47226683  0.88638422  0.53102199  1  0  0.166112  0  3.92842  0  0  0.144015  0  4.214768  0  0  0.156823  0  4.228044  0  0  0.07651  0.135372  0  4.205392  0
C  C61  1  0.52772683  0.61361263  0.03101883  1  0  0.166232  0  3.928809  0  0  0.144091  0  4.215184  0  0  0.156899  0  4.228459  0  0  0.076605  0.13545  0  4.205797  0
C  C62  1  0.56224970  0.95428350  0.43235170  1  0  0.152393  0  3.918813  0  0  0.132307  0  4.203784  0  0  0.143453  0  4.216773  0  0  0.077333  0.124859  0  4.19457  0
C  C63  1  0.43774007  0.54571069  0.93234738  1  0  0.152404  0  3.918771  0  0  0.132332  0  4.203702  0  0  0.143481  0  4.216688  0  0  0.077387  0.124892  0  4.194474  0
C  C64  1  0.43773959  0.04571681  0.56764781  1  0  0.152431  0  3.918691  0  0  0.132353  0  4.203654  0  0  0.143497  0  4.216641  0  0  0.077362  0.124906  0  4.194432  0
C  C65  1  0.56225318  0.45427904  0.06764964  1  0  0.152389  0  3.918783  0  0  0.132326  0  4.203732  0  0  0.143475  0  4.216717  0  0  0.077321  0.124879  0  4.194514  0
N  N66  1  0.22424231  0.41996611  0.43697327  1  0  -0.365251  0  3.237574  0  0  -0.293518  0  3.493724  0  0  -0.313202  0  3.513041  0  0  -0.329053  -0.280217  0  3.480444  0
N  N67  1  0.77575770  0.08003849  0.93696991  1  0  -0.365278  0  3.237537  0  0  -0.2935  0  3.493672  0  0  -0.313186  0  3.512991  0  0  -0.329063  -0.280198  0  3.480388  0
N  N68  1  0.77576073  0.58003404  0.56302955  1  0  -0.36524  0  3.237659  0  0  -0.29353  0  3.493832  0  0  -0.313212  0  3.513147  0  0  -0.329088  -0.280229  0  3.480554  0
N  N69  1  0.22424545  0.91996283  0.06303126  1  0  -0.365296  0  3.237536  0  0  -0.293493  0  3.493662  0  0  -0.313178  0  3.512982  0  0  -0.329092  -0.28019  0  3.480373  0
N  N70  1  0.48543697  0.59164287  0.32160914  1  0  -0.636537  0  3.108304  0  0  -0.573659  0  3.352127  0  0  -0.594677  0  3.349418  0  0  -0.639089  -0.558951  0  3.353831  0
N  N71  1  0.51456375  0.90836119  0.82160656  1  0  -0.636568  0  3.108271  0  0  -0.573755  0  3.352144  0  0  -0.59477  0  3.349432  0  0  -0.639135  -0.559041  0  3.353844  0
N  N72  1  0.51456653  0.40836196  0.67839037  1  0  -0.636507  0  3.108253  0  0  -0.573663  0  3.352151  0  0  -0.594673  0  3.349444  0  0  -0.639095  -0.55896  0  3.353854  0
N  N73  1  0.48543464  0.09164253  0.17839212  1  0  -0.636514  0  3.108398  0  0  -0.573641  0  3.35225  0  0  -0.594655  0  3.349544  0  0  -0.639115  -0.558932  0  3.353958  0
O  O74  1  0.56391724  0.24786036  0.42919227  1  0  -0.509588  0  2.103031  0  0  -0.453774  0  2.35476  0  0  -0.476177  0  2.350876  0  0  -0.317268  -0.437916  0  2.356896  0
O  O75  1  0.43608526  0.25214418  0.92918764  1  0  -0.509449  0  2.103451  0  0  -0.453638  0  2.355111  0  0  -0.476037  0  2.351229  0  0  -0.317205  -0.437782  0  2.357245  0
O  O76  1  0.43608092  0.75214102  0.57080972  1  0  -0.509469  0  2.103027  0  0  -0.453699  0  2.354717  0  0  -0.476103  0  2.350836  0  0  -0.317247  -0.437843  0  2.356856  0
O  O77  1  0.56391469  0.74785015  0.07080607  1  0  -0.509595  0  2.103438  0  0  -0.453762  0  2.355102  0  0  -0.476163  0  2.351218  0  0  -0.317344  -0.43791  0  2.357236  0
O  O78  1  0.63671356  0.90181549  0.34963883  1  0  -0.507527  0  2.064988  0  0  -0.457864  0  2.280446  0  0  -0.477081  0  2.277359  0  0  -0.311061  -0.444206  0  2.282106  0
O  O79  1  0.36327524  0.59818182  0.84963712  1  0  -0.507472  0  2.064955  0  0  -0.457884  0  2.28047  0  0  -0.477084  0  2.277334  0  0  -0.31111  -0.444232  0  2.282125  0
O  O80  1  0.36328460  0.09818589  0.65036233  1  0  -0.507485  0  2.064997  0  0  -0.457867  0  2.280461  0  0  -0.477085  0  2.277373  0  0  -0.311064  -0.444211  0  2.282116  0
O  O81  1  0.63671085  0.40181150  0.15036073  1  0  -0.507459  0  2.065092  0  0  -0.457831  0  2.280581  0  0  -0.477052  0  2.277493  0  0  -0.311034  -0.44418  0  2.282241  0
