# generated using pymatgen
data_ZnH10C24(NO3)2
_symmetry_space_group_name_H-M   'P 1'
_cell_length_a   14.84417260
_cell_length_b   16.20057908
_cell_length_c   23.74598114
_cell_angle_alpha   90.06070077
_cell_angle_beta   90.02226352
_cell_angle_gamma   89.62680460
_symmetry_Int_Tables_number   1
_chemical_formula_structural   ZnH10C24(NO3)2
_chemical_formula_sum   'Zn2 H20 C48 N4 O12'
_cell_volume   5710.40833210
_cell_formula_units_Z   2
loop_
 _symmetry_equiv_pos_site_id
 _symmetry_equiv_pos_as_xyz
  1  'x, y, z'
loop_
 _atom_site_type_symbol
 _atom_site_label
 _atom_site_symmetry_multiplicity
 _atom_site_fract_x
 _atom_site_fract_y
 _atom_site_fract_z
 _atom_site_occupancy
 _atom_site_pbe_bader_charge
 _atom_site_pbe_bader_spin_density
 _atom_site_pbe_cm5_charge
 _atom_site_pbe_ddec_charge
 _atom_site_pbe_ddec_spin_density
 _atom_site_pbe_ddec_sum_bond_order
 _atom_site_pbe_magmom
Zn  Zn0  1  0.40591352  0.50050384  0.49997941  1  1.307036  0  0.678892  0.88718  0  2.425427  0
Zn  Zn1  1  0.59408485  0.49949523  0.50001986  1  1.288828  0  0.678901  0.887148  0  2.425367  0
H  H2  1  0.42978605  0.69788714  0.05352317  1  0.140309  0  0.119327  0.124961  0  0.974914  0
H  H3  1  0.57023030  0.30217114  0.94648076  1  0.141309  0  0.119421  0.125195  0  0.974927  0
H  H4  1  0.42979731  0.69791123  0.94678190  1  0.141389  0  0.119278  0.124905  0  0.974753  0
H  H5  1  0.57022983  0.30214330  0.05322202  1  0.141525  0  0.119303  0.12487  0  0.974747  0
H  H6  1  0.35569124  0.49983509  0.67898662  1  0.096916  0  0.105465  0.10852  0  1.000214  0
H  H7  1  0.35572529  0.49986293  0.32096344  1  0.09613  0  0.105395  0.108404  0  1.000389  0
H  H8  1  0.64427839  0.50015897  0.67903879  1  0.096259  0  0.1053  0.108361  0  1.000386  0
H  H9  1  0.64430977  0.50017879  0.32101771  1  0.096803  0  0.105465  0.108458  0  1.000239  0
H  H10  1  0.64481219  0.50011004  0.78498141  1  0.069926  0  0.108284  0.114755  0  0.982048  0
H  H11  1  0.64476726  0.50013272  0.21507685  1  0.070143  0  0.108253  0.114719  0  0.982054  0
H  H12  1  0.35525957  0.92364424  0.49479905  1  0.085878  0  0.109941  0.113386  0  0.983637  0
H  H13  1  0.64473610  0.07635545  0.50520233  1  0.085957  0  0.109921  0.113311  0  0.98359  0
H  H14  1  0.35498080  0.07770990  0.49483340  1  0.075901  0  0.109758  0.113272  0  0.983573  0
H  H15  1  0.64501555  0.92228980  0.50516757  1  0.075969  0  0.10976  0.113263  0  0.983527  0
H  H16  1  0.91561696  0.55928044  0.58172502  1  0.091344  0  0.132621  0.13733  0  0.955034  0
H  H17  1  0.08438005  0.44072233  0.41827299  1  0.091194  0  0.132612  0.137272  0  0.955095  0
H  H18  1  0.91608719  0.44081201  0.41835367  1  0.095857  0  0.132695  0.137271  0  0.954806  0
H  H19  1  0.08390847  0.55918953  0.58164518  1  0.095885  0  0.132707  0.137285  0  0.95482  0
H  H20  1  0.35523365  0.49990832  0.78492707  1  0.070006  0  0.108301  0.114779  0  0.982097  0
H  H21  1  0.35519005  0.49993716  0.21501998  1  0.069948  0  0.108391  0.114897  0  0.981972  0
C  C22  1  0.49995102  0.66121517  0.50005014  1  1.720735  0  0.21501  0.666448  0  4.243332  0
C  C23  1  0.50004869  0.33878513  0.49994534  1  1.720852  0  0.215051  0.666576  0  4.24323  0
C  C24  1  0.41824551  0.49978823  0.76137216  1  0.002945  0  -0.084495  -0.15327  0  3.983234  0
C  C25  1  0.41821263  0.49973941  0.23859725  1  0.000893  0  -0.084705  -0.153377  0  3.982152  0
C  C26  1  0.41843805  0.49991984  0.70275808  1  -0.06746  0  -0.078582  -0.07341  0  3.970026  0
C  C27  1  0.41845789  0.49982375  0.29720933  1  -0.062984  0  -0.078492  -0.072868  0  3.970079  0
C  C28  1  0.49998271  0.50010037  0.67308415  1  0.117101  0  -0.012673  -0.027305  0  3.948828  0
C  C29  1  0.50001759  0.49992338  0.32691682  1  0.11761  0  -0.012495  -0.027295  0  3.948598  0
C  C30  1  0.58153970  0.50020434  0.70279164  1  -0.062601  0  -0.078313  -0.07298  0  3.970066  0
C  C31  1  0.58156492  0.50011008  0.29724500  1  -0.067797  0  -0.078591  -0.073254  0  3.969853  0
C  C32  1  0.58178828  0.50030286  0.76140499  1  0.000642  0  -0.084729  -0.153624  0  3.983001  0
C  C33  1  0.58175608  0.50025404  0.23863218  1  0.00301  0  -0.084571  -0.152787  0  3.981875  0
C  C34  1  0.50001988  0.50006299  0.79027327  1  0.333293  0  0.089458  0.194424  0  4.013679  0
C  C35  1  0.49998437  0.49998792  0.20972982  1  0.332975  0  0.089371  0.19852  0  4.015314  0
C  C36  1  0.41812190  0.04319019  0.49708623  1  0.045444  0  -0.078283  -0.11943  0  3.960606  0
C  C37  1  0.58187378  0.95680889  0.50291516  1  0.045361  0  -0.078285  -0.119397  0  3.960641  0
C  C38  1  0.41827457  0.95760434  0.49707792  1  -0.111376  0  -0.077824  -0.118352  0  3.959056  0
C  C39  1  0.58172313  0.04239412  0.50292304  1  -0.111856  0  -0.077786  -0.118254  0  3.958941  0
C  C40  1  0.49986293  0.08708358  0.50000869  1  0.134018  0  0.003828  0.134545  0  4.108173  0
C  C41  1  0.50013409  0.91291488  0.49999100  1  0.13363  0  0.003838  0.134504  0  4.10829  0
C  C42  1  0.49981011  0.17440759  0.49998699  1  -0.590075  0  -0.035356  -0.06041  0  4.113498  0
C  C43  1  0.50018691  0.82559210  0.50001061  1  -0.589973  0  -0.035377  -0.060401  0  4.113677  0
C  C44  1  0.49997740  0.75036853  0.50004791  1  0.210857  0  -0.046569  -0.177229  0  3.968376  0
C  C45  1  0.50002029  0.24962992  0.49995095  1  0.210931  0  -0.046566  -0.17721  0  3.968131  0
C  C46  1  0.49998140  0.50010971  0.60987555  1  1.507541  0  0.217256  0.597591  0  4.165965  0
C  C47  1  0.50001962  0.49989923  0.39012499  1  1.507832  0  0.217146  0.597451  0  4.16641  0
C  C48  1  0.04661884  0.53353051  0.54628069  1  -0.040749  0  -0.050088  -0.086393  0  3.916378  0
C  C49  1  0.95337884  0.46647227  0.45371732  1  -0.040847  0  -0.050129  -0.086544  0  3.916369  0
C  C50  1  0.04689427  0.46643916  0.45366674  1  0.131752  0  -0.050854  -0.087998  0  3.917075  0
C  C51  1  0.95310273  0.53356424  0.54633127  1  0.131522  0  -0.051005  -0.088295  0  3.917055  0
C  C52  1  0.09330739  0.49998537  0.49994447  1  0.070849  0  0.027495  0.06387  0  4.079586  0
C  C53  1  0.90669096  0.50001555  0.50005396  1  0.070838  0  0.027604  0.064126  0  4.079251  0
C  C54  1  0.18905854  0.50019871  0.49987327  1  0.855294  0  0.245924  0.286174  0  3.91305  0
C  C55  1  0.81093579  0.49979913  0.50012390  1  0.855573  0  0.24587  0.286119  0  3.912797  0
C  C56  1  0.52616965  0.42602824  0.12170858  1  1.339745  0  0.243005  0.436209  0  4.101912  0
C  C57  1  0.47385347  0.57402075  0.87829282  1  1.335702  0  0.242856  0.431417  0  4.101905  0
C  C58  1  0.47380191  0.57399656  0.12181389  1  1.330789  0  0.243291  0.435779  0  4.10173  0
C  C59  1  0.52621042  0.42605432  0.87818625  1  1.330816  0  0.243594  0.431878  0  4.100372  0
C  C60  1  0.47417638  0.57256411  0.05932209  1  -0.014184  0  -0.003488  -0.056236  0  3.983329  0
C  C61  1  0.52584063  0.42749663  0.94068015  1  -0.015541  0  -0.003719  -0.056936  0  3.984572  0
C  C62  1  0.50000545  0.50002400  0.03001854  1  0.002382  0  0.004073  0.028642  0  4.005788  0
C  C63  1  0.50001698  0.50003056  0.96998666  1  -0.159545  0  0.004148  0.028864  0  4.006035  0
C  C64  1  0.52582677  0.42747136  0.05921457  1  -0.01818  0  -0.003518  -0.057006  0  3.984155  0
C  C65  1  0.47419565  0.57258381  0.94078599  1  -0.017565  0  -0.003439  -0.057419  0  3.985492  0
C  C66  1  0.44924399  0.64303098  0.02968886  1  0.082034  0  -0.061296  -0.068825  0  3.929824  0
C  C67  1  0.55078179  0.35702912  0.97031381  1  0.081634  0  -0.0615  -0.069262  0  3.930109  0
C  C68  1  0.44924706  0.64303838  0.97052449  1  -0.080166  0  -0.06151  -0.068632  0  3.92989  0
C  C69  1  0.55078009  0.35701554  0.02947902  1  -0.078673  0  -0.061604  -0.068717  0  3.930448  0
N  N70  1  0.49998185  0.50000382  0.14889425  1  -1.191996  0  -0.229253  -0.226109  0  3.582279  0
N  N71  1  0.50003453  0.50004642  0.85110673  1  -1.192191  0  -0.229432  -0.210354  0  3.563153  0
N  N72  1  0.73280235  0.49940605  0.50011983  1  -1.093991  0  -0.254661  -0.255108  0  3.086899  0
N  N73  1  0.26719871  0.50059178  0.49987608  1  -1.093725  0  -0.254727  -0.255181  0  3.086957  0
O  O74  1  0.42304519  0.62664467  0.50002098  1  -1.140451  0  -0.318692  -0.549584  0  2.251129  0
O  O75  1  0.57695317  0.37335440  0.49997071  1  -1.1405  0  -0.318764  -0.549685  0  2.251212  0
O  O76  1  0.42308445  0.37414723  0.49991610  1  -1.142957  0  -0.319315  -0.550609  0  2.252101  0
O  O77  1  0.57691323  0.62585369  0.50008191  1  -1.142922  0  -0.31937  -0.550585  0  2.252089  0
O  O78  1  0.42345317  0.50040844  0.58553930  1  -1.163387  0  -0.319871  -0.555315  0  2.317912  0
O  O79  1  0.57654651  0.49960050  0.41445998  1  -1.16351  0  -0.31985  -0.555247  0  2.31812  0
O  O80  1  0.42348691  0.50018718  0.41441214  1  -1.161109  0  -0.319607  -0.554857  0  2.317597  0
O  O81  1  0.57651414  0.49981373  0.58558840  1  -1.161117  0  -0.319637  -0.554885  0  2.317391  0
O  O82  1  0.54753245  0.36458088  0.14899453  1  -1.095895  0  -0.274991  -0.4306  0  2.064035  0
O  O83  1  0.45247991  0.63546320  0.85100602  1  -1.092401  0  -0.275003  -0.430958  0  2.065977  0
O  O84  1  0.45243203  0.63543577  0.14917845  1  -1.092043  0  -0.27486  -0.429884  0  2.062717  0
O  O85  1  0.54757088  0.36461452  0.85081915  1  -1.091355  0  -0.274934  -0.4306  0  2.064746  0
