# generated using pymatgen
data_ZnH9C24I5NO4
_symmetry_space_group_name_H-M   'P 1'
_cell_length_a   10.46308685
_cell_length_b   11.38191635
_cell_length_c   13.22172258
_cell_angle_alpha   77.27802202
_cell_angle_beta   75.18761262
_cell_angle_gamma   62.01330236
_symmetry_Int_Tables_number   1
_chemical_formula_structural   ZnH9C24I5NO4
_chemical_formula_sum   'Zn2 H18 C48 I10 N2 O8'
_cell_volume   1334.93132785
_cell_formula_units_Z   2
loop_
 _symmetry_equiv_pos_site_id
 _symmetry_equiv_pos_as_xyz
  1  'x, y, z'
loop_
 _atom_site_type_symbol
 _atom_site_label
 _atom_site_symmetry_multiplicity
 _atom_site_fract_x
 _atom_site_fract_y
 _atom_site_fract_z
 _atom_site_occupancy
 _atom_site_pbe_bader_charge
 _atom_site_pbe_bader_spin_density
 _atom_site_pbe_cm5_charge
 _atom_site_pbe_ddec_charge
 _atom_site_pbe_ddec_spin_density
 _atom_site_pbe_ddec_sum_bond_order
 _atom_site_pbe_magmom
Zn  Zn0  1  0.43505913  0.65147409  0.49258646  1  1.318908  0  0.691026  0.909423  0  2.271192  0
Zn  Zn1  1  0.56493280  0.34852593  0.50741553  1  1.318513  0  0.691035  0.909486  0  2.271453  0
H  H2  1  0.61810371  0.02125977  0.28669493  1  0.119677  0  0.090547  0.103245  0  1.082418  0
H  H3  1  0.38190564  0.97875553  0.71330735  1  0.119832  0  0.090568  0.103264  0  1.082385  0
H  H4  1  0.14026808  0.73776591  0.44437158  1  0.1145  0  0.104993  0.119056  0  1.050889  0
H  H5  1  0.85968876  0.26224097  0.55568560  1  0.113413  0  0.104978  0.11919  0  1.050692  0
H  H6  1  0.04750767  0.88050015  0.28672320  1  0.061806  0  0.097117  0.10879  0  1.021487  0
H  H7  1  0.95249781  0.11949845  0.71331480  1  0.0617  0  0.097124  0.108782  0  1.021463  0
H  H8  1  0.52136029  0.69023320  0.17395971  1  0.123457  0  0.081165  0.097704  0  1.097707  0
H  H9  1  0.47859955  0.30981640  0.82604658  1  0.123753  0  0.081108  0.097529  0  1.097797  0
H  H10  1  0.36137353  0.79290848  0.80974594  1  0.063332  0  0.079305  0.074882  0  1.086991  0
H  H11  1  0.19197988  0.71970602  0.94429531  1  0.058698  0  0.087124  0.090553  0  1.026559  0
H  H12  1  0.96770786  0.73504408  0.89794349  1  0.062309  0  0.086036  0.08441  0  1.033429  0
H  H13  1  0.91602326  0.82279163  0.71560052  1  0.068576  0  0.084694  0.081708  0  1.039127  0
H  H14  1  0.08960011  0.89118634  0.57969427  1  0.091482  0  0.100401  0.099841  0  1.0028  0
H  H15  1  0.63862294  0.20709615  0.19024025  1  0.063155  0  0.079261  0.074857  0  1.086947  0
H  H16  1  0.80803078  0.28028458  0.05568397  1  0.058787  0  0.087146  0.090649  0  1.026413  0
H  H17  1  0.03229349  0.26494339  0.10205590  1  0.062308  0  0.086041  0.084433  0  1.033483  0
H  H18  1  0.08398981  0.17720552  0.28439559  1  0.068906  0  0.084697  0.081731  0  1.039086  0
H  H19  1  0.91038666  0.10883519  0.42030450  1  0.091755  0  0.100442  0.099888  0  1.002646  0
C  C20  1  0.53917596  0.48302129  0.68896728  1  1.603186  0  0.216248  0.606222  0  4.148414  0
C  C21  1  0.46079015  0.51701846  0.31102664  1  1.604738  0  0.216328  0.606497  0  4.14866  0
C  C22  1  0.46749257  0.52710006  0.19417919  1  -0.005208  0  -0.017493  -0.02845  0  3.938291  0
C  C23  1  0.53246714  0.47294781  0.80582359  1  -0.004422  0  -0.017195  -0.028297  0  3.938016  0
C  C24  1  0.47066731  0.35858211  0.97595922  1  -0.288318  0  -0.054624  0.013509  0  3.856981  0
C  C25  1  0.52929218  0.64144044  0.02404364  1  -0.288522  0  -0.054562  0.013767  0  3.85692  0
C  C26  1  0.48812880  0.37686657  0.86785557  1  0.080693  0  -0.105363  -0.128736  0  4.021635  0
C  C27  1  0.51183411  0.62317863  0.13215622  1  0.081079  0  -0.10536  -0.129035  0  4.02126  0
C  C28  1  0.56570357  0.54801329  0.85575309  1  -0.196084  0  -0.038848  -0.002243  0  3.808829  0
C  C29  1  0.43430745  0.45199200  0.14425953  1  -0.196307  0  -0.038715  -0.00201  0  3.808454  0
C  C30  1  0.52592390  0.54942605  0.96768761  1  0.008265  0  -0.008441  0.0256  0  3.904766  0
C  C31  1  0.47408249  0.45057237  0.03232602  1  0.040072  0  -0.008394  0.025663  0  3.904483  0
C  C32  1  0.59595316  0.04143913  0.36774721  1  0.000142  0  -0.083552  -0.194019  0  3.921068  0
C  C33  1  0.40404423  0.95856192  0.63225605  1  -0.00014  0  -0.083539  -0.193974  0  3.92081  0
C  C34  1  0.66068151  0.11007224  0.39350531  1  0.397829  0  0.121848  0.237922  0  3.925037  0
C  C35  1  0.33931075  0.88992679  0.60649678  1  0.398491  0  0.121913  0.238009  0  3.92498  0
C  C36  1  0.56526445  0.07828472  0.57240022  1  0.398464  0  0.104041  0.175885  0  3.836666  0
C  C37  1  0.43472581  0.92172025  0.42760128  1  0.398402  0  0.104002  0.175731  0  3.836944  0
C  C38  1  0.49315355  0.00694975  0.55389745  1  0.054044  0  0.003352  0.053749  0  3.955338  0
C  C39  1  0.50684181  0.99305162  0.44610532  1  0.006519  0  0.003336  0.053869  0  3.955128  0
C  C40  1  0.24624946  0.50464894  0.55673519  1  1.57699  0  0.203902  0.588375  0  4.195043  0
C  C41  1  0.75378773  0.49533022  0.44327126  1  1.576295  0  0.203999  0.588717  0  4.194664  0
C  C42  1  0.07561480  0.71493735  0.40645708  1  0.007649  0  -0.095944  -0.112132  0  3.95676  0
C  C43  1  0.92440474  0.28506121  0.59355145  1  0.009547  0  -0.096023  -0.11233  0  3.956421  0
C  C44  1  0.02480186  0.79400508  0.31791609  1  -0.006523  0  -0.102853  -0.103566  0  4.016559  0
C  C45  1  0.97524701  0.20597307  0.68209704  1  -0.007806  0  -0.102869  -0.103689  0  4.015957  0
C  C46  1  0.94928870  0.75941808  0.26300394  1  -0.274976  0  -0.062121  0.013473  0  3.943398  0
C  C47  1  0.05074886  0.24057299  0.73700900  1  -0.27276  0  -0.061869  0.013978  0  3.942749  0
C  C48  1  0.91334245  0.65392071  0.30404427  1  -0.132371  0  -0.060527  -0.041705  0  3.862291  0
C  C49  1  0.08667087  0.34608772  0.69597586  1  -0.133722  0  -0.060621  -0.041829  0  3.862764  0
C  C50  1  0.94682210  0.58101755  0.40586203  1  0.002494  0  -0.010796  0.032298  0  3.963189  0
C  C51  1  0.05318999  0.41896460  0.59416303  1  0.003092  0  -0.01092  0.032286  0  3.963702  0
C  C52  1  0.04310581  0.60389311  0.45229147  1  0.012264  0  -0.003319  0.066886  0  3.945077  0
C  C53  1  0.95691294  0.39608998  0.54773241  1  0.005308  0  -0.003222  0.066797  0  3.945685  0
C  C54  1  0.89753165  0.48353270  0.45903343  1  0.004454  0  -0.013883  -0.107688  0  3.85093  0
C  C55  1  0.10249456  0.51643987  0.54099165  1  -0.001548  0  -0.013834  -0.107893  0  3.851211  0
C  C56  1  0.23723420  0.84691589  0.68561371  1  0.016319  0  -0.015959  0.027154  0  3.981673  0
C  C57  1  0.26327250  0.80017426  0.78927876  1  -0.063404  0  -0.095301  -0.10304  0  3.986056  0
C  C58  1  0.16833119  0.75846408  0.86469160  1  -0.054036  0  -0.106745  -0.092966  0  4.020943  0
C  C59  1  0.04262963  0.76706316  0.83857012  1  -0.011742  0  -0.100487  -0.078775  0  4.01425  0
C  C60  1  0.01390303  0.81612437  0.73616680  1  -0.004412  0  -0.100926  -0.085366  0  4.022905  0
C  C61  1  0.11113920  0.85454885  0.65983980  1  -0.092334  0  -0.085421  -0.091874  0  3.949726  0
C  C62  1  0.76275165  0.15309631  0.31438738  1  0.016649  0  -0.015819  0.0274  0  3.980747  0
C  C63  1  0.73673443  0.19983394  0.21069616  1  -0.063611  0  -0.095319  -0.103154  0  3.985711  0
C  C64  1  0.83167723  0.24154078  0.13529193  1  -0.053958  0  -0.106759  -0.093197  0  4.021538  0
C  C65  1  0.95737194  0.23293394  0.16142172  1  -0.011722  0  -0.100558  -0.078724  0  4.014439  0
C  C66  1  0.98611619  0.18386735  0.26382463  1  -0.004908  0  -0.100881  -0.085397  0  4.02242  0
C  C67  1  0.88885128  0.14547248  0.34015010  1  -0.09254  0  -0.085473  -0.091924  0  3.949332  0
I  I68  1  0.09118942  0.12838918  0.88408216  1  0.133775  0  0.107976  0.00052  0  1.768373  0
I  I69  1  0.90890700  0.87158698  0.11592388  1  0.133692  0  0.108021  0.000696  0  1.768268  0
I  I70  1  0.84719483  0.57778283  0.20542131  1  0.153798  0  0.111397  0.022749  0  1.847813  0
I  I71  1  0.15279129  0.42223619  0.79459766  1  0.153624  0  0.111429  0.022778  0  1.848086  0
I  I72  1  0.28866341  0.37368937  0.23787904  1  0.164061  0  0.122108  0.040321  0  1.790994  0
I  I73  1  0.71136026  0.62628896  0.76212737  1  0.164063  0  0.122123  0.040387  0  1.791196  0
I  I74  1  0.48547818  0.16417161  0.03713409  1  0.109404  0  0.070696  -0.04334  0  1.895723  0
I  I75  1  0.51451395  0.83583410  0.96286550  1  0.10961  0  0.070668  -0.043457  0  1.895934  0
I  I76  1  0.42509991  0.91876104  0.27118605  1  0.197333  0  0.156987  0.041412  0  1.819355  0
I  I77  1  0.57490796  0.08125254  0.72881747  1  0.197159  0  0.156958  0.041384  0  1.819137  0
N  N78  1  0.36542350  0.86364237  0.50365225  1  -1.205121  0  -0.315308  -0.313866  0  3.424938  0
N  N79  1  0.63455954  0.13637209  0.49634969  1  -1.20442  0  -0.315327  -0.313936  0  3.424753  0
O  O80  1  0.49488380  0.59946230  0.63957841  1  -1.159439  0  -0.299264  -0.529877  0  2.422722  0
O  O81  1  0.50513802  0.40057026  0.36041552  1  -1.160973  0  -0.299242  -0.529978  0  2.423054  0
O  O82  1  0.57996056  0.37386384  0.65230624  1  -1.163461  0  -0.314952  -0.558728  0  2.405313  0
O  O83  1  0.42000380  0.62616455  0.34769726  1  -1.163387  0  -0.315033  -0.558958  0  2.405414  0
O  O84  1  0.26062570  0.60946672  0.55704808  1  -1.178034  0  -0.311407  -0.550688  0  2.441113  0
O  O85  1  0.73939627  0.39050588  0.44296780  1  -1.17774  0  -0.311473  -0.550943  0  2.440585  0
O  O86  1  0.34891505  0.38544402  0.55758090  1  -1.155365  0  -0.317761  -0.548711  0  2.379827  0
O  O87  1  0.65112875  0.61451142  0.44240613  1  -1.155064  0  -0.31784  -0.54896  0  2.380123  0
