# generated using pymatgen
data_CuH9C5N(ClO)2
_symmetry_space_group_name_H-M   'P 1'
_cell_length_a   6.64948530
_cell_length_b   9.69767486
_cell_length_c   12.72362688
_cell_angle_alpha   76.88198020
_cell_angle_beta   89.59320037
_cell_angle_gamma   80.68218225
_symmetry_Int_Tables_number   1
_chemical_formula_structural   CuH9C5N(ClO)2
_chemical_formula_sum   'Cu4 H36 C20 N4 Cl8 O8'
_cell_volume   788.14802415
_cell_formula_units_Z   4
loop_
 _symmetry_equiv_pos_site_id
 _symmetry_equiv_pos_as_xyz
  1  'x, y, z'
loop_
 _atom_site_type_symbol
 _atom_site_label
 _atom_site_symmetry_multiplicity
 _atom_site_fract_x
 _atom_site_fract_y
 _atom_site_fract_z
 _atom_site_occupancy
 _atom_site_hle17_ddec_charge
 _atom_site_hle17_ddec_spin_density
 _atom_site_hle17_ddec_sum_bond_order
 _atom_site_hle17_magmom
 _atom_site_hse06_10hf_ddec_charge
 _atom_site_hse06_10hf_ddec_spin_density
 _atom_site_hse06_10hf_ddec_sum_bond_order
 _atom_site_hse06_10hf_magmom
 _atom_site_hse06_ddec_charge
 _atom_site_hse06_ddec_spin_density
 _atom_site_hse06_ddec_sum_bond_order
 _atom_site_hse06_magmom
 _atom_site_pbe_cm5_charge
 _atom_site_pbe_ddec_charge
 _atom_site_pbe_ddec_spin_density
 _atom_site_pbe_ddec_sum_bond_order
 _atom_site_pbe_magmom
Cu  Cu0  1  0.62675375  0.26283611  0.26598851  1  0.848  0.640162  1.841024  0.458  0.851167  0.755689  2.243054  0.591  0.954818  0.840376  2.148973  0.683  0.554754  0.791428  0.684043  2.301455  0.524
Cu  Cu1  1  0.37325152  0.73715453  0.73401141  1  0.847978  0.640179  1.841139  0.458  0.851139  0.755686  2.243197  0.591  0.954786  0.840371  2.149112  0.683  0.554806  0.791415  0.684033  2.301583  0.524
Cu  Cu2  1  0.13612958  0.23648799  0.22308129  1  0.837097  -0.63797  1.847756  -0.456  0.844895  -0.757533  2.252237  -0.593  0.951353  -0.845354  2.155921  -0.689  0.545656  0.781458  -0.684189  2.313567  -0.525
Cu  Cu3  1  0.86386963  0.76349624  0.77692057  1  0.836941  -0.637984  1.848009  -0.456  0.844736  -0.757539  2.252496  -0.593  0.951182  -0.845353  2.156217  -0.689  0.545644  0.781283  -0.684204  2.313888  -0.525
H  H4  1  0.37129565  0.38555938  0.89014472  1  0.09953  -0.001435  0.946893  0.0  0.109908  -0.001329  1.006736  0.0  0.113208  -0.001042  1.004703  0.0  0.110191  0.107534  -0.001454  1.008481  -0.001
H  H5  1  0.62867792  0.61441193  0.10984224  1  0.099462  -0.001445  0.94687  0.0  0.109838  -0.001331  1.006655  0.0  0.113136  -0.001044  1.004694  0.0  0.110138  0.107497  -0.001456  1.00835  -0.001
H  H6  1  0.42635784  0.09241738  0.92263858  1  0.09727  -0.000226  0.952757  0.0  0.112798  -0.000174  1.01433  0.0  0.114084  -0.000122  1.014189  0.0  0.099832  0.111815  -0.000198  1.01455  0.0
H  H7  1  0.57364826  0.90754319  0.07736194  1  0.097407  -0.000226  0.95262  0.0  0.112898  -0.000175  1.014165  0.0  0.11419  -0.000123  1.014002  0.0  0.099841  0.111911  -0.000198  1.014394  0.0
H  H8  1  0.51201124  0.19883944  0.80420051  1  0.081903  0.000364  0.943979  0.0  0.095634  0.000384  1.011213  0.0  0.096465  0.000285  1.011447  0.0  0.091331  0.094947  0.000453  1.011339  0.0
H  H9  1  0.48797214  0.80109546  0.19580544  1  0.081917  0.000366  0.943965  0.0  0.095598  0.000384  1.011233  0.0  0.096429  0.000285  1.01147  0.0  0.091288  0.094907  0.000454  1.011345  0.0
H  H10  1  0.76995780  0.04726075  0.00949396  1  0.078071  0.000103  0.962486  0.0  0.095495  0.000147  1.022021  0.0  0.096967  8.9e-05  1.02155  0.0  0.083921  0.094395  0.000196  1.022428  0.0
H  H11  1  0.23003645  0.95273202  0.99049856  1  0.077995  0.000105  0.962621  0.0  0.095481  0.000147  1.02213  0.0  0.096954  8.9e-05  1.021663  0.0  0.083879  0.094379  0.000196  1.022546  0.0
H  H12  1  0.82480066  0.03536960  0.87480617  1  0.098302  0.001038  0.96668  0.0  0.111865  0.000953  1.030902  0.0  0.112492  0.00074  1.031881  0.0  0.087277  0.111237  0.001085  1.030435  0.0
H  H13  1  0.17522291  0.96461993  0.12519544  1  0.098309  0.00104  0.966575  0.0  0.111954  0.000952  1.030778  0.0  0.112581  0.00074  1.031759  0.0  0.087269  0.111324  0.001084  1.030303  0.0
H  H14  1  0.98012527  0.22985527  0.97038038  1  0.094752  -0.00022  0.939519  0.0  0.106868  -0.000252  1.004434  0.0  0.108535  -0.000172  1.003833  0.0  0.107994  0.105543  -0.0003  1.005141  0.0
H  H15  1  0.01985953  0.77015254  0.02960794  1  0.094648  -0.000225  0.939446  0.0  0.106826  -0.000252  1.00434  0.0  0.108499  -0.000172  1.003739  0.0  0.10797  0.105494  -0.0003  1.005062  0.0
H  H16  1  0.91049959  0.27459579  0.83028662  1  0.070988  6.2e-05  0.95538  0.0  0.086999  9.2e-05  1.017577  0.0  0.087866  7.5e-05  1.017427  0.0  0.104376  0.086486  0.000102  1.017468  0.0
H  H17  1  0.08949224  0.72541422  0.16971150  1  0.070983  5.7e-05  0.955275  0.0  0.087038  9.2e-05  1.017451  0.0  0.0879  7.5e-05  1.017305  0.0  0.104406  0.086522  0.000103  1.017332  0.0
H  H18  1  0.71896568  0.39084634  0.99764080  1  0.304213  0.000268  0.868324  0.0  0.285644  0.000111  0.929904  0.0  0.294109  6.8e-05  0.922841  0.0  0.303692  0.27973  0.000149  0.934883  0.0
H  H19  1  0.28097861  0.60914130  0.00236382  1  0.304468  0.000269  0.868143  0.0  0.285961  0.000111  0.929654  0.0  0.294431  6.8e-05  0.922574  0.0  0.303799  0.280046  0.000149  0.934635  0.0
H  H20  1  0.67644725  0.44530718  0.86224877  1  0.293028  -0.000439  0.895442  0.0  0.271363  -0.000268  0.966957  0.0  0.278816  -0.000199  0.961475  0.0  0.29119  0.266257  -0.000308  0.970729  0.0
H  H21  1  0.32351644  0.55469427  0.13774390  1  0.293184  -0.000438  0.89535  0.0  0.271458  -0.000268  0.966945  0.0  0.278911  -0.000199  0.96146  0.0  0.291282  0.266355  -0.000307  0.970709  0.0
H  H22  1  0.93855602  0.08282970  0.59372379  1  0.08834  -0.001118  0.956936  -0.002  0.091992  -0.000856  1.023816  -0.001  0.09461  -0.000593  1.02166  -0.001  0.102515  0.089952  -0.001022  1.025449  -0.002
H  H23  1  0.06144195  0.91719945  0.40625126  1  0.088484  -0.001121  0.956678  -0.002  0.092123  -0.000856  1.02352  -0.001  0.094743  -0.000593  1.021358  -0.001  0.102503  0.090062  -0.001023  1.025187  -0.002
H  H24  1  0.87747296  0.40360785  0.54456490  1  0.090033  8.7e-05  0.929762  0.0  0.110725  0.000101  0.982307  0.0  0.111431  8e-05  0.982999  0.0  0.098476  0.110183  0.000109  0.982013  0.0
H  H25  1  0.12251025  0.59638722  0.45544218  1  0.09005  8.9e-05  0.929875  0.0  0.110732  0.000101  0.982422  0.0  0.111436  8e-05  0.98312  0.0  0.09847  0.110183  0.000109  0.982128  0.0
H  H26  1  0.82356694  0.28475512  0.66400670  1  0.08985  0.001026  0.944107  0.0  0.1071  0.000946  1.003713  0.0  0.108305  0.00072  1.00355  0.0  0.093152  0.105995  0.001081  1.004428  0.0
H  H27  1  0.17643906  0.71523238  0.33600399  1  0.089847  0.001028  0.944288  0.0  0.107118  0.000946  1.003833  0.0  0.108325  0.00072  1.00367  0.0  0.093161  0.106015  0.001082  1.004541  0.0
H  H28  1  0.14526495  0.43346970  0.66180772  1  0.105473  -1.4e-05  0.944216  0.0  0.118892  -2.1e-05  1.00872  0.0  0.120503  -1.1e-05  1.008633  0.0  0.094651  0.117919  -1.1e-05  1.00855  0.0
H  H29  1  0.85472610  0.56653716  0.33820038  1  0.105282  -8e-06  0.944288  0.0  0.118641  -2.1e-05  1.008903  0.0  0.120255  -1.1e-05  1.008816  0.0  0.094545  0.11766  -1.1e-05  1.008727  0.0
H  H30  1  0.16969268  0.25265908  0.73522945  1  0.0742  0.000128  0.948887  0.0  0.092517  0.000149  1.009776  0.0  0.093248  0.000104  1.010262  0.0  0.089979  0.091993  0.000191  1.009309  0.0
H  H31  1  0.83030866  0.74734884  0.26478000  1  0.074136  0.000131  0.94879  0.0  0.092413  0.000149  1.009738  0.0  0.093159  0.000103  1.010206  0.0  0.089932  0.091887  0.00019  1.009266  0.0
H  H32  1  0.30596153  0.35158328  0.50179638  1  0.090158  -0.000141  0.940566  0.0  0.103529  -6.2e-05  1.004756  0.0  0.105739  -4.6e-05  1.003172  0.0  0.103078  0.101894  -8e-05  1.005907  0.0
H  H33  1  0.69404373  0.64840747  0.49821688  1  0.090258  -0.000139  0.940499  0.0  0.1036  -6.2e-05  1.004755  0.0  0.105809  -4.6e-05  1.003177  0.0  0.103068  0.101965  -8e-05  1.005905  0.0
H  H34  1  0.45739012  0.23957573  0.61396530  1  0.084586  -0.000144  0.932855  0.0  0.099714  -0.000121  0.994368  0.0  0.101151  -0.00011  0.993163  0.0  0.104224  0.09846  -0.000111  0.995658  0.0
H  H35  1  0.54262224  0.76043005  0.38604998  1  0.084598  -0.000144  0.932961  0.0  0.099811  -0.000121  0.994363  0.0  0.10125  -0.000111  0.993164  0.0  0.104256  0.098553  -0.000112  0.995652  0.0
H  H36  1  0.27198571  0.05643300  0.61743180  1  0.293789  -0.000893  0.880237  0.0  0.275506  -0.000736  0.944697  0.0  0.282491  -0.000602  0.939465  0.0  0.293041  0.270441  -0.000791  0.948627  0.0
H  H37  1  0.72805122  0.94357050  0.38257593  1  0.293731  -0.000891  0.880202  0.0  0.275511  -0.000736  0.944665  0.0  0.282493  -0.000602  0.939436  0.0  0.292965  0.270447  -0.000791  0.948597  0.0
H  H38  1  0.28399559  0.12168640  0.48314465  1  0.298679  0.000176  0.873222  0.0  0.282194  -1e-06  0.934427  0.0  0.290027  3.2e-05  0.928036  0.0  0.295849  0.27663  -3.6e-05  0.938949  0.0
H  H39  1  0.71603256  0.87831608  0.51686644  1  0.298583  0.000177  0.873349  0.0  0.282144  -1e-06  0.934588  0.0  0.289974  3.1e-05  0.928208  0.0  0.295868  0.276595  -3.6e-05  0.939095  0.0
C  C40  1  0.42477802  0.27887818  0.05601716  1  0.656433  0.005011  3.789277  0.007  0.613264  0.003027  4.089669  0.005  0.653725  0.002725  4.084644  0.004  0.220909  0.585607  0.003278  4.093466  0.005
C  C41  1  0.57520801  0.72112422  0.94396818  1  0.655994  0.004998  3.789702  0.007  0.612748  0.003027  4.090141  0.005  0.653273  0.002725  4.085128  0.004  0.220891  0.585078  0.003277  4.093959  0.005
C  C42  1  0.48854819  0.30191589  0.93795410  1  0.021537  -0.00453  3.467288  -0.005  0.003066  -0.003462  3.694556  -0.004  0.000212  -0.002385  3.703771  -0.003  0.011562  0.005582  -0.004002  3.687786  -0.005
C  C43  1  0.51144030  0.69807564  0.06201586  1  0.021362  -0.004495  3.467538  -0.005  0.003073  -0.003456  3.694521  -0.004  2.1e-05  -0.002379  3.704057  -0.003  0.011472  0.00557  -0.003994  3.687733  -0.005
C  C44  1  0.53134733  0.16728921  0.89251945  1  -0.133008  0.001714  3.628459  0.002  -0.178072  0.001245  3.885209  0.001  -0.178308  0.000951  3.897019  0.001  -0.159777  -0.177837  0.001425  3.876866  0.002
C  C45  1  0.46865156  0.83268322  0.10748372  1  -0.133087  0.001713  3.628478  0.002  -0.177987  0.001246  3.884935  0.001  -0.178165  0.000951  3.896774  0.001  -0.159578  -0.177748  0.001426  3.876587  0.002
C  C46  1  0.75494396  0.10696304  0.92487537  1  -0.137632  0.000984  3.64568  0.001  -0.177227  0.001099  3.901354  0.001  -0.178961  0.000823  3.913914  0.001  -0.172663  -0.175647  0.001204  3.892372  0.001
C  C47  1  0.24506159  0.89303290  0.07511418  1  -0.137532  0.000968  3.64541  0.001  -0.177364  0.001099  3.901252  0.001  -0.179106  0.000823  3.913806  0.001  -0.172684  -0.175795  0.001203  3.892272  0.001
C  C48  1  0.85599528  0.23985698  0.91173294  1  0.03701  -0.000281  3.485845  0.0  -0.021659  -0.000225  3.73923  0.0  -0.017544  -0.000137  3.747891  0.0  -0.066874  -0.024295  -0.000311  3.733015  0.0
C  C49  1  0.14399894  0.76012932  0.08825679  1  0.037165  -0.000254  3.485255  0.0  -0.021605  -0.000225  3.738831  0.0  -0.017481  -0.000138  3.74746  0.0  -0.066844  -0.024237  -0.000311  3.732604  0.0
C  C50  1  0.92265732  0.21826148  0.43212013  1  0.641177  -0.00591  3.837825  -0.007  0.598744  -0.004472  4.142865  -0.006  0.639017  -0.003968  4.139267  -0.005  0.213785  0.571057  -0.004828  4.145736  -0.006
C  C51  1  0.07739181  0.78176767  0.56787435  1  0.641338  -0.005922  3.837183  -0.007  0.598812  -0.004477  4.142381  -0.006  0.639095  -0.003972  4.138787  -0.005  0.213867  0.571122  -0.004834  4.14527  -0.006
C  C52  1  0.99710688  0.17831120  0.54963595  1  0.018216  0.003131  3.462951  0.004  0.000377  0.001823  3.696301  0.002  -0.002404  0.001386  3.705791  0.002  0.007342  0.003002  0.001952  3.689443  0.002
C  C53  1  0.00293440  0.82170635  0.45038342  1  0.017752  0.003139  3.462849  0.004  4.1e-05  0.001816  3.696248  0.002  -0.002728  0.001381  3.705688  0.002  0.007274  0.002679  0.001948  3.689419  0.002
C  C54  1  0.94096508  0.30594540  0.60446518  1  -0.125817  0.001552  3.583431  0.001  -0.168785  0.001477  3.832653  0.001  -0.168583  0.001074  3.843087  0.001  -0.155139  -0.168927  0.001684  3.825532  0.001
C  C55  1  0.05904851  0.69405497  0.39554555  1  -0.125778  0.001545  3.583444  0.001  -0.168692  0.001478  3.83252  0.001  -0.1685  0.001074  3.84296  0.001  -0.155063  -0.168839  0.001685  3.825396  0.001
C  C56  1  0.14241136  0.32355458  0.65419788  1  -0.141195  0.000257  3.651177  0.0  -0.183768  0.000238  3.914176  0.0  -0.184999  0.000166  3.925887  0.0  -0.166158  -0.182481  0.000287  3.905441  0.0
C  C57  1  0.85760702  0.67645117  0.34581502  1  -0.140816  0.000237  3.650702  0.0  -0.183272  0.000238  3.91361  0.0  -0.184511  0.000166  3.92532  0.0  -0.165979  -0.181978  0.000287  3.904846  0.0
C  C58  1  0.30258171  0.27379800  0.57900962  1  0.037762  -0.000223  3.503741  0.0  -0.022014  -0.000257  3.761063  0.0  -0.017978  -0.000229  3.769104  0.0  -0.064571  -0.024738  -0.000281  3.755449  0.0
C  C59  1  0.69742967  0.72621212  0.42101040  1  0.037433  -0.000225  3.503578  0.0  -0.022298  -0.000258  3.760952  0.0  -0.018275  -0.00023  3.769003  0.0  -0.064609  -0.025014  -0.000282  3.755329  0.0
N  N60  1  0.68822735  0.35806232  0.92798492  1  -0.291918  -0.00076  3.275298  -0.001  -0.224914  -0.000656  3.473669  -0.001  -0.237563  -0.000479  3.479908  -0.001  -0.478968  -0.216207  -0.000755  3.468873  -0.001
N  N61  1  0.31176109  0.64192292  0.07200344  1  -0.292328  -0.000768  3.274954  -0.001  -0.225396  -0.000654  3.473336  -0.001  -0.238003  -0.000478  3.479597  -0.001  -0.479259  -0.216681  -0.000754  3.468544  -0.001
N  N62  1  0.22733394  0.14568160  0.55483928  1  -0.282426  0.000111  3.277008  0.001  -0.21814  -8.5e-05  3.476512  0.001  -0.230427  -0.000139  3.483591  0.0  -0.472548  -0.209606  -2.1e-05  3.471524  0.001
N  N63  1  0.77268823  0.85432736  0.44517383  1  -0.281917  0.000105  3.276329  0.001  -0.217957  -8.5e-05  3.476243  0.001  -0.230241  -0.000139  3.483314  0.0  -0.47252  -0.20944  -2.2e-05  3.471249  0.001
Cl  Cl64  1  0.95410210  0.44305713  0.13359503  1  -0.494345  -0.135919  1.036164  -0.156  -0.508172  -0.083027  1.351636  -0.101  -0.544695  -0.064116  1.325382  -0.081  -0.285408  -0.487616  -0.091467  1.371261  -0.108
Cl  Cl65  1  0.04587707  0.55693601  0.86643913  1  -0.494395  -0.135849  1.036236  -0.156  -0.508193  -0.082985  1.35174  -0.101  -0.544721  -0.064082  1.3255  -0.081  -0.285376  -0.487622  -0.091417  1.37137  -0.108
Cl  Cl66  1  0.35793418  0.05114693  0.32615562  1  -0.537897  -0.083158  1.047518  -0.094  -0.525972  -0.057651  1.344318  -0.068  -0.554876  -0.046603  1.313057  -0.057  -0.274112  -0.509052  -0.061791  1.366905  -0.071
Cl  Cl67  1  0.64210290  0.94883606  0.67383924  1  -0.537853  -0.083201  1.047693  -0.094  -0.525873  -0.05768  1.3444  -0.068  -0.554781  -0.046625  1.313142  -0.057  -0.274113  -0.508944  -0.061817  1.366999  -0.071
Cl  Cl68  1  0.83964642  0.07867665  0.21341463  1  -0.532852  0.096312  1.037748  0.109  -0.520686  0.066023  1.328722  0.079  -0.555392  0.05271  1.300866  0.065  -0.275473  -0.499432  0.07203  1.348138  0.084
Cl  Cl69  1  0.16039549  0.92131814  0.78657969  1  -0.532748  0.096392  1.037794  0.11  -0.520611  0.066068  1.328766  0.079  -0.555318  0.052744  1.300896  0.065  -0.275428  -0.499356  0.072078  1.348186  0.084
Cl  Cl70  1  0.45590267  0.46133388  0.31080372  1  -0.50658  0.119184  0.925273  0.137  -0.504567  0.07845  1.206954  0.095  -0.537742  0.062534  1.182529  0.079  -0.284927  -0.485077  0.084579  1.224534  0.099
Cl  Cl71  1  0.54404742  0.53865461  0.68917401  1  -0.506678  0.119132  0.925262  0.136  -0.504618  0.078416  1.206874  0.095  -0.537799  0.062508  1.182458  0.079  -0.28491  -0.485127  0.084541  1.224459  0.099
O  O72  1  0.52186524  0.33763593  0.11504544  1  -0.634297  0.049491  2.237661  0.064  -0.598972  0.038031  2.533252  0.052  -0.643708  0.031576  2.526881  0.045  -0.330294  -0.570268  0.040791  2.538768  0.054
O  O73  1  0.47809177  0.66238159  0.88493890  1  -0.633901  0.049524  2.23772  0.064  -0.59852  0.038052  2.533312  0.052  -0.64326  0.031592  2.526937  0.045  -0.33023  -0.569808  0.040813  2.538816  0.054
O  O74  1  0.27792960  0.21187664  0.08360557  1  -0.549822  -0.072924  2.09748  -0.095  -0.514378  -0.053286  2.372404  -0.076  -0.559755  -0.041514  2.368278  -0.062  -0.290209  -0.485399  -0.058279  2.375983  -0.08
O  O75  1  0.72202315  0.78818596  0.91637237  1  -0.549584  -0.072934  2.097171  -0.095  -0.514232  -0.053297  2.37219  -0.076  -0.559614  -0.041522  2.368054  -0.062  -0.290234  -0.485233  -0.058289  2.375753  -0.08
O  O76  1  0.04032749  0.27901640  0.36508156  1  -0.601002  -0.056207  2.188101  -0.072  -0.571594  -0.042238  2.479347  -0.058  -0.618215  -0.033593  2.476099  -0.049  -0.319404  -0.541604  -0.046168  2.482874  -0.061
O  O77  1  0.95969996  0.72099576  0.63493174  1  -0.600933  -0.056242  2.186897  -0.072  -0.571487  -0.042253  2.478176  -0.058  -0.61813  -0.033605  2.474936  -0.049  -0.31942  -0.541488  -0.04618  2.481729  -0.061
O  O78  1  0.74744358  0.19009664  0.41391303  1  -0.561656  0.081348  2.105384  0.107  -0.531424  0.056731  2.38535  0.081  -0.578101  0.044903  2.380836  0.068  -0.312257  -0.501455  0.061769  2.389003  0.086
O  O79  1  0.25256671  0.80998417  0.58607954  1  -0.561703  0.081317  2.105385  0.107  -0.531504  0.056719  2.385448  0.081  -0.578118  0.044895  2.380807  0.068  -0.31234  -0.501549  0.061754  2.389119  0.086
