# generated using pymatgen
data_CdH18C15S2N4O3
_symmetry_space_group_name_H-M   'P 1'
_cell_length_a   8.87444790
_cell_length_b   10.98742778
_cell_length_c   11.54728791
_cell_angle_alpha   117.87342499
_cell_angle_beta   104.64447174
_cell_angle_gamma   97.74477224
_symmetry_Int_Tables_number   1
_chemical_formula_structural   CdH18C15S2N4O3
_chemical_formula_sum   'Cd2 H36 C30 S4 N8 O6'
_cell_volume   919.89791708
_cell_formula_units_Z   2
loop_
 _symmetry_equiv_pos_site_id
 _symmetry_equiv_pos_as_xyz
  1  'x, y, z'
loop_
 _atom_site_type_symbol
 _atom_site_label
 _atom_site_symmetry_multiplicity
 _atom_site_fract_x
 _atom_site_fract_y
 _atom_site_fract_z
 _atom_site_occupancy
 _atom_site_hle17_bader_spin_density
 _atom_site_hle17_ddec_charge
 _atom_site_hle17_ddec_spin_density
 _atom_site_hle17_ddec_sum_bond_order
 _atom_site_hle17_magmom
 _atom_site_hse06_10hf_bader_spin_density
 _atom_site_hse06_10hf_ddec_charge
 _atom_site_hse06_10hf_ddec_spin_density
 _atom_site_hse06_10hf_ddec_sum_bond_order
 _atom_site_hse06_10hf_magmom
 _atom_site_hse06_bader_spin_density
 _atom_site_hse06_ddec_charge
 _atom_site_hse06_ddec_spin_density
 _atom_site_hse06_ddec_sum_bond_order
 _atom_site_hse06_magmom
 _atom_site_pbe_bader_spin_density
 _atom_site_pbe_cm5_charge
 _atom_site_pbe_ddec_charge
 _atom_site_pbe_ddec_spin_density
 _atom_site_pbe_ddec_sum_bond_order
 _atom_site_pbe_magmom
Cd  Cd0  1  0.19634715  0.81155992  0.45019430  1  0  0.98706  0  1.924862  0  0  0.817629  0  2.382999  0  0  0.862185  0  2.345771  0  0  0.705153  0.785934  0  2.408126  0
Cd  Cd1  1  0.80219957  0.18677602  0.54746336  1  0  0.999341  0  1.940414  0  0  0.828762  0  2.40166  0  0  0.873526  0  2.363365  0  0  0.718512  0.797068  0  2.427525  0
H  H2  1  0.00514057  0.23558387  0.30446655  1  0  0.104316  0  0.968843  0  0  0.114067  0  1.032881  0  0  0.116169  0  1.031776  0  0  0.10327  0.112305  0  1.034  0
H  H3  1  0.99269082  0.76400004  0.69169574  1  0  0.10242  0  0.970897  0  0  0.112781  0  1.034416  0  0  0.114705  0  1.033452  0  0  0.102686  0.111249  0  1.035236  0
H  H4  1  0.69608288  0.16417139  0.91276920  1  0  0.09194  0  0.974192  0  0  0.099128  0  1.045549  0  0  0.101698  0  1.043732  0  0  0.092866  0.09718  0  1.046874  0
H  H5  1  0.30193140  0.83553572  0.08333163  1  0  0.091011  0  0.973547  0  0  0.098503  0  1.044772  0  0  0.101033  0  1.042983  0  0  0.092709  0.096581  0  1.04605  0
H  H6  1  0.86213687  0.98980709  0.10965520  1  0  0.107518  0  0.962618  0  0  0.125518  0  1.028145  0  0  0.126767  0  1.028484  0  0  0.0851  0.124528  0  1.028077  0
H  H7  1  0.13528891  0.01063686  0.88830366  1  0  0.105115  0  0.966447  0  0  0.122086  0  1.034286  0  0  0.12332  0  1.03473  0  0  0.082871  0.121144  0  1.034063  0
H  H8  1  0.75900022  0.95564507  0.93868833  1  0  0.104369  0  0.955955  0  0  0.124374  0  1.019651  0  0  0.125528  0  1.019816  0  0  0.088462  0.123345  0  1.019699  0
H  H9  1  0.24308473  0.04373236  0.05798481  1  0  0.10359  0  0.956942  0  0  0.123419  0  1.020736  0  0  0.124608  0  1.020789  0  0  0.0879  0.122339  0  1.020888  0
H  H10  1  0.65946096  0.99833891  0.06170183  1  0  0.10126  0  0.952537  0  0  0.120896  0  1.016947  0  0  0.121638  0  1.017347  0  0  0.083159  0.119997  0  1.017266  0
H  H11  1  0.33761896  0.00013052  0.93138511  1  0  0.099256  0  0.955058  0  0  0.11902  0  1.019384  0  0  0.1197  0  1.019882  0  0  0.082452  0.118203  0  1.01957  0
H  H12  1  0.19118270  0.43182730  0.46613770  1  0  0.07761  0  0.938757  0  0  0.087519  0  1.00481  0  0  0.090112  0  1.00081  0  0  0.117501  0.085537  0  1.007817  0
H  H13  1  0.80584174  0.56723368  0.53015987  1  0  0.072998  0  0.941771  0  0  0.08328  0  1.008998  0  0  0.085718  0  1.005089  0  0  0.114301  0.081392  0  1.01191  0
H  H14  1  0.37908446  0.58204319  0.63818546  1  0  0.079528  0  0.942251  0  0  0.095903  0  1.00255  0  0  0.097081  0  1.001598  0  0  0.105931  0.094978  0  1.003217  0
H  H15  1  0.61631740  0.41537111  0.35947666  1  0  0.06329  0  0.953529  0  0  0.077682  0  1.02101  0  0  0.079008  0  1.019489  0  0  0.098234  0.076634  0  1.022143  0
H  H16  1  0.35952208  0.76055060  0.72008996  1  0  0.060762  0  0.937226  0  0  0.080613  0  1.000816  0  0  0.079682  0  1.002418  0  0  0.097747  0.081272  0  0.99966  0
H  H17  1  0.63740159  0.23709293  0.27693118  1  0  0.060069  0  0.936277  0  0  0.07975  0  0.99969  0  0  0.078811  0  1.001339  0  0  0.097241  0.08043  0  0.99846  0
H  H18  1  0.55571486  0.84857703  0.64698251  1  0  0.017955  0  1.002222  0  0  0.022608  0  1.089593  0  0  0.022175  0  1.090889  0  0  0.076125  0.022839  0  1.088709  0
H  H19  1  0.44893446  0.15164825  0.35990141  1  0  0.020116  0  1.011169  0  0  0.024839  0  1.098886  0  0  0.024419  0  1.100224  0  0  0.077068  0.025033  0  1.098026  0
H  H20  1  0.63966905  0.74445923  0.71092606  1  0  0.041097  0  0.928259  0  0  0.062427  0  0.985987  0  0  0.061958  0  0.986311  0  0  0.094957  0.062801  0  0.985731  0
H  H21  1  0.35868417  0.24512034  0.28513338  1  0  0.035737  0  0.930343  0  0  0.056905  0  0.989524  0  0  0.056435  0  0.989607  0  0  0.091196  0.05732  0  0.989365  0
H  H22  1  0.52282633  0.69115446  0.43882919  1  0  0.34001  0  0.959353  0  0  0.317438  0  1.036721  0  0  0.326262  0  1.026418  0  0  0.279497  0.311308  0  1.043875  0
H  H23  1  0.46894067  0.31644500  0.56353086  1  0  0.358046  0  0.906966  0  0  0.338953  0  0.97493  0  0  0.347263  0  0.965465  0  0  0.292761  0.333132  0  0.981612  0
H  H24  1  0.70030963  0.35296323  0.86659704  1  0  0.087817  0  0.948958  0  0  0.098629  0  1.015222  0  0  0.100528  0  1.011265  0  0  0.125745  0.097096  0  1.018091  0
H  H25  1  0.29524201  0.64760874  0.12915816  1  0  0.079731  0  0.962764  0  0  0.090339  0  1.031302  0  0  0.091922  0  1.027661  0  0  0.122503  0.089058  0  1.033982  0
H  H26  1  0.91128886  0.63618209  0.10854402  1  0  0.289554  0  0.930479  0  0  0.26664  0  0.998181  0  0  0.276429  0  0.990703  0  0  0.305414  0.259802  0  1.003353  0
H  H27  1  0.09066173  0.36226938  0.88591686  1  0  0.295363  0  0.925187  0  0  0.272251  0  0.992194  0  0  0.282069  0  0.984698  0  0  0.307609  0.265372  0  0.997385  0
H  H28  1  0.73110121  0.53245905  0.80672134  1  0  0.088655  0  0.924233  0  0  0.103723  0  0.986943  0  0  0.104224  0  0.987137  0  0  0.115498  0.103278  0  0.987032  0
H  H29  1  0.26702418  0.47013647  0.18993447  1  0  0.085576  0  0.932145  0  0  0.098953  0  0.998284  0  0  0.099403  0  0.998484  0  0  0.114969  0.098548  0  0.99838  0
H  H30  1  0.84590470  0.71390757  0.94402147  1  0  0.075688  0  0.934957  0  0  0.090491  0  1.002677  0  0  0.0903  0  1.004259  0  0  0.109759  0.090656  0  1.001619  0
H  H31  1  0.15528326  0.28829549  0.05510655  1  0  0.085212  0  0.928162  0  0  0.099897  0  0.993294  0  0  0.099784  0  0.994936  0  0  0.115277  0.099993  0  0.992218  0
H  H32  1  0.61838939  0.72785752  0.04071637  1  0  0.034645  0  0.973454  0  0  0.044044  0  1.050186  0  0  0.044481  0  1.050041  0  0  0.082816  0.043803  0  1.05031  0
H  H33  1  0.38325946  0.27431160  0.95788828  1  0  0.066366  0  0.941998  0  0  0.079833  0  1.008196  0  0  0.079926  0  1.008751  0  0  0.101  0.07968  0  1.008008  0
H  H34  1  0.55423357  0.69208088  0.86603049  1  0  0.051051  0  0.941494  0  0  0.071503  0  1.000636  0  0  0.070366  0  1.00215  0  0  0.102938  0.072308  0  0.99972  0
H  H35  1  0.44602090  0.30843726  0.13231738  1  0  0.051709  0  0.945607  0  0  0.06908  0  1.010059  0  0  0.068611  0  1.010761  0  0  0.103841  0.069356  0  1.009718  0
H  H36  1  0.48734689  0.50364720  0.96016221  1  0  0.348307  0  0.943004  0  0  0.327977  0  1.011682  0  0  0.336443  0  1.002488  0  0  0.289303  0.32196  0  1.018155  0
H  H37  1  0.55216118  0.55275723  0.20443392  1  0  0.379847  0  0.82861  0  0  0.369549  0  0.875803  0  0  0.375818  0  0.869746  0  0  0.331021  0.365208  0  0.879998  0
C  C38  1  0.96953389  0.48194394  0.20402652  1  0  0.350187  0  3.793321  0  0  0.321575  0  4.053024  0  0  0.343408  0  4.065154  0  0  0.109846  0.307241  0  4.044262  0
C  C39  1  0.03031897  0.51705167  0.79097326  1  0  0.363553  0  3.782115  0  0  0.334548  0  4.040212  0  0  0.356894  0  4.051841  0  0  0.117577  0.319813  0  4.031918  0
C  C40  1  0.02535184  0.42403397  0.29030361  1  0  -0.117628  0  3.784588  0  0  -0.098057  0  4.033703  0  0  -0.112361  0  4.05931  0  0  -0.03549  -0.088779  0  4.016179  0
C  C41  1  0.97364893  0.57538849  0.70525480  1  0  -0.114377  0  3.781676  0  0  -0.095272  0  4.030776  0  0  -0.109732  0  4.056291  0  0  -0.031937  -0.085919  0  4.013406  0
C  C42  1  0.95975485  0.27646912  0.23668847  1  0  -0.092039  0  3.672524  0  0  -0.126056  0  3.917981  0  0  -0.119927  0  3.937232  0  0  -0.070573  -0.129585  0  3.9051  0
C  C43  1  0.03856851  0.72303528  0.75924894  1  0  -0.089468  0  3.665563  0  0  -0.123585  0  3.911486  0  0  -0.117177  0  3.930713  0  0  -0.069654  -0.127362  0  3.898594  0
C  C44  1  0.84201694  0.18011766  0.10221224  1  0  0.092935  0  3.801228  0  0  0.122443  0  4.04209  0  0  0.115472  0  4.069025  0  0  -0.030494  0.126488  0  4.024269  0
C  C45  1  0.15633173  0.81959434  0.89383643  1  0  0.09578  0  3.797624  0  0  0.124551  0  4.038879  0  0  0.117294  0  4.065955  0  0  -0.027679  0.128752  0  4.020975  0
C  C46  1  0.78777899  0.23564640  0.01830200  1  0  -0.099406  0  3.699122  0  0  -0.132388  0  3.947215  0  0  -0.126151  0  3.966272  0  0  -0.07861  -0.136004  0  3.934255  0
C  C47  1  0.21052835  0.76416733  0.97763223  1  0  -0.094664  0  3.695685  0  0  -0.127942  0  3.943001  0  0  -0.121501  0  3.962078  0  0  -0.07551  -0.131654  0  3.930124  0
C  C48  1  0.84750716  0.38264018  0.06555676  1  0  -0.122385  0  3.809121  0  0  -0.105197  0  4.065813  0  0  -0.121471  0  4.090935  0  0  -0.036761  -0.094874  0  4.04902  0
C  C49  1  0.15137442  0.61686499  0.92967892  1  0  -0.117764  0  3.810104  0  0  -0.099392  0  4.063226  0  0  -0.116125  0  4.088633  0  0  -0.032976  -0.088866  0  4.046345  0
C  C50  1  0.77765845  0.02284542  0.05051346  1  0  -0.326426  0  3.728507  0  0  -0.402561  0  3.958349  0  0  -0.404181  0  3.969976  0  0  -0.242492  -0.40111  0  3.950986  0
C  C51  1  0.22110540  0.97676726  0.94547601  1  0  -0.325538  0  3.729498  0  0  -0.401199  0  3.959718  0  0  -0.402886  0  3.971565  0  0  -0.243068  -0.399666  0  3.952118  0
C  C52  1  0.15739993  0.50156426  0.42605649  1  0  0.171192  0  3.663711  0  0  0.126302  0  3.919124  0  0  0.14184  0  3.931769  0  0  0.079398  0.115855  0  3.910456  0
C  C53  1  0.84112274  0.49764303  0.56999502  1  0  0.172528  0  3.667386  0  0  0.127419  0  3.923382  0  0  0.142895  0  3.936232  0  0  0.079746  0.117044  0  3.91459  0
C  C54  1  0.37746162  0.67651101  0.62786175  1  0  -0.039353  0  3.699085  0  0  -0.100486  0  3.969162  0  0  -0.096886  0  3.982092  0  0  -0.080438  -0.102493  0  3.959822  0
C  C55  1  0.62046903  0.32108672  0.36987481  1  0  -0.036355  0  3.715623  0  0  -0.096699  0  3.986906  0  0  -0.093225  0  4.000069  0  0  -0.082086  -0.098648  0  3.977406  0
C  C56  1  0.54213901  0.73806856  0.62548095  1  0  0.120097  0  3.672003  0  0  0.063643  0  3.951029  0  0  0.07044  0  3.956652  0  0  -0.085486  0.059099  0  3.946832  0
C  C57  1  0.45763778  0.25913350  0.37455544  1  0  0.114892  0  3.68692  0  0  0.056577  0  3.967281  0  0  0.063455  0  3.973081  0  0  -0.086674  0.052007  0  3.962931  0
C  C58  1  0.78649619  0.43098809  0.97300301  1  0  0.21116  0  3.578718  0  0  0.149888  0  3.844766  0  0  0.173333  0  3.848722  0  0  0.096872  0.134373  0  3.842014  0
C  C59  1  0.21172456  0.56869352  0.02191483  1  0  0.210498  0  3.591847  0  0  0.149509  0  3.85745  0  0  0.172922  0  3.861814  0  0  0.096053  0.134061  0  3.854374  0
C  C60  1  0.75656943  0.61600682  0.91611671  1  0  -0.019247  0  3.647171  0  0  -0.085458  0  3.915094  0  0  -0.081912  0  3.92682  0  0  -0.061988  -0.087543  0  3.907033  0
C  C61  1  0.24367809  0.38575667  0.08109016  1  0  -0.021529  0  3.663127  0  0  -0.086645  0  3.930266  0  0  -0.082787  0  3.941845  0  0  -0.060159  -0.089079  0  3.922408  0
C  C62  1  0.59678777  0.64665947  0.93077175  1  0  0.11524  0  3.677632  0  0  0.060855  0  3.950021  0  0  0.066893  0  3.957595  0  0  -0.078762  0.056549  0  3.944754  0
C  C63  1  0.40236919  0.35355981  0.06739349  1  0  0.113602  0  3.627418  0  0  0.053531  0  3.901654  0  0  0.059857  0  3.908185  0  0  -0.070872  0.04917  0  3.89734  0
C  C64  1  0.48279584  0.13169350  0.65014070  1  0  0.311838  0  3.986745  0  0  0.286583  0  4.293233  0  0  0.307869  0  4.307126  0  0  0.155237  0.271967  0  4.283498  0
C  C65  1  0.51983834  0.85966333  0.33950217  1  0  0.301253  0  4.002659  0  0  0.275717  0  4.311353  0  0  0.296989  0  4.32531  0  0  0.149753  0.261163  0  4.301559  0
C  C66  1  0.06788695  0.06098183  0.39927392  1  0  0.303766  0  4.006993  0  0  0.28321  0  4.309271  0  0  0.304366  0  4.324167  0  0  0.147939  0.268712  0  4.298944  0
C  C67  1  0.93064673  0.93415963  0.59572612  1  0  0.303275  0  4.016949  0  0  0.283166  0  4.320305  0  0  0.3043  0  4.335248  0  0  0.144718  0.268692  0  4.309961  0
S  S68  1  0.37000984  0.05297259  0.70150882  1  0  -0.320845  0  2.185752  0  0  -0.279949  0  2.511613  0  0  -0.297994  0  2.505587  0  0  -0.114783  -0.267361  0  2.515319  0
S  S69  1  0.62933363  0.94495616  0.29182260  1  0  -0.310721  0  2.205023  0  0  -0.270466  0  2.533165  0  0  -0.288158  0  2.527523  0  0  -0.109158  -0.258183  0  2.536533  0
S  S70  1  0.13777393  0.93920245  0.29815786  1  0  -0.340432  0  2.158266  0  0  -0.301838  0  2.48594  0  0  -0.321248  0  2.481439  0  0  -0.140552  -0.287782  0  2.488407  0
S  S71  1  0.86964141  0.05972981  0.70224761  1  0  -0.342208  0  2.149256  0  0  -0.30471  0  2.474056  0  0  -0.323695  0  2.46962  0  0  -0.140847  -0.291034  0  2.476463  0
N  N72  1  0.24236252  0.63620021  0.50124993  1  0  -0.333092  0  3.159462  0  0  -0.24872  0  3.433637  0  0  -0.271269  0  3.451582  0  0  -0.347171  -0.233284  0  3.420982  0
N  N73  1  0.75750478  0.36275379  0.49536401  1  0  -0.332164  0  3.15811  0  0  -0.249749  0  3.432821  0  0  -0.271922  0  3.450644  0  0  -0.346746  -0.234654  0  3.420309  0
N  N74  1  0.82805094  0.56562646  0.00682601  1  0  -0.252301  0  3.398768  0  0  -0.177172  0  3.639071  0  0  -0.195509  0  3.650544  0  0  -0.376066  -0.165317  0  3.631441  0
N  N75  1  0.17215579  0.43380740  0.98818843  1  0  -0.260764  0  3.389759  0  0  -0.185211  0  3.628953  0  0  -0.203951  0  3.640477  0  0  -0.378274  -0.172939  0  3.621142  0
N  N76  1  0.56678466  0.19394805  0.61761180  1  0  -0.553704  0  2.877609  0  0  -0.499022  0  3.147864  0  0  -0.518157  0  3.153488  0  0  -0.380046  -0.485986  0  3.14404  0
N  N77  1  0.43756316  0.79134175  0.36838569  1  0  -0.567062  0  2.860461  0  0  -0.514816  0  3.129749  0  0  -0.533107  0  3.134573  0  0  -0.383954  -0.502373  0  3.126585  0
N  N78  1  0.01785725  0.15146964  0.47037837  1  0  -0.528558  0  2.852869  0  0  -0.476233  0  3.121033  0  0  -0.495908  0  3.127086  0  0  -0.390976  -0.46255  0  3.116717  0
N  N79  1  0.97375771  0.84055726  0.51997765  1  0  -0.541195  0  2.844001  0  0  -0.491403  0  3.114239  0  0  -0.510779  0  3.119961  0  0  -0.399126  -0.477937  0  3.110122  0
O  O80  1  0.02754913  0.61406157  0.24023813  1  0  -0.58554  0  2.132697  0  0  -0.516161  0  2.385626  0  0  -0.545791  0  2.382388  0  0  -0.323157  -0.495718  0  2.386953  0
O  O81  1  0.97413772  0.38486996  0.75471601  1  0  -0.580996  0  2.129639  0  0  -0.510874  0  2.38047  0  0  -0.54061  0  2.377004  0  0  -0.318092  -0.490476  0  2.382087  0
O  O82  1  0.56511600  0.65130854  0.49717947  1  0  -0.542591  0  2.039377  0  0  -0.495044  0  2.26302  0  0  -0.510468  0  2.252974  0  0  -0.424448  -0.484138  0  2.2698  0
O  O83  1  0.43174343  0.35067789  0.49948350  1  0  -0.524802  0  2.033596  0  0  -0.475094  0  2.250415  0  0  -0.490568  0  2.241046  0  0  -0.411583  -0.464044  0  2.256727  0
O  O84  1  0.47455981  0.51829434  0.88073226  1  0  -0.533528  0  2.025951  0  0  -0.485788  0  2.237851  0  0  -0.502958  0  2.231006  0  0  -0.4216  -0.472795  0  2.241928  0
O  O85  1  0.52427965  0.47914624  0.10599336  1  0  -0.529048  0  2.096082  0  0  -0.473332  0  2.306858  0  0  -0.489923  0  2.299857  0  0  -0.384244  -0.461497  0  2.311347  0
