# generated using pymatgen
data_CdH18C22(NO)4
_symmetry_space_group_name_H-M   'P 1'
_cell_length_a   7.55167661
_cell_length_b   8.80831459
_cell_length_c   16.16405941
_cell_angle_alpha   104.78177114
_cell_angle_beta   102.35133614
_cell_angle_gamma   94.25869361
_symmetry_Int_Tables_number   1
_chemical_formula_structural   CdH18C22(NO)4
_chemical_formula_sum   'Cd2 H36 C44 N8 O8'
_cell_volume   1006.05531819
_cell_formula_units_Z   2
loop_
 _symmetry_equiv_pos_site_id
 _symmetry_equiv_pos_as_xyz
  1  'x, y, z'
loop_
 _atom_site_type_symbol
 _atom_site_label
 _atom_site_symmetry_multiplicity
 _atom_site_fract_x
 _atom_site_fract_y
 _atom_site_fract_z
 _atom_site_occupancy
 _atom_site_hle17_bader_spin_density
 _atom_site_hle17_ddec_charge
 _atom_site_hle17_ddec_spin_density
 _atom_site_hle17_ddec_sum_bond_order
 _atom_site_hle17_magmom
 _atom_site_hse06_10hf_bader_spin_density
 _atom_site_hse06_10hf_ddec_charge
 _atom_site_hse06_10hf_ddec_spin_density
 _atom_site_hse06_10hf_ddec_sum_bond_order
 _atom_site_hse06_10hf_magmom
 _atom_site_hse06_bader_spin_density
 _atom_site_hse06_ddec_charge
 _atom_site_hse06_ddec_spin_density
 _atom_site_hse06_ddec_sum_bond_order
 _atom_site_hse06_magmom
 _atom_site_pbe_bader_spin_density
 _atom_site_pbe_cm5_charge
 _atom_site_pbe_ddec_charge
 _atom_site_pbe_ddec_spin_density
 _atom_site_pbe_ddec_sum_bond_order
 _atom_site_pbe_magmom
Cd  Cd0  1  0.18715273  0.87224073  0.72143371  1  0  1.096474  0  1.660662  0  0  0.90535  0  2.095885  0  0  0.964275  0  2.045378  0  0  0.773511  0.863702  0  2.130167  0
Cd  Cd1  1  0.96612914  0.15093411  0.27862054  1  0  1.096386  0  1.662006  0  0  0.905255  0  2.09745  0  0  0.964147  0  2.046914  0  0  0.773567  0.863645  0  2.131746  0
H  H2  1  0.59819309  0.98518801  0.12600941  1  0  0.139145  0  0.940934  0  0  0.16214  0  0.996345  0  0  0.163904  0  0.99584  0  0  0.106835  0.16084  0  0.996784  0
H  H3  1  0.97225361  0.85902493  0.87421048  1  0  0.138596  0  0.942186  0  0  0.16193  0  0.996999  0  0  0.163687  0  0.996516  0  0  0.106859  0.160609  0  0.997455  0
H  H4  1  0.51159116  0.79186045  0.05313705  1  0  0.121567  0  0.955481  0  0  0.14009  0  1.019509  0  0  0.142234  0  1.018336  0  0  0.096409  0.138559  0  1.02034  0
H  H5  1  0.95881782  0.73849899  0.94701904  1  0  0.121612  0  0.955084  0  0  0.140181  0  1.019175  0  0  0.142303  0  1.018032  0  0  0.09599  0.138624  0  1.020033  0
H  H6  1  0.71667513  0.89792983  0.04726105  1  0  0.146793  0  0.932163  0  0  0.16574  0  0.991849  0  0  0.168936  0  0.989299  0  0  0.103724  0.163421  0  0.993731  0
H  H7  1  0.16983431  0.85015463  0.95277409  1  0  0.146206  0  0.932228  0  0  0.165796  0  0.991391  0  0  0.169004  0  0.988823  0  0  0.103688  0.163497  0  0.993244  0
H  H8  1  0.99654213  0.82278622  0.35004595  1  0  0.09727  0  0.975445  0  0  0.106978  0  1.036549  0  0  0.108648  0  1.03716  0  0  0.114275  0.105782  0  1.036193  0
H  H9  1  0.14652924  0.47255500  0.65009668  1  0  0.097606  0  0.974832  0  0  0.107209  0  1.036098  0  0  0.108817  0  1.036754  0  0  0.114312  0.106021  0  1.035738  0
H  H10  1  0.89485023  0.51823878  0.23609159  1  0  0.13068  0  0.985184  0  0  0.137025  0  1.049164  0  0  0.140762  0  1.046518  0  0  0.1229  0.134306  0  1.051142  0
H  H11  1  0.15951441  0.28205140  0.76417264  1  0  0.131152  0  0.986066  0  0  0.137618  0  1.049708  0  0  0.141364  0  1.047081  0  0  0.122785  0.134882  0  1.051713  0
H  H12  1  0.70949751  0.62063516  0.97751158  1  0  0.096957  0  0.965329  0  0  0.111635  0  1.02082  0  0  0.113941  0  1.020483  0  0  0.104632  0.109963  0  1.021172  0
H  H13  1  0.23264308  0.64304349  0.02244766  1  0  0.098722  0  0.963526  0  0  0.113305  0  1.01889  0  0  0.115675  0  1.018438  0  0  0.105314  0.1116  0  1.019304  0
H  H14  1  0.55417011  0.38420377  0.85501493  1  0  0.091926  0  0.967715  0  0  0.101699  0  1.033398  0  0  0.104425  0  1.031756  0  0  0.101681  0.099712  0  1.034603  0
H  H15  1  0.19960842  0.52961585  0.14510657  1  0  0.091049  0  0.967316  0  0  0.101062  0  1.032905  0  0  0.103719  0  1.031334  0  0  0.101538  0.099098  0  1.034092  0
H  H16  1  0.45676516  0.13792892  0.04157209  1  0  0.100433  0  0.943921  0  0  0.112432  0  1.000629  0  0  0.115297  0  0.998914  0  0  0.107723  0.110322  0  1.001944  0
H  H17  1  0.91527440  0.09660518  0.95874853  1  0  0.100094  0  0.944418  0  0  0.112289  0  1.000971  0  0  0.115192  0  0.999205  0  0  0.107377  0.110153  0  1.002303  0
H  H18  1  0.60456147  0.37422654  0.16519115  1  0  0.113267  0  0.986137  0  0  0.119488  0  1.054113  0  0  0.123046  0  1.052452  0  0  0.104324  0.116924  0  1.055402  0
H  H19  1  0.93936407  0.20891136  0.83495628  1  0  0.114637  0  0.984417  0  0  0.121055  0  1.052159  0  0  0.124546  0  1.050522  0  0  0.104705  0.118559  0  1.053392  0
H  H20  1  0.53768478  0.76512798  0.79916930  1  0  0.141153  0  0.946085  0  0  0.159856  0  1.006607  0  0  0.16236  0  1.005245  0  0  0.100641  0.15802  0  1.00762  0
H  H21  1  0.23801250  0.96520043  0.20070075  1  0  0.141243  0  0.946278  0  0  0.160335  0  1.006524  0  0  0.162848  0  1.005174  0  0  0.100508  0.158499  0  1.007522  0
H  H22  1  0.72180997  0.77323406  0.74719831  1  0  0.150965  0  0.948628  0  0  0.16719  0  1.012424  0  0  0.17013  0  1.011  0  0  0.101322  0.165084  0  1.01345  0
H  H23  1  0.47435011  0.02537038  0.25250446  1  0  0.15075  0  0.949249  0  0  0.167623  0  1.012368  0  0  0.170555  0  1.010924  0  0  0.101028  0.165478  0  1.01345  0
H  H24  1  0.65354359  0.59574603  0.77261340  1  0  0.126069  0  0.950876  0  0  0.145696  0  1.010366  0  0  0.147523  0  1.010497  0  0  0.095882  0.144386  0  1.010292  0
H  H25  1  0.38055790  0.82250520  0.22726716  1  0  0.126659  0  0.951149  0  0  0.146308  0  1.010761  0  0  0.148191  0  1.01081  0  0  0.095721  0.144966  0  1.010726  0
H  H26  1  0.15136388  0.67816663  0.50509113  1  0  0.105212  0  0.960802  0  0  0.115791  0  1.020895  0  0  0.118387  0  1.019061  0  0  0.118042  0.113924  0  1.022284  0
H  H27  1  0.14716937  0.17294604  0.49479719  1  0  0.105594  0  0.958994  0  0  0.116076  0  1.019287  0  0  0.118746  0  1.017382  0  0  0.118072  0.114109  0  1.020825  0
H  H28  1  0.31219982  0.40430973  0.46431785  1  0  0.126616  0  0.95485  0  0  0.135516  0  1.017019  0  0  0.138124  0  1.015991  0  0  0.125189  0.133648  0  1.017803  0
H  H29  1  0.34878750  0.93993444  0.53570921  1  0  0.126033  0  0.95548  0  0  0.135483  0  1.016865  0  0  0.1381  0  1.015841  0  0  0.125111  0.133602  0  1.017655  0
H  H30  1  0.44622194  0.33069102  0.70831049  1  0  0.106848  0  0.970813  0  0  0.11432  0  1.038916  0  0  0.117403  0  1.03757  0  0  0.105613  0.112065  0  1.040065  0
H  H31  1  0.23753523  0.62179655  0.29166427  1  0  0.106711  0  0.969672  0  0  0.114324  0  1.037639  0  0  0.117406  0  1.036319  0  0  0.105685  0.112047  0  1.038812  0
H  H32  1  0.63081500  0.11818406  0.73198525  1  0  0.110802  0  0.952242  0  0  0.118537  0  1.014552  0  0  0.122114  0  1.012047  0  0  0.106637  0.115933  0  1.016408  0
H  H33  1  0.39832523  0.38555823  0.26793202  1  0  0.110333  0  0.951405  0  0  0.118163  0  1.013653  0  0  0.121675  0  1.011244  0  0  0.106508  0.115579  0  1.015472  0
H  H34  1  0.89139773  0.17233282  0.52718119  1  0  0.0958  0  0.960594  0  0  0.105814  0  1.023264  0  0  0.109054  0  1.020751  0  0  0.103889  0.103391  0  1.025246  0
H  H35  1  0.86444344  0.64423805  0.47266599  1  0  0.095502  0  0.96179  0  0  0.105989  0  1.024072  0  0  0.109287  0  1.021457  0  0  0.103964  0.103588  0  1.026004  0
H  H36  1  0.71634580  0.39344788  0.50743209  1  0  0.109564  0  0.984377  0  0  0.116678  0  1.050838  0  0  0.119378  0  1.050199  0  0  0.103887  0.114697  0  1.051416  0
H  H37  1  0.70940745  0.88532028  0.49249674  1  0  0.109705  0  0.984001  0  0  0.116678  0  1.050542  0  0  0.119372  0  1.049902  0  0  0.103588  0.11473  0  1.051079  0
C  C38  1  0.63595323  0.87220144  0.09232646  1  0  -0.396678  0  3.719194  0  0  -0.481743  0  3.964446  0  0  -0.485194  0  3.968341  0  0  -0.232296  -0.479145  0  3.961645  0
C  C39  1  0.04376526  0.77958469  0.90776048  1  0  -0.395077  0  3.717806  0  0  -0.481222  0  3.962561  0  0  -0.484675  0  3.966519  0  0  -0.231401  -0.478592  0  3.959746  0
C  C40  1  0.74292537  0.80495622  0.15934773  1  0  0.385934  0  3.664302  0  0  0.364553  0  3.928414  0  0  0.381607  0  3.942264  0  0  0.221421  0.353322  0  3.918579  0
C  C41  1  0.08339232  0.64529912  0.84066048  1  0  0.387695  0  3.658245  0  0  0.366802  0  3.921405  0  0  0.383867  0  3.935191  0  0  0.221871  0.355572  0  3.911598  0
C  C42  1  0.91365178  0.78318231  0.28290963  1  0  -0.001842  0  3.796935  0  0  -0.034549  0  4.065131  0  0  -0.032772  0  4.086933  0  0  -0.013049  -0.035741  0  4.050339  0
C  C43  1  0.13074163  0.50003050  0.71719369  1  0  -0.003332  0  3.795711  0  0  -0.035732  0  4.064188  0  0  -0.033892  0  4.08606  0  0  -0.014033  -0.03693  0  4.04937  0
C  C44  1  0.86010621  0.63236540  0.22923736  1  0  -0.052029  0  3.661561  0  0  -0.095041  0  3.927473  0  0  -0.093037  0  3.944503  0  0  -0.002365  -0.096369  0  3.916155  0
C  C45  1  0.13124016  0.40293368  0.77091063  1  0  -0.053529  0  3.665529  0  0  -0.097327  0  3.931628  0  0  -0.095328  0  3.948651  0  0  -0.00273  -0.098661  0  3.920319  0
C  C46  1  0.66388298  0.51346496  0.07892421  1  0  0.190047  0  3.772785  0  0  0.182334  0  4.021158  0  0  0.188952  0  4.043587  0  0  0.09638  0.177998  0  4.005927  0
C  C47  1  0.08516434  0.43447485  0.92116009  1  0  0.190636  0  3.774098  0  0  0.18243  0  4.022594  0  0  0.189007  0  4.045081  0  0  0.096278  0.178117  0  4.007347  0
C  C48  1  0.65050139  0.51637825  0.99166179  1  0  -0.154656  0  3.755382  0  0  -0.175255  0  4.010491  0  0  -0.180582  0  4.032199  0  0  -0.091295  -0.171769  0  3.995823  0
C  C49  1  0.15914950  0.52478093  0.00839587  1  0  -0.156572  0  3.754892  0  0  -0.177124  0  4.010201  0  0  -0.182479  0  4.031853  0  0  -0.091696  -0.173618  0  3.995566  0
C  C50  1  0.56493624  0.38340826  0.92311317  1  0  -0.05439  0  3.745956  0  0  -0.080343  0  3.999353  0  0  -0.078758  0  4.019453  0  0  -0.084003  -0.081098  0  3.985659  0
C  C51  1  0.14217217  0.46060401  0.07702707  1  0  -0.053742  0  3.744191  0  0  -0.079845  0  3.997606  0  0  -0.078192  0  4.017689  0  0  -0.083774  -0.080618  0  3.983949  0
C  C52  1  0.49582784  0.24586659  0.94058393  1  0  -0.064785  0  3.755915  0  0  -0.041904  0  3.989024  0  0  -0.050963  0  4.012866  0  0  -0.017019  -0.036182  0  3.973083  0
C  C53  1  0.05557474  0.30557593  0.05958770  1  0  -0.062892  0  3.755195  0  0  -0.040195  0  3.988349  0  0  -0.049242  0  4.012194  0  0  -0.016703  -0.034477  0  3.97239  0
C  C54  1  0.51220137  0.24445005  0.02829270  1  0  -0.038741  0  3.720956  0  0  -0.062327  0  3.967361  0  0  -0.061228  0  3.988118  0  0  -0.074581  -0.062832  0  3.953321  0
C  C55  1  0.98409263  0.21633778  0.97189942  1  0  -0.038919  0  3.721134  0  0  -0.062516  0  3.967459  0  0  -0.061442  0  3.98823  0  0  -0.074714  -0.062988  0  3.95341  0
C  C56  1  0.59404159  0.37738508  0.09735795  1  0  -0.144648  0  3.713168  0  0  -0.164673  0  3.967413  0  0  -0.170001  0  3.987828  0  0  -0.088264  -0.161175  0  3.953665  0
C  C57  1  0.99674181  0.28002287  0.90276936  1  0  -0.147011  0  3.712955  0  0  -0.167311  0  3.967453  0  0  -0.172574  0  3.987916  0  0  -0.08849  -0.163883  0  3.953699  0
C  C58  1  0.40421148  0.10184350  0.86736985  1  0  0.624283  0  3.946144  0  0  0.576908  0  4.233515  0  0  0.611418  0  4.22799  0  0  0.191698  0.553613  0  4.236318  0
C  C59  1  0.03727753  0.23461917  0.13272760  1  0  0.623485  0  3.946844  0  0  0.576293  0  4.234059  0  0  0.610807  0  4.2285  0  0  0.19037  0.552985  0  4.236883  0
C  C60  1  0.60349455  0.69581279  0.75043217  1  0  -0.399378  0  3.686533  0  0  -0.477246  0  3.92192  0  0  -0.482114  0  3.926935  0  0  -0.236582  -0.473667  0  3.918359  0
C  C61  1  0.35283776  0.94477434  0.24940923  1  0  -0.400196  0  3.687733  0  0  -0.479052  0  3.922485  0  0  -0.483998  0  3.927475  0  0  -0.236151  -0.475384  0  3.918974  0
C  C62  1  0.47354098  0.64206546  0.66244541  1  0  0.385402  0  3.683875  0  0  0.361786  0  3.950977  0  0  0.379139  0  3.96445  0  0  0.220199  0.350346  0  3.941403  0
C  C63  1  0.31131847  0.97913910  0.33745116  1  0  0.383919  0  3.680632  0  0  0.36064  0  3.948432  0  0  0.378057  0  3.961789  0  0  0.218552  0.349166  0  3.938917  0
C  C64  1  0.26144057  0.63740698  0.54508680  1  0  0.001275  0  3.784444  0  0  -0.036784  0  4.063946  0  0  -0.033844  0  4.082241  0  0  -0.008037  -0.038818  0  4.051664  0
C  C65  1  0.21736173  0.09225779  0.45487344  1  0  0.000508  0  3.786552  0  0  -0.037457  0  4.065858  0  0  -0.034584  0  4.084151  0  0  -0.008565  -0.039421  0  4.053562  0
C  C66  1  0.33944402  0.50199603  0.52364146  1  0  -0.040432  0  3.658437  0  0  -0.08517  0  3.926913  0  0  -0.082713  0  3.944368  0  0  0.003984  -0.086799  0  3.91525  0
C  C67  1  0.31665388  0.97817833  0.47632982  1  0  -0.04072  0  3.661797  0  0  -0.08557  0  3.930354  0  0  -0.083139  0  3.947876  0  0  0.00366  -0.087181  0  3.918635  0
C  C68  1  0.54806130  0.29918634  0.67059556  1  0  -0.150001  0  3.739594  0  0  -0.16971  0  3.991575  0  0  -0.174044  0  4.011616  0  0  -0.088209  -0.166876  0  3.978107  0
C  C69  1  0.37724057  0.62797413  0.32934798  1  0  -0.149182  0  3.73708  0  0  -0.169085  0  3.988914  0  0  -0.17342  0  4.008941  0  0  -0.088396  -0.166235  0  3.975426  0
C  C70  1  0.57515607  0.37817092  0.60858611  1  0  0.186445  0  3.778673  0  0  0.181222  0  4.022562  0  0  0.186737  0  4.045352  0  0  0.095276  0.177614  0  4.007073  0
C  C71  1  0.46667277  0.76897205  0.39130251  1  0  0.184661  0  3.777588  0  0  0.179769  0  4.021278  0  0  0.185277  0  4.044106  0  0  0.09474  0.176165  0  4.005763  0
C  C72  1  0.65058690  0.17859245  0.68309377  1  0  -0.049038  0  3.725595  0  0  -0.07465  0  3.97865  0  0  -0.073547  0  3.99766  0  0  -0.079935  -0.075166  0  3.9658  0
C  C73  1  0.46715267  0.49482314  0.31687431  1  0  -0.048577  0  3.726381  0  0  -0.074187  0  3.979453  0  0  -0.073028  0  3.998448  0  0  -0.079554  -0.074716  0  3.966616  0
C  C74  1  0.77740565  0.13406876  0.63263654  1  0  -0.078615  0  3.777211  0  0  -0.056029  0  4.011593  0  0  -0.064929  0  4.035497  0  0  -0.019846  -0.05034  0  3.995528  0
C  C75  1  0.64455677  0.50071414  0.36726458  1  0  -0.07754  0  3.775811  0  0  -0.055193  0  4.010532  0  0  -0.064081  0  4.034416  0  0  -0.019372  -0.049526  0  3.994517  0
C  C76  1  0.79479459  0.20838360  0.56722627  1  0  -0.052022  0  3.739478  0  0  -0.075465  0  3.987582  0  0  -0.074513  0  4.007036  0  0  -0.079505  -0.075832  0  3.974379  0
C  C77  1  0.72762794  0.64037442  0.43271444  1  0  -0.053331  0  3.736157  0  0  -0.077171  0  3.984769  0  0  -0.076242  0  4.00417  0  0  -0.080525  -0.077545  0  3.971598  0
C  C78  1  0.69590489  0.33160235  0.55557131  1  0  -0.136005  0  3.719792  0  0  -0.156085  0  3.969481  0  0  -0.160007  0  3.989391  0  0  -0.088169  -0.153469  0  3.95602  0
C  C79  1  0.64053124  0.77534142  0.44436055  1  0  -0.135362  0  3.715112  0  0  -0.15539  0  3.964851  0  0  -0.159286  0  3.98477  0  0  -0.08734  -0.152823  0  3.951389  0
C  C80  1  0.90460376  0.01895887  0.65395828  1  0  0.615584  0  3.953152  0  0  0.569526  0  4.239431  0  0  0.603897  0  4.233777  0  0  0.187404  0.546337  0  4.242314  0
C  C81  1  0.75001006  0.36406303  0.34575957  1  0  0.616448  0  3.951461  0  0  0.570347  0  4.237991  0  0  0.60473  0  4.232283  0  0  0.187312  0.547146  0  4.240906  0
N  N82  1  0.84109582  0.88904033  0.23920944  1  0  -0.454725  0  3.214061  0  0  -0.381208  0  3.487948  0  0  -0.404699  0  3.50497  0  0  -0.361551  -0.365119  0  3.475884  0
N  N83  1  0.10156145  0.64953094  0.76082014  1  0  -0.455413  0  3.210464  0  0  -0.382306  0  3.484043  0  0  -0.405815  0  3.501033  0  0  -0.361983  -0.36621  0  3.471998  0
N  N84  1  0.75226832  0.64636658  0.15092333  1  0  -0.142745  0  3.530891  0  0  -0.057878  0  3.741368  0  0  -0.073719  0  3.765057  0  0  -0.222949  -0.047378  0  3.725204  0
N  N85  1  0.10162918  0.49526093  0.84916564  1  0  -0.142383  0  3.529167  0  0  -0.056363  0  3.737803  0  0  -0.072205  0  3.761512  0  0  -0.221869  -0.04587  0  3.721635  0
N  N86  1  0.34562407  0.72388210  0.63082279  1  0  -0.466228  0  3.200721  0  0  -0.394107  0  3.480474  0  0  -0.417129  0  3.495418  0  0  -0.367704  -0.378341  0  3.469859  0
N  N87  1  0.21540679  0.09280256  0.36910032  1  0  -0.465975  0  3.198337  0  0  -0.393953  0  3.47798  0  0  -0.416975  0  3.492894  0  0  -0.367274  -0.378177  0  3.467343  0
N  N88  1  0.47289386  0.50541761  0.59836891  1  0  -0.154329  0  3.544545  0  0  -0.067397  0  3.754395  0  0  -0.083289  0  3.778161  0  0  -0.22498  -0.056867  0  3.738198  0
N  N89  1  0.37484603  0.90656147  0.40152797  1  0  -0.15111  0  3.542473  0  0  -0.064936  0  3.752722  0  0  -0.080862  0  3.776499  0  0  -0.222955  -0.054387  0  3.736519  0
O  O90  1  0.37826241  0.96999861  0.88368592  1  0  -0.636941  0  1.921911  0  0  -0.58079  0  2.145155  0  0  -0.607977  0  2.137312  0  0  -0.332484  -0.561746  0  2.149729  0
O  O91  1  0.99576520  0.08637175  0.11638546  1  0  -0.636936  0  1.922044  0  0  -0.580682  0  2.144746  0  0  -0.607924  0  2.137065  0  0  -0.332136  -0.561629  0  2.149271  0
O  O92  1  0.35252369  0.11924627  0.78933220  1  0  -0.649633  0  1.998909  0  0  -0.57717  0  2.240557  0  0  -0.607393  0  2.231249  0  0  -0.331769  -0.555959  0  2.246013  0
O  O93  1  0.06299814  0.33001689  0.21074221  1  0  -0.649658  0  1.999086  0  0  -0.577326  0  2.241046  0  0  -0.607492  0  2.231589  0  0  -0.331428  -0.556172  0  2.246672  0
O  O94  1  0.90806698  0.97901072  0.72516750  1  0  -0.643809  0  1.966581  0  0  -0.580291  0  2.204321  0  0  -0.608943  0  2.194422  0  0  -0.333241  -0.560215  0  2.210241  0
O  O95  1  0.68194472  0.25322986  0.27444808  1  0  -0.643216  0  1.967184  0  0  -0.579548  0  2.204172  0  0  -0.608192  0  2.194433  0  0  -0.33184  -0.559498  0  2.210034  0
O  O96  1  0.01153436  0.97241137  0.60427440  1  0  -0.634247  0  1.903564  0  0  -0.572294  0  2.130256  0  0  -0.600064  0  2.121928  0  0  -0.335488  -0.552792  0  2.135118  0
O  O97  1  0.90673374  0.36682146  0.39539103  1  0  -0.635864  0  1.904825  0  0  -0.573665  0  2.131935  0  0  -0.601543  0  2.123612  0  0  -0.336328  -0.554114  0  2.136839  0
