# generated using pymatgen
data_Cd3H22(C2O)16
_symmetry_space_group_name_H-M   'P 1'
_cell_length_a   6.78590294
_cell_length_b   14.35128938
_cell_length_c   17.91994953
_cell_angle_alpha   89.99974913
_cell_angle_beta   90.00043815
_cell_angle_gamma   89.27782062
_symmetry_Int_Tables_number   1
_chemical_formula_structural   Cd3H22(C2O)16
_chemical_formula_sum   'Cd6 H44 C64 O32'
_cell_volume   1745.02176363
_cell_formula_units_Z   2
loop_
 _symmetry_equiv_pos_site_id
 _symmetry_equiv_pos_as_xyz
  1  'x, y, z'
loop_
 _atom_site_type_symbol
 _atom_site_label
 _atom_site_symmetry_multiplicity
 _atom_site_fract_x
 _atom_site_fract_y
 _atom_site_fract_z
 _atom_site_occupancy
 _atom_site_hle17_bader_spin_density
 _atom_site_hle17_ddec_charge
 _atom_site_hle17_ddec_spin_density
 _atom_site_hle17_ddec_sum_bond_order
 _atom_site_hle17_magmom
 _atom_site_hse06_10hf_bader_spin_density
 _atom_site_hse06_10hf_ddec_charge
 _atom_site_hse06_10hf_ddec_spin_density
 _atom_site_hse06_10hf_ddec_sum_bond_order
 _atom_site_hse06_10hf_magmom
 _atom_site_hse06_bader_spin_density
 _atom_site_hse06_ddec_charge
 _atom_site_hse06_ddec_spin_density
 _atom_site_hse06_ddec_sum_bond_order
 _atom_site_hse06_magmom
 _atom_site_pbe_bader_spin_density
 _atom_site_pbe_cm5_charge
 _atom_site_pbe_ddec_charge
 _atom_site_pbe_ddec_spin_density
 _atom_site_pbe_ddec_sum_bond_order
 _atom_site_pbe_magmom
Cd  Cd0  1  0.99999866  0.00000247  0.50000009  1  0  1.281441  0  1.611422  0  0  1.122176  0  2.055167  0  0  1.176185  0  1.995535  0  0  0.779996  1.083186  0  2.096453  0
Cd  Cd1  1  0.49999680  0.99999949  0.99999962  1  0  1.281416  0  1.611521  0  0  1.122148  0  2.055288  0  0  1.176161  0  1.99565  0  0  0.779994  1.083161  0  2.096568  0
Cd  Cd2  1  0.43468732  0.14161191  0.53231272  1  0  1.258254  0  1.527414  0  0  1.084656  0  1.962371  0  0  1.146157  0  1.900861  0  0  0.775833  1.040375  0  2.004862  0
Cd  Cd3  1  0.06531178  0.85838762  0.03231398  1  0  1.258239  0  1.527361  0  0  1.084639  0  1.962322  0  0  1.146141  0  1.90081  0  0  0.77584  1.040361  0  2.004816  0
Cd  Cd4  1  0.56531149  0.85838731  0.46768647  1  0  1.25828  0  1.527355  0  0  1.084681  0  1.962308  0  0  1.146184  0  1.900798  0  0  0.77586  1.0404  0  2.004809  0
Cd  Cd5  1  0.93468851  0.14161298  0.96768856  1  0  1.258291  0  1.527339  0  0  1.084709  0  1.962282  0  0  1.14621  0  1.900772  0  0  0.775867  1.040428  0  2.004777  0
H  H6  1  0.87640155  0.98730407  0.73961548  1  0  0.113863  0  0.939148  0  0  0.121482  0  1.002482  0  0  0.126116  0  0.998105  0  0  0.105391  0.118106  0  1.00574  0
H  H7  1  0.62359094  0.01269960  0.23961262  1  0  0.113783  0  0.939176  0  0  0.121371  0  1.002559  0  0  0.126005  0  0.998181  0  0  0.105361  0.117996  0  1.005824  0
H  H8  1  0.12358844  0.01269870  0.26038594  1  0  0.113816  0  0.939168  0  0  0.121427  0  1.002517  0  0  0.126061  0  0.99814  0  0  0.105397  0.118055  0  1.005781  0
H  H9  1  0.37640196  0.98729897  0.76038824  1  0  0.113833  0  0.939171  0  0  0.121387  0  1.002571  0  0  0.126018  0  0.998192  0  0  0.105361  0.118009  0  1.00583  0
H  H10  1  0.73215984  0.79556886  0.91481476  1  0  0.109344  0  0.977892  0  0  0.113873  0  1.052795  0  0  0.11751  0  1.050176  0  0  0.102824  0.111244  0  1.054791  0
H  H11  1  0.76783024  0.20443109  0.41481611  1  0  0.109329  0  0.977876  0  0  0.113854  0  1.052788  0  0  0.117492  0  1.050166  0  0  0.102829  0.111211  0  1.054792  0
H  H12  1  0.26784190  0.20442964  0.08518443  1  0  0.109298  0  0.977938  0  0  0.113828  0  1.052837  0  0  0.117465  0  1.050219  0  0  0.102809  0.111197  0  1.054826  0
H  H13  1  0.23216708  0.79556814  0.58518642  1  0  0.109377  0  0.977887  0  0  0.113889  0  1.052796  0  0  0.117528  0  1.050174  0  0  0.102847  0.111251  0  1.054796  0
H  H14  1  0.66508762  0.71393727  0.68431304  1  0  0.122388  0  0.933084  0  0  0.130288  0  0.998605  0  0  0.134327  0  0.995227  0  0  0.111999  0.127295  0  1.001251  0
H  H15  1  0.83491555  0.28606661  0.18431430  1  0  0.122393  0  0.933136  0  0  0.130296  0  0.998628  0  0  0.134327  0  0.995255  0  0  0.111991  0.127303  0  1.001274  0
H  H16  1  0.33491123  0.28606752  0.31568671  1  0  0.122383  0  0.933096  0  0  0.13027  0  0.998615  0  0  0.134305  0  0.995242  0  0  0.112001  0.127281  0  1.001264  0
H  H17  1  0.16508325  0.71393260  0.81568656  1  0  0.122395  0  0.933213  0  0  0.130295  0  0.998701  0  0  0.134324  0  0.995327  0  0  0.112033  0.127303  0  1.001346  0
H  H18  1  0.49409849  0.69681457  0.92057632  1  0  0.069067  0  0.934989  0  0  0.081346  0  1.000517  0  0  0.081622  0  1.000157  0  0  0.103457  0.081088  0  1.000898  0
H  H19  1  0.00590396  0.30318214  0.42057879  1  0  0.069031  0  0.935047  0  0  0.081343  0  1.000593  0  0  0.081618  0  1.000236  0  0  0.103473  0.08108  0  1.000969  0
H  H20  1  0.50590914  0.30318388  0.07942120  1  0  0.06902  0  0.934973  0  0  0.081332  0  1.000514  0  0  0.081607  0  1.000153  0  0  0.103459  0.081067  0  1.000885  0
H  H21  1  0.99409042  0.69681712  0.57942152  1  0  0.069013  0  0.934991  0  0  0.081318  0  1.000535  0  0  0.081597  0  1.000177  0  0  0.103449  0.081062  0  1.000911  0
H  H22  1  0.72174315  0.63249980  0.92544564  1  0  0.059784  0  0.925896  0  0  0.073314  0  0.988657  0  0  0.073115  0  0.988867  0  0  0.100828  0.073449  0  0.988538  0
H  H23  1  0.77826483  0.36749995  0.42545092  1  0  0.059764  0  0.925852  0  0  0.073309  0  0.988656  0  0  0.07311  0  0.988865  0  0  0.100816  0.073439  0  0.988526  0
H  H24  1  0.27826894  0.36750140  0.07455243  1  0  0.059807  0  0.925825  0  0  0.073358  0  0.988614  0  0  0.073156  0  0.988823  0  0  0.10085  0.073482  0  0.988485  0
H  H25  1  0.22173398  0.63249997  0.57455218  1  0  0.059796  0  0.925819  0  0  0.073347  0  0.988599  0  0  0.073148  0  0.988815  0  0  0.100845  0.073482  0  0.988476  0
H  H26  1  0.19139343  0.62011974  0.92775627  1  0  0.104338  0  0.947776  0  0  0.113993  0  1.009866  0  0  0.117207  0  1.008276  0  0  0.103422  0.111686  0  1.011115  0
H  H27  1  0.30861950  0.37987893  0.42775825  1  0  0.104295  0  0.947677  0  0  0.1139  0  1.00983  0  0  0.117113  0  1.008241  0  0  0.103383  0.111596  0  1.011079  0
H  H28  1  0.80862158  0.37987934  0.07224180  1  0  0.104317  0  0.947666  0  0  0.113899  0  1.009836  0  0  0.117111  0  1.008251  0  0  0.103384  0.111597  0  1.011087  0
H  H29  1  0.69137782  0.62011961  0.57224429  1  0  0.104333  0  0.947685  0  0  0.113934  0  1.009831  0  0  0.117147  0  1.008245  0  0  0.103395  0.111628  0  1.011085  0
H  H30  1  0.00354049  0.47183037  0.93788742  1  0  0.092492  0  0.973809  0  0  0.100471  0  1.04172  0  0  0.103236  0  1.040213  0  0  0.101866  0.098391  0  1.043014  0
H  H31  1  0.49646825  0.52817037  0.43788943  1  0  0.092468  0  0.973947  0  0  0.100436  0  1.041872  0  0  0.103204  0  1.040369  0  0  0.101872  0.098356  0  1.043157  0
H  H32  1  0.99647013  0.52817084  0.06210953  1  0  0.092458  0  0.973884  0  0  0.100427  0  1.041821  0  0  0.103193  0  1.040323  0  0  0.101876  0.098347  0  1.043111  0
H  H33  1  0.50353054  0.47182816  0.56211255  1  0  0.092503  0  0.973904  0  0  0.100463  0  1.041839  0  0  0.103232  0  1.040333  0  0  0.10189  0.098378  0  1.043131  0
H  H34  1  0.53588511  0.31523437  0.89250442  1  0  0.096663  0  0.959291  0  0  0.108542  0  1.018232  0  0  0.111495  0  1.016265  0  0  0.103958  0.106377  0  1.019766  0
H  H35  1  0.96411481  0.68476284  0.39251025  1  0  0.096686  0  0.959312  0  0  0.108562  0  1.018244  0  0  0.111515  0  1.016277  0  0  0.103948  0.106401  0  1.019776  0
H  H36  1  0.46412252  0.68476338  0.10749253  1  0  0.096692  0  0.959308  0  0  0.108564  0  1.018247  0  0  0.111516  0  1.01628  0  0  0.103967  0.106401  0  1.019779  0
H  H37  1  0.03588546  0.31523637  0.60749061  1  0  0.096662  0  0.959329  0  0  0.108544  0  1.018259  0  0  0.111494  0  1.016294  0  0  0.103936  0.106381  0  1.019791  0
H  H38  1  0.71767331  0.46099087  0.87702336  1  0  0.100986  0  0.945901  0  0  0.112463  0  1.004043  0  0  0.115723  0  1.002312  0  0  0.105979  0.110061  0  1.005504  0
H  H39  1  0.78232777  0.53900571  0.37703084  1  0  0.100944  0  0.946034  0  0  0.112462  0  1.00412  0  0  0.115724  0  1.002382  0  0  0.105965  0.110059  0  1.005578  0
H  H40  1  0.28233579  0.53900687  0.12297359  1  0  0.100927  0  0.94612  0  0  0.112488  0  1.004151  0  0  0.115751  0  1.002411  0  0  0.105961  0.110084  0  1.005607  0
H  H41  1  0.21766956  0.46099352  0.62297169  1  0  0.100957  0  0.94603  0  0  0.112475  0  1.00412  0  0  0.115739  0  1.00238  0  0  0.10597  0.110077  0  1.005576  0
H  H42  1  0.06932565  0.11252374  0.62577120  1  0  0.439734  0  0.800661  0  0  0.422997  0  0.848548  0  0  0.43156  0  0.839701  0  0  0.327694  0.416826  0  0.855009  0
H  H43  1  0.43067387  0.88747667  0.12577120  1  0  0.439694  0  0.80069  0  0  0.422957  0  0.84858  0  0  0.431519  0  0.839735  0  0  0.327686  0.416787  0  0.855039  0
H  H44  1  0.93067612  0.88747684  0.37423134  1  0  0.439709  0  0.800706  0  0  0.422966  0  0.848603  0  0  0.43153  0  0.839752  0  0  0.327693  0.416793  0  0.855066  0
H  H45  1  0.56932937  0.11252390  0.87423022  1  0  0.439731  0  0.800652  0  0  0.422989  0  0.84855  0  0  0.431552  0  0.839702  0  0  0.327694  0.416817  0  0.855012  0
H  H46  1  0.94403843  0.17723772  0.57035480  1  0  0.450201  0  0.849863  0  0  0.414119  0  0.919742  0  0  0.427248  0  0.900926  0  0  0.29152  0.404805  0  0.93306  0
H  H47  1  0.55596390  0.82276330  0.07035560  1  0  0.450225  0  0.849825  0  0  0.414151  0  0.919689  0  0  0.42728  0  0.900874  0  0  0.291531  0.40484  0  0.933002  0
H  H48  1  0.05596186  0.82276218  0.42964717  1  0  0.45027  0  0.849752  0  0  0.414165  0  0.91968  0  0  0.427293  0  0.900865  0  0  0.29152  0.404849  0  0.933004  0
H  H49  1  0.44403638  0.17723660  0.92964526  1  0  0.450201  0  0.849871  0  0  0.414124  0  0.919739  0  0  0.427253  0  0.900924  0  0  0.29152  0.404815  0  0.933048  0
C  C50  1  0.77627240  0.85234205  0.70346703  1  0  -0.065089  0  3.77979  0  0  -0.035592  0  4.011592  0  0  -0.04542  0  4.03658  0  0  -0.018755  -0.029101  0  3.994545  0
C  C51  1  0.72372525  0.14766108  0.20346566  1  0  -0.065213  0  3.779815  0  0  -0.035744  0  4.011705  0  0  -0.045571  0  4.036688  0  0  -0.018798  -0.029247  0  3.994656  0
C  C52  1  0.22372055  0.14766209  0.29653383  1  0  -0.065148  0  3.779832  0  0  -0.035678  0  4.011674  0  0  -0.045504  0  4.036655  0  0  -0.018779  -0.029168  0  3.994606  0
C  C53  1  0.27627207  0.85233815  0.79653464  1  0  -0.065231  0  3.77974  0  0  -0.035777  0  4.011606  0  0  -0.045602  0  4.036581  0  0  -0.018816  -0.029277  0  3.99455  0
C  C54  1  0.82688794  0.91898119  0.75690297  1  0  -0.065097  0  3.691248  0  0  -0.107455  0  3.947039  0  0  -0.104877  0  3.965977  0  0  -0.081054  -0.108835  0  3.933901  0
C  C55  1  0.67310931  0.08102096  0.25690057  1  0  -0.064838  0  3.690964  0  0  -0.107149  0  3.946761  0  0  -0.104565  0  3.965682  0  0  -0.080961  -0.108538  0  3.93364  0
C  C56  1  0.17310793  0.08101945  0.24309734  1  0  -0.064928  0  3.691144  0  0  -0.10725  0  3.946949  0  0  -0.104672  0  3.965887  0  0  -0.081003  -0.108643  0  3.933823  0
C  C57  1  0.32688947  0.91897617  0.74309918  1  0  -0.064993  0  3.691131  0  0  -0.107226  0  3.946925  0  0  -0.10463  0  3.965833  0  0  -0.08099  -0.108611  0  3.933789  0
C  C58  1  0.81009929  0.89759408  0.83244672  1  0  -0.059586  0  3.801579  0  0  -0.036057  0  4.040853  0  0  -0.045706  0  4.065951  0  0  -0.026117  -0.029843  0  4.023989  0
C  C59  1  0.68989063  0.10240771  0.33244597  1  0  -0.05967  0  3.801528  0  0  -0.036131  0  4.040814  0  0  -0.045771  0  4.065893  0  0  -0.026123  -0.029913  0  4.023944  0
C  C60  1  0.18989365  0.10240797  0.16755470  1  0  -0.059575  0  3.801562  0  0  -0.036105  0  4.04093  0  0  -0.04575  0  4.066024  0  0  -0.02611  -0.02989  0  4.024069  0
C  C61  1  0.31010522  0.89759153  0.66755545  1  0  -0.059551  0  3.80161  0  0  -0.036124  0  4.040979  0  0  -0.045767  0  4.066067  0  0  -0.026105  -0.029906  0  4.024107  0
C  C62  1  0.74473492  0.80970843  0.85537653  1  0  -0.180935  0  3.694404  0  0  -0.216665  0  3.951976  0  0  -0.218313  0  3.97087  0  0  -0.098424  -0.215281  0  3.939401  0
C  C63  1  0.75525840  0.19029251  0.35537622  1  0  -0.180859  0  3.694488  0  0  -0.216593  0  3.952047  0  0  -0.218243  0  3.970945  0  0  -0.098416  -0.2152  0  3.939452  0
C  C64  1  0.25526535  0.19029077  0.14462099  1  0  -0.180905  0  3.694297  0  0  -0.216613  0  3.951902  0  0  -0.218263  0  3.970796  0  0  -0.098441  -0.215222  0  3.93931  0
C  C65  1  0.24473894  0.80970742  0.64462464  1  0  -0.181011  0  3.694493  0  0  -0.216683  0  3.95207  0  0  -0.218335  0  3.970967  0  0  -0.098473  -0.215295  0  3.939484  0
C  C66  1  0.69271990  0.74370522  0.80167497  1  0  0.265373  0  3.806551  0  0  0.261216  0  4.069571  0  0  0.269946  0  4.085411  0  0  0.08608  0.25477  0  4.058934  0
C  C67  1  0.80727530  0.25629670  0.30167681  1  0  0.265372  0  3.806617  0  0  0.261216  0  4.06959  0  0  0.269937  0  4.08544  0  0  0.086062  0.254771  0  4.058951  0
C  C68  1  0.30728187  0.25629606  0.19832534  1  0  0.265491  0  3.806531  0  0  0.261274  0  4.069582  0  0  0.270006  0  4.085421  0  0  0.086092  0.254831  0  4.058943  0
C  C69  1  0.19272055  0.74370255  0.69832517  1  0  0.265459  0  3.8065  0  0  0.261246  0  4.069519  0  0  0.269975  0  4.08536  0  0  0.0861  0.254805  0  4.058879  0
C  C70  1  0.70912741  0.76514984  0.72559047  1  0  -0.125427  0  3.650847  0  0  -0.166495  0  3.908489  0  0  -0.165279  0  3.924199  0  0  -0.077595  -0.167053  0  3.897808  0
C  C71  1  0.79087217  0.23485385  0.22559011  1  0  -0.125493  0  3.650899  0  0  -0.166543  0  3.908542  0  0  -0.165314  0  3.924241  0  0  -0.077612  -0.167104  0  3.897863  0
C  C72  1  0.29086995  0.23485218  0.27440704  1  0  -0.125536  0  3.651001  0  0  -0.166548  0  3.90863  0  0  -0.165333  0  3.924339  0  0  -0.077615  -0.167106  0  3.897939  0
C  C73  1  0.20912368  0.76514539  0.77440963  1  0  -0.125447  0  3.650795  0  0  -0.166467  0  3.90843  0  0  -0.165239  0  3.924126  0  0  -0.077618  -0.16703  0  3.897752  0
C  C74  1  0.78674743  0.87747313  0.62252816  1  0  0.674186  0  3.888009  0  0  0.620752  0  4.181512  0  0  0.657002  0  4.174413  0  0  0.214371  0.596024  0  4.185484  0
C  C75  1  0.71325746  0.12253178  0.12252741  1  0  0.674074  0  3.887991  0  0  0.620531  0  4.181679  0  0  0.656779  0  4.174587  0  0  0.214267  0.595795  0  4.185657  0
C  C76  1  0.21324405  0.12253033  0.37747159  1  0  0.67415  0  3.888005  0  0  0.620652  0  4.181623  0  0  0.656901  0  4.174527  0  0  0.214255  0.595916  0  4.185597  0
C  C77  1  0.28674282  0.87746813  0.87747290  1  0  0.674268  0  3.88782  0  0  0.620743  0  4.181469  0  0  0.656991  0  4.174376  0  0  0.214316  0.596006  0  4.185451  0
C  C78  1  0.85523632  0.97004814  0.88874146  1  0  0.650452  0  3.883793  0  0  0.600897  0  4.167665  0  0  0.636182  0  4.162166  0  0  0.203653  0.576779  0  4.170663  0
C  C79  1  0.64475471  0.02995195  0.38874027  1  0  0.650481  0  3.883746  0  0  0.600888  0  4.16767  0  0  0.636176  0  4.162167  0  0  0.203605  0.576776  0  4.170657  0
C  C80  1  0.14475956  0.02995319  0.11125884  1  0  0.650511  0  3.883703  0  0  0.600971  0  4.167581  0  0  0.636249  0  4.162088  0  0  0.203656  0.576849  0  4.170586  0
C  C81  1  0.35523964  0.97004452  0.61126003  1  0  0.650528  0  3.883632  0  0  0.600999  0  4.167478  0  0  0.63628  0  4.161982  0  0  0.203656  0.576885  0  4.170465  0
C  C82  1  0.14325696  0.29772932  0.92980030  1  0  0.637252  0  3.914636  0  0  0.587497  0  4.202141  0  0  0.62271  0  4.196555  0  0  0.201493  0.563594  0  4.204974  0
C  C83  1  0.35674572  0.70227081  0.42980129  1  0  0.637162  0  3.914732  0  0  0.587374  0  4.20229  0  0  0.622585  0  4.196708  0  0  0.201425  0.563477  0  4.205116  0
C  C84  1  0.85674775  0.70227124  0.07019833  1  0  0.63729  0  3.914796  0  0  0.587497  0  4.202342  0  0  0.62271  0  4.196756  0  0  0.201441  0.563596  0  4.205179  0
C  C85  1  0.64325456  0.29772839  0.57019846  1  0  0.637248  0  3.914764  0  0  0.587459  0  4.202311  0  0  0.622671  0  4.196726  0  0  0.201425  0.563564  0  4.205134  0
C  C86  1  0.25589712  0.38432340  0.91571880  1  0  -0.079383  0  3.79091  0  0  -0.05482  0  4.022925  0  0  -0.064866  0  4.048211  0  0  -0.021685  -0.048261  0  4.005822  0
C  C87  1  0.24410968  0.61567469  0.41572032  1  0  -0.079376  0  3.790855  0  0  -0.054831  0  4.022916  0  0  -0.064876  0  4.048201  0  0  -0.021671  -0.048278  0  4.005821  0
C  C88  1  0.74411494  0.61567502  0.08427927  1  0  -0.079516  0  3.790983  0  0  -0.054954  0  4.023033  0  0  -0.065  0  4.048317  0  0  -0.0217  -0.0484  0  4.005944  0
C  C89  1  0.75588912  0.38432383  0.58427943  1  0  -0.079463  0  3.790963  0  0  -0.054908  0  4.023011  0  0  -0.064954  0  4.048296  0  0  -0.021699  -0.04835  0  4.005911  0
C  C90  1  0.57987979  0.63901992  0.89576565  1  0  0.050668  0  3.632816  0  0  -0.01335  0  3.898911  0  0  -0.004686  0  3.902906  0  0  -0.060555  -0.019287  0  3.896096  0
C  C91  1  0.92012315  0.36097724  0.39576802  1  0  0.050751  0  3.632715  0  0  -0.013417  0  3.899022  0  0  -0.004765  0  3.903013  0  0  -0.060624  -0.019328  0  3.896168  0
C  C92  1  0.42012933  0.36097921  0.10423242  1  0  0.050718  0  3.632377  0  0  -0.013429  0  3.898709  0  0  -0.004776  0  3.902683  0  0  -0.060624  -0.019332  0  3.895844  0
C  C93  1  0.07987270  0.63902130  0.60423229  1  0  0.050754  0  3.632497  0  0  -0.013371  0  3.898795  0  0  -0.004739  0  3.902795  0  0  -0.060576  -0.019305  0  3.895974  0
C  C94  1  0.46629942  0.55031256  0.90074891  1  0  0.080096  0  3.737539  0  0  0.096661  0  3.978261  0  0  0.097577  0  4.001576  0  0  -0.00514  0.096109  0  3.962473  0
C  C95  1  0.03370264  0.44968425  0.40075318  1  0  0.07997  0  3.73757  0  0  0.09654  0  3.97835  0  0  0.097486  0  4.001626  0  0  -0.00508  0.09598  0  3.962568  0
C  C96  1  0.53370822  0.44968588  0.09924916  1  0  0.080207  0  3.737174  0  0  0.096691  0  3.978073  0  0  0.097664  0  4.001306  0  0  -0.005052  0.096123  0  3.962295  0
C  C97  1  0.96629469  0.55031498  0.59924824  1  0  0.080156  0  3.737397  0  0  0.096626  0  3.978289  0  0  0.097605  0  4.001527  0  0  -0.005088  0.096067  0  3.962516  0
C  C98  1  0.26474037  0.55313183  0.91769788  1  0  -0.106343  0  3.718548  0  0  -0.125489  0  3.965697  0  0  -0.129988  0  3.987462  0  0  -0.083036  -0.122471  0  3.950889  0
C  C99  1  0.23526498  0.44686487  0.41770107  1  0  -0.106219  0  3.718341  0  0  -0.125315  0  3.965457  0  0  -0.129822  0  3.987215  0  0  -0.083037  -0.122309  0  3.950657  0
C  C100  1  0.73527022  0.44686729  0.08229964  1  0  -0.10636  0  3.718393  0  0  -0.1254  0  3.965532  0  0  -0.129918  0  3.987284  0  0  -0.083029  -0.122386  0  3.95072  0
C  C101  1  0.76473380  0.55313226  0.58230146  1  0  -0.106333  0  3.718464  0  0  -0.125386  0  3.965596  0  0  -0.129905  0  3.987348  0  0  -0.083021  -0.122373  0  3.950781  0
C  C102  1  0.15981907  0.47083174  0.92414487  1  0  -0.066837  0  3.743292  0  0  -0.091704  0  3.991645  0  0  -0.090923  0  4.012638  0  0  -0.083979  -0.091997  0  3.977426  0
C  C103  1  0.34018345  0.52916425  0.42414642  1  0  -0.066833  0  3.743416  0  0  -0.091679  0  3.991735  0  0  -0.090906  0  4.012738  0  0  -0.083981  -0.091964  0  3.977508  0
C  C104  1  0.84018560  0.52916464  0.07585376  1  0  -0.066774  0  3.743524  0  0  -0.091637  0  3.991845  0  0  -0.090862  0  4.012848  0  0  -0.084005  -0.091924  0  3.977621  0
C  C105  1  0.65981683  0.47083496  0.57585389  1  0  -0.066835  0  3.74346  0  0  -0.09168  0  3.991766  0  0  -0.090906  0  4.01277  0  0  -0.084002  -0.091959  0  3.977535  0
C  C106  1  0.45764490  0.38151233  0.89849528  1  0  -0.057074  0  3.727976  0  0  -0.08096  0  3.973142  0  0  -0.080667  0  3.994792  0  0  -0.080616  -0.080883  0  3.958313  0
C  C107  1  0.04236007  0.61848587  0.39849954  1  0  -0.057074  0  3.72803  0  0  -0.080952  0  3.973199  0  0  -0.080662  0  3.994857  0  0  -0.080596  -0.080876  0  3.958376  0
C  C108  1  0.54236422  0.61848681  0.10150335  1  0  -0.057039  0  3.728089  0  0  -0.080917  0  3.973264  0  0  -0.080627  0  3.994923  0  0  -0.080608  -0.080841  0  3.95844  0
C  C109  1  0.95764020  0.38151264  0.60150243  1  0  -0.057098  0  3.728066  0  0  -0.080987  0  3.973239  0  0  -0.080697  0  3.9949  0  0  -0.080627  -0.08091  0  3.958414  0
C  C110  1  0.56092649  0.46402458  0.89030386  1  0  -0.097602  0  3.713002  0  0  -0.118961  0  3.961988  0  0  -0.122612  0  3.982864  0  0  -0.080899  -0.116553  0  3.947911  0
C  C111  1  0.93907632  0.53597122  0.39030902  1  0  -0.097534  0  3.713202  0  0  -0.118906  0  3.962148  0  0  -0.122566  0  3.983015  0  0  -0.08089  -0.116494  0  3.948073  0
C  C112  1  0.43908410  0.53597454  0.10969365  1  0  -0.09758  0  3.713329  0  0  -0.118963  0  3.962301  0  0  -0.122632  0  3.98316  0  0  -0.08086  -0.116549  0  3.948223  0
C  C113  1  0.06092394  0.46402659  0.60969128  1  0  -0.097548  0  3.713115  0  0  -0.118885  0  3.96208  0  0  -0.122555  0  3.982938  0  0  -0.080839  -0.116474  0  3.948004  0
O  O114  1  0.87209356  0.95359846  0.60640869  1  0  -0.66636  0  2.060068  0  0  -0.598431  0  2.321224  0  0  -0.630125  0  2.310432  0  0  -0.331268  -0.576068  0  2.327793  0
O  O115  1  0.62790658  0.04640517  0.10640739  1  0  -0.666277  0  2.060061  0  0  -0.598289  0  2.321229  0  0  -0.629986  0  2.310447  0  0  -0.331183  -0.575921  0  2.327796  0
O  O116  1  0.12790088  0.04640567  0.39359106  1  0  -0.666296  0  2.060188  0  0  -0.598338  0  2.321358  0  0  -0.63003  0  2.310567  0  0  -0.33117  -0.575973  0  2.327929  0
O  O117  1  0.37208637  0.95359758  0.89359291  1  0  -0.666339  0  2.060008  0  0  -0.598376  0  2.321202  0  0  -0.630081  0  2.310433  0  0  -0.331197  -0.576006  0  2.327769  0
O  O118  1  0.06755369  0.13571932  0.57462090  1  0  -0.86489  0  1.881943  0  0  -0.798015  0  2.094148  0  0  -0.822413  0  2.059786  0  0  -0.567099  -0.780604  0  2.117944  0
O  O119  1  0.43244775  0.86428275  0.07462043  1  0  -0.864877  0  1.881965  0  0  -0.79799  0  2.094138  0  0  -0.822396  0  2.059794  0  0  -0.567112  -0.780583  0  2.11793  0
O  O120  1  0.93244808  0.86428196  0.42538164  1  0  -0.864913  0  1.88194  0  0  -0.798005  0  2.094081  0  0  -0.822418  0  2.059754  0  0  -0.567091  -0.780596  0  2.117877  0
O  O121  1  0.56755254  0.13571854  0.92538043  1  0  -0.864898  0  1.881928  0  0  -0.798015  0  2.094119  0  0  -0.822423  0  2.059778  0  0  -0.567106  -0.780607  0  2.117909  0
O  O122  1  0.70778608  0.82202730  0.57591194  1  0  -0.658001  0  2.035809  0  0  -0.588225  0  2.296161  0  0  -0.618862  0  2.284075  0  0  -0.327218  -0.566664  0  2.303694  0
O  O123  1  0.79222669  0.17797500  0.07591234  1  0  -0.657921  0  2.035735  0  0  -0.588107  0  2.296154  0  0  -0.618744  0  2.284068  0  0  -0.327212  -0.566544  0  2.303689  0
O  O124  1  0.29221717  0.17797467  0.42408781  1  0  -0.657981  0  2.035628  0  0  -0.588175  0  2.296019  0  0  -0.618815  0  2.283935  0  0  -0.327194  -0.566621  0  2.30357  0
O  O125  1  0.20778243  0.82202413  0.92408741  1  0  -0.658023  0  2.035712  0  0  -0.588205  0  2.296105  0  0  -0.618841  0  2.284018  0  0  -0.32722  -0.566647  0  2.30365  0
O  O126  1  0.82428997  0.95338762  0.95898215  1  0  -0.748049  0  2.096457  0  0  -0.669994  0  2.36985  0  0  -0.701232  0  2.354329  0  0  -0.34739  -0.647745  0  2.379701  0
O  O127  1  0.67570688  0.04661134  0.45898100  1  0  -0.748079  0  2.096486  0  0  -0.669992  0  2.369858  0  0  -0.701237  0  2.354346  0  0  -0.347332  -0.647738  0  2.379697  0
O  O128  1  0.17570883  0.04661230  0.04101759  1  0  -0.748081  0  2.096506  0  0  -0.670004  0  2.369859  0  0  -0.701243  0  2.354347  0  0  -0.347366  -0.647748  0  2.379702  0
O  O129  1  0.32429042  0.95338580  0.54102098  1  0  -0.748006  0  2.096553  0  0  -0.669944  0  2.369912  0  0  -0.701184  0  2.354399  0  0  -0.347311  -0.647691  0  2.379749  0
O  O130  1  0.91771991  0.04856652  0.86661029  1  0  -0.604048  0  1.963015  0  0  -0.536786  0  2.195672  0  0  -0.566104  0  2.184478  0  0  -0.313269  -0.516474  0  2.202885  0
O  O131  1  0.58227217  0.95143507  0.36660960  1  0  -0.604064  0  1.962956  0  0  -0.536788  0  2.195633  0  0  -0.566106  0  2.184435  0  0  -0.313305  -0.516483  0  2.20285  0
O  O132  1  0.08227744  0.95143480  0.13339001  1  0  -0.604094  0  1.962997  0  0  -0.536831  0  2.195655  0  0  -0.566146  0  2.184462  0  0  -0.313292  -0.516522  0  2.202875  0
O  O133  1  0.41772516  0.04856485  0.63339238  1  0  -0.604166  0  1.962747  0  0  -0.536898  0  2.195393  0  0  -0.566218  0  2.184197  0  0  -0.313346  -0.516591  0  2.202606  0
O  O134  1  0.61783266  0.65836581  0.81790943  1  0  -0.275818  0  2.281604  0  0  -0.208448  0  2.509608  0  0  -0.225779  0  2.511446  0  0  -0.17867  -0.196013  0  2.507886  0
O  O135  1  0.88216434  0.34163600  0.31791231  1  0  -0.275813  0  2.281569  0  0  -0.208369  0  2.509568  0  0  -0.225695  0  2.511408  0  0  -0.178595  -0.19594  0  2.507835  0
O  O136  1  0.38217352  0.34163404  0.18208809  1  0  -0.275941  0  2.281482  0  0  -0.208466  0  2.509495  0  0  -0.225801  0  2.511332  0  0  -0.178659  -0.196041  0  2.507763  0
O  O137  1  0.11783006  0.65836534  0.68208855  1  0  -0.275912  0  2.281509  0  0  -0.208462  0  2.509523  0  0  -0.22579  0  2.511367  0  0  -0.178675  -0.196027  0  2.507796  0
O  O138  1  0.23606977  0.21910867  0.93866890  1  0  -0.678667  0  2.031822  0  0  -0.602832  0  2.265624  0  0  -0.634579  0  2.252977  0  0  -0.329105  -0.580434  0  2.273492  0
O  O139  1  0.26393750  0.78089068  0.43867213  1  0  -0.678719  0  2.031751  0  0  -0.602845  0  2.265562  0  0  -0.63459  0  2.252916  0  0  -0.32917  -0.580443  0  2.273429  0
O  O140  1  0.76393642  0.78089188  0.06133029  1  0  -0.678775  0  2.031755  0  0  -0.602922  0  2.265566  0  0  -0.634669  0  2.252917  0  0  -0.32915  -0.580523  0  2.273437  0
O  O141  1  0.73606276  0.21910713  0.56133040  1  0  -0.678719  0  2.031735  0  0  -0.602863  0  2.265556  0  0  -0.63461  0  2.252908  0  0  -0.329153  -0.580466  0  2.273422  0
O  O142  1  0.95701956  0.30110849  0.93614805  1  0  -0.616676  0  1.923206  0  0  -0.555416  0  2.152345  0  0  -0.584423  0  2.142766  0  0  -0.318517  -0.53506  0  2.158146  0
O  O143  1  0.54298571  0.69889261  0.43614812  1  0  -0.616593  0  1.923383  0  0  -0.555314  0  2.152526  0  0  -0.584322  0  2.14295  0  0  -0.318409  -0.534954  0  2.15832  0
O  O144  1  0.04298516  0.69889207  0.06385002  1  0  -0.616558  0  1.923426  0  0  -0.555289  0  2.152583  0  0  -0.584298  0  2.143009  0  0  -0.318427  -0.534925  0  2.158372  0
O  O145  1  0.45701457  0.30110729  0.56385050  1  0  -0.616607  0  1.923387  0  0  -0.555326  0  2.152532  0  0  -0.584335  0  2.142957  0  0  -0.318408  -0.534963  0  2.158321  0
