# generated using pymatgen
data_Zn4H20C16N6O13
_symmetry_space_group_name_H-M   'P 1'
_cell_length_a   10.92285767
_cell_length_b   10.93438780
_cell_length_c   10.91993633
_cell_angle_alpha   99.79803973
_cell_angle_beta   90.07736777
_cell_angle_gamma   97.80306315
_symmetry_Int_Tables_number   1
_chemical_formula_structural   Zn4H20C16N6O13
_chemical_formula_sum   'Zn4 H20 C16 N6 O13'
_cell_volume   1272.89658742
_cell_formula_units_Z   1
loop_
 _symmetry_equiv_pos_site_id
 _symmetry_equiv_pos_as_xyz
  1  'x, y, z'
loop_
 _atom_site_type_symbol
 _atom_site_label
 _atom_site_symmetry_multiplicity
 _atom_site_fract_x
 _atom_site_fract_y
 _atom_site_fract_z
 _atom_site_occupancy
 _atom_site_pbe_bader_charge
 _atom_site_pbe_bader_spin_density
 _atom_site_pbe_cm5_charge
 _atom_site_pbe_ddec_charge
 _atom_site_pbe_ddec_spin_density
 _atom_site_pbe_ddec_sum_bond_order
 _atom_site_pbe_magmom
Zn  Zn0  1  0.39365472  0.59951252  0.60628297  1  1.305871  0  0.66363  0.948125  0  2.403594  0
Zn  Zn1  1  0.61752653  0.60472865  0.41514313  1  1.307187  0  0.67352  0.969094  0  2.361692  0
Zn  Zn2  1  0.38612467  0.37088361  0.37355201  1  1.31785  0  0.669538  0.979057  0  2.331812  0
Zn  Zn3  1  0.57949892  0.40990868  0.59778705  1  1.292574  0  0.654736  0.928097  0  2.465824  0
H  H4  1  0.44343506  0.66094240  0.12515899  1  0.41669  0  0.289361  0.230419  0  0.98382  0
H  H5  1  0.96947747  0.29550603  0.35501481  1  0.407629  0  0.286673  0.276859  0  0.955918  0
H  H6  1  0.10636025  0.61667576  0.66508664  1  0.519898  0  0.310882  0.27008  0  0.984276  0
H  H7  1  0.00239456  0.73094870  0.82389762  1  0.067744  0  0.114153  0.122435  0  0.971147  0
H  H8  1  0.85864144  0.64170298  0.76878039  1  0.070573  0  0.104999  0.11569  0  0.988206  0
H  H9  1  0.92110129  0.77212197  0.69847939  1  0.066175  0  0.098735  0.101795  0  0.992063  0
H  H10  1  0.43542534  0.95155349  0.27457700  1  0.408296  0  0.286827  0.27644  0  0.956604  0
H  H11  1  0.31107609  0.94639169  0.35756989  1  0.382596  0  0.28686  0.276154  0  0.957355  0
H  H12  1  0.60242978  0.12985572  0.65337726  1  0.522359  0  0.309084  0.267278  0  0.98723  0
H  H13  1  0.68894586  0.04712108  0.81350480  1  0.046997  0  0.108545  0.112424  0  0.991405  0
H  H14  1  0.74557225  0.94417241  0.68845815  1  0.061665  0  0.099324  0.10222  0  0.992709  0
H  H15  1  0.24526627  0.50517759  0.08423132  1  0.019601  0  0.077204  0.07468  0  1.017085  0
H  H16  1  0.60318300  0.89775960  0.75967202  1  0.076971  0  0.108611  0.121589  0  0.982383  0
H  H17  1  0.23451217  0.57060116  0.94565666  1  0.047535  0  0.094052  0.105695  0  0.998058  0
H  H18  1  0.23063166  0.66770572  0.09351422  1  0.023998  0  0.094157  0.100697  0  0.987949  0
H  H19  1  0.63260559  0.38586634  0.88571086  1  0.496182  0  0.30687  0.266961  0  0.990451  0
H  H20  1  0.73387199  0.24947681  0.98383771  1  0.040028  0  0.106511  0.10917  0  0.992016  0
H  H21  1  0.64271100  0.27788763  0.11745426  1  0.057394  0  0.107362  0.117492  0  0.982559  0
H  H22  1  0.77532964  0.38683257  0.09779316  1  0.060792  0  0.098847  0.106605  0  0.985557  0
H  H23  1  0.98198235  0.41364087  0.28032858  1  0.398345  0  0.283888  0.271215  0  0.965352  0
C  C24  1  0.82620135  0.52228304  0.53291582  1  1.617834  0  0.236928  0.607524  0  4.182498  0
C  C25  1  0.47617754  0.53882742  0.96925563  1  0.463238  0  0.029489  -0.094079  0  4.063746  0
C  C26  1  0.54068252  0.46403626  0.02892964  1  0.452717  0  0.111578  0.060093  0  4.012254  0
C  C27  1  0.02838317  0.46330775  0.46414749  1  0.455682  0  0.018757  -0.055252  0  4.05955  0
C  C28  1  0.27239645  0.58934241  0.04132559  1  0.285548  0  -0.151171  -0.213848  0  4.010856  0
C  C29  1  0.69704694  0.32295187  0.04857573  1  0.291751  0  -0.129292  -0.214702  0  3.972101  0
C  C30  1  0.94451737  0.69312260  0.74043996  1  0.259384  0  -0.127858  -0.216683  0  3.967077  0
C  C31  1  0.66154645  0.97714136  0.73027018  1  0.272555  0  -0.128811  -0.216014  0  3.9655  0
C  C32  1  0.96462060  0.53407649  0.55299675  1  0.454548  0  0.122332  0.083681  0  3.988558  0
C  C33  1  0.46823776  0.02375234  0.45800145  1  0.462954  0  0.018599  -0.057097  0  4.061498  0
C  C34  1  0.52741687  0.97250639  0.54534458  1  0.450631  0  0.124205  0.08719  0  3.98436  0
C  C35  1  0.16094699  0.46590433  0.47247729  1  1.443505  0  0.196046  0.551946  0  4.235922  0
C  C36  1  0.51582377  0.83115459  0.52687515  1  1.643709  0  0.236247  0.603917  0  4.186926  0
C  C37  1  0.47161333  0.15765367  0.46647664  1  1.416559  0  0.194422  0.548064  0  4.238019  0
C  C38  1  0.52520961  0.47410240  0.16774723  1  1.608442  0  0.23621  0.59201  0  4.186279  0
C  C39  1  0.48197996  0.53427431  0.83586440  1  1.43495  0  0.199437  0.563939  0  4.208233  0
N  N40  1  0.40600923  0.62567072  0.03894576  1  -1.120594  0  -0.482164  -0.322374  0  3.564174  0
N  N41  1  0.62049293  0.38640845  0.97854459  1  -1.218747  0  -0.426398  -0.22922  0  3.630954  0
N  N42  1  0.95539422  0.38691679  0.36263566  1  -1.138858  0  -0.622978  -0.618205  0  3.312199  0
N  N43  1  0.01239279  0.61093524  0.65635852  1  -1.261112  0  -0.418875  -0.221793  0  3.622982  0
N  N44  1  0.40256462  0.93603941  0.35893652  1  -1.122013  0  -0.62113  -0.613283  0  3.308267  0
N  N45  1  0.59422325  0.03459213  0.64593709  1  -1.252756  0  -0.419672  -0.219778  0  3.620934  0
O  O46  1  0.49352146  0.49790814  0.49135710  1  -1.236329  0  -0.573056  -1.016486  0  2.537919  0
O  O47  1  0.60238061  0.55779857  0.23354534  1  -1.162878  0  -0.310105  -0.536123  0  2.312348  0
O  O48  1  0.55304693  0.45944163  0.77495000  1  -1.194428  0  -0.33678  -0.588351  0  2.411989  0
O  O49  1  0.44029694  0.39850719  0.20370772  1  -1.162647  0  -0.298597  -0.522902  0  2.312713  0
O  O50  1  0.41752659  0.60203893  0.78379256  1  -1.174283  0  -0.329368  -0.549583  0  2.355698  0
O  O51  1  0.42785424  0.77674032  0.58197287  1  -1.167942  0  -0.30728  -0.534596  0  2.323963  0
O  O52  1  0.53448550  0.22952461  0.55949487  1  -1.185987  0  -0.335427  -0.574415  0  2.411794  0
O  O53  1  0.78843987  0.59666115  0.46834641  1  -1.161825  0  -0.309517  -0.538078  0  2.32093  0
O  O54  1  0.21331321  0.39806920  0.38510484  1  -1.177656  0  -0.338171  -0.571177  0  2.343339  0
O  O55  1  0.76198210  0.44359364  0.58816505  1  -1.160392  0  -0.311336  -0.538971  0  2.33125  0
O  O56  1  0.21961468  0.53628515  0.56872309  1  -1.189405  0  -0.333875  -0.577256  0  2.401127  0
O  O57  1  0.60065827  0.78304465  0.46408919  1  -1.164327  0  -0.30933  -0.536781  0  2.323931  0
O  O58  1  0.41280194  0.19898558  0.38314688  1  -1.176782  0  -0.337428  -0.571584  0  2.338025  0
