# generated using pymatgen
data_Cd2H7C10N5O7
_symmetry_space_group_name_H-M   'P 1'
_cell_length_a   6.87487132
_cell_length_b   10.46388569
_cell_length_c   11.44260694
_cell_angle_alpha   68.69124891
_cell_angle_beta   75.09077137
_cell_angle_gamma   70.03239413
_symmetry_Int_Tables_number   1
_chemical_formula_structural   Cd2H7C10N5O7
_chemical_formula_sum   'Cd4 H14 C20 N10 O14'
_cell_volume   712.39426104
_cell_formula_units_Z   2
loop_
 _symmetry_equiv_pos_site_id
 _symmetry_equiv_pos_as_xyz
  1  'x, y, z'
loop_
 _atom_site_type_symbol
 _atom_site_label
 _atom_site_symmetry_multiplicity
 _atom_site_fract_x
 _atom_site_fract_y
 _atom_site_fract_z
 _atom_site_occupancy
 _atom_site_hle17_bader_spin_density
 _atom_site_hle17_ddec_charge
 _atom_site_hle17_ddec_spin_density
 _atom_site_hle17_ddec_sum_bond_order
 _atom_site_hle17_magmom
 _atom_site_hse06_10hf_bader_spin_density
 _atom_site_hse06_10hf_ddec_charge
 _atom_site_hse06_10hf_ddec_spin_density
 _atom_site_hse06_10hf_ddec_sum_bond_order
 _atom_site_hse06_10hf_magmom
 _atom_site_hse06_bader_spin_density
 _atom_site_hse06_ddec_charge
 _atom_site_hse06_ddec_spin_density
 _atom_site_hse06_ddec_sum_bond_order
 _atom_site_hse06_magmom
 _atom_site_pbe_bader_spin_density
 _atom_site_pbe_cm5_charge
 _atom_site_pbe_ddec_charge
 _atom_site_pbe_ddec_spin_density
 _atom_site_pbe_ddec_sum_bond_order
 _atom_site_pbe_magmom
Cd  Cd0  1  0.11560364  0.42727364  0.36630944  1  0  1.18184  0  1.620622  0  0  0.994054  0  2.062659  0  0  1.052069  0  2.009067  0  0  0.79267  0.948419  0  2.101995  0
Cd  Cd1  1  0.88439439  0.57272540  0.63369142  1  0  1.181868  0  1.620577  0  0  0.99406  0  2.062653  0  0  1.052088  0  2.009034  0  0  0.792699  0.948439  0  2.101994  0
Cd  Cd2  1  0.36120282  0.68112618  0.07735003  1  0  1.239852  0  1.651969  0  0  1.046245  0  2.125525  0  0  1.100402  0  2.06708  0  0  0.810817  1.005854  0  2.166177  0
Cd  Cd3  1  0.63879404  0.31887183  0.92265221  1  0  1.239785  0  1.65212  0  0  1.046199  0  2.125699  0  0  1.100362  0  2.067246  0  0  0.810789  1.005827  0  2.166344  0
H  H4  1  0.22768737  0.01212019  0.04626241  1  0  0.409871  0  0.893679  0  0  0.373361  0  0.966011  0  0  0.383615  0  0.951308  0  0  0.284382  0.366057  0  0.976456  0
H  H5  1  0.77231834  0.98787443  0.95373707  1  0  0.409844  0  0.893694  0  0  0.373323  0  0.966055  0  0  0.383578  0  0.95135  0  0  0.284372  0.366022  0  0.976499  0
H  H6  1  0.24170631  0.98077825  0.91852794  1  0  0.425977  0  0.821649  0  0  0.409849  0  0.873298  0  0  0.41781  0  0.864243  0  0  0.319182  0.404011  0  0.880071  0
H  H7  1  0.75829103  0.01922291  0.08147055  1  0  0.425984  0  0.821571  0  0  0.409851  0  0.873233  0  0  0.417814  0  0.864174  0  0  0.319164  0.404012  0  0.879988  0
H  H8  1  0.68719704  0.03009344  0.33467155  1  0  0.107454  0  0.934074  0  0  0.11614  0  0.996814  0  0  0.12058  0  0.992667  0  0  0.107542  0.113051  0  0.99957  0
H  H9  1  0.31280578  0.96990447  0.66533250  1  0  0.107419  0  0.934035  0  0  0.116116  0  0.996781  0  0  0.120538  0  0.992657  0  0  0.107554  0.113031  0  0.999552  0
H  H10  1  0.79250720  0.04755093  0.68213898  1  0  0.107476  0  0.942982  0  0  0.116424  0  1.007112  0  0  0.120451  0  1.003555  0  0  0.108093  0.113741  0  1.009592  0
H  H11  1  0.20749332  0.95245337  0.31786326  1  0  0.107444  0  0.943044  0  0  0.116407  0  1.007161  0  0  0.120433  0  1.003607  0  0  0.108062  0.11372  0  1.00963  0
H  H12  1  0.61009376  0.43544833  0.38151080  1  0  0.100885  0  0.993555  0  0  0.101156  0  1.073769  0  0  0.104649  0  1.070766  0  0  0.10396  0.098655  0  1.07576  0
H  H13  1  0.38991006  0.56455161  0.61848631  1  0  0.100899  0  0.993539  0  0  0.101183  0  1.073715  0  0  0.10468  0  1.070711  0  0  0.103973  0.098673  0  1.075746  0
H  H14  1  0.81151586  0.81851912  0.83767195  1  0  0.352468  0  0.891773  0  0  0.335297  0  0.953546  0  0  0.343325  0  0.946229  0  0  0.300785  0.329447  0  0.958852  0
H  H15  1  0.18848444  0.18148199  0.16232789  1  0  0.352448  0  0.891763  0  0  0.335307  0  0.953522  0  0  0.343332  0  0.946208  0  0  0.300768  0.329455  0  0.958822  0
H  H16  1  0.03672506  0.81853429  0.86934146  1  0  0.327238  0  0.91491  0  0  0.310382  0  0.978984  0  0  0.317466  0  0.973439  0  0  0.297762  0.305222  0  0.983039  0
H  H17  1  0.96327681  0.18146255  0.13065871  1  0  0.327265  0  0.914745  0  0  0.310462  0  0.978761  0  0  0.317545  0  0.973213  0  0  0.297784  0.3053  0  0.982809  0
C  C18  1  0.63375739  0.24199423  0.34617388  1  0  -0.08603  0  3.768741  0  0  -0.058226  0  4.008207  0  0  -0.068817  0  4.030571  0  0  -0.021851  -0.051367  0  3.992643  0
C  C19  1  0.36624516  0.75800472  0.65382724  1  0  -0.086205  0  3.768747  0  0  -0.058444  0  4.008256  0  0  -0.069025  0  4.030609  0  0  -0.021861  -0.051587  0  3.99271  0
C  C20  1  0.68930364  0.09303109  0.39176353  1  0  -0.039473  0  3.662019  0  0  -0.081959  0  3.91739  0  0  -0.07658  0  3.932698  0  0  -0.070985  -0.084554  0  3.906223  0
C  C21  1  0.31069746  0.90696788  0.60823604  1  0  -0.039345  0  3.662147  0  0  -0.081834  0  3.917524  0  0  -0.076443  0  3.932837  0  0  -0.070953  -0.084439  0  3.906391  0
C  C22  1  0.73976553  0.02259824  0.51436142  1  0  -0.068515  0  3.761485  0  0  -0.041667  0  4.001411  0  0  -0.052252  0  4.025192  0  0  -0.016178  -0.035276  0  3.986307  0
C  C23  1  0.26023327  0.97740191  0.48564769  1  0  -0.068601  0  3.76149  0  0  -0.041752  0  4.001414  0  0  -0.052334  0  4.025194  0  0  -0.016253  -0.035367  0  3.986313  0
C  C24  1  0.74759794  0.10133235  0.58804683  1  0  -0.030096  0  3.64792  0  0  -0.070372  0  3.895318  0  0  -0.064816  0  3.91047  0  0  -0.064212  -0.074631  0  3.88646  0
C  C25  1  0.25240090  0.89867301  0.41195005  1  0  -0.030077  0  3.647733  0  0  -0.070356  0  3.895118  0  0  -0.064814  0  3.910282  0  0  -0.064189  -0.074615  0  3.886233  0
C  C26  1  0.70941175  0.24933246  0.53847670  1  0  -0.066937  0  3.74303  0  0  -0.038461  0  3.976312  0  0  -0.048947  0  3.99839  0  0  -0.016344  -0.031857  0  3.961965  0
C  C27  1  0.29059413  0.75066960  0.46152465  1  0  -0.066982  0  3.742952  0  0  -0.038523  0  3.976275  0  0  -0.048998  0  3.998356  0  0  -0.016386  -0.031912  0  3.961906  0
C  C28  1  0.64454390  0.32009342  0.41966983  1  0  -0.058765  0  3.695447  0  0  -0.099805  0  3.95106  0  0  -0.095594  0  3.96872  0  0  -0.077048  -0.101151  0  3.937977  0
C  C29  1  0.35545810  0.67990762  0.58032543  1  0  -0.058668  0  3.695444  0  0  -0.099678  0  3.95102  0  0  -0.095469  0  3.968664  0  0  -0.077033  -0.101036  0  3.937955  0
C  C30  1  0.56816396  0.31731229  0.21787906  1  0  0.701131  0  3.86256  0  0  0.640223  0  4.162826  0  0  0.677376  0  4.152869  0  0  0.220341  0.614376  0  4.169264  0
C  C31  1  0.43183139  0.68268576  0.78212337  1  0  0.701318  0  3.862355  0  0  0.640474  0  4.162502  0  0  0.677623  0  4.152541  0  0  0.220372  0.614639  0  4.168939  0
C  C32  1  0.78993693  0.86379609  0.56408958  1  0  0.621461  0  3.958833  0  0  0.572756  0  4.246652  0  0  0.605486  0  4.246108  0  0  0.190839  0.550193  0  4.246266  0
C  C33  1  0.21005271  0.13620527  0.43591256  1  0  0.621295  0  3.958887  0  0  0.572608  0  4.246707  0  0  0.60534  0  4.246163  0  0  0.190754  0.550056  0  4.246307  0
C  C34  1  0.75255476  0.32937644  0.60933748  1  0  0.693442  0  3.862338  0  0  0.637117  0  4.153997  0  0  0.674059  0  4.145066  0  0  0.217279  0.611698  0  4.159313  0
C  C35  1  0.24745257  0.67063602  0.39064272  1  0  0.693632  0  3.862523  0  0  0.637265  0  4.154223  0  0  0.674207  0  4.145297  0  0  0.217348  0.611856  0  4.159515  0
C  C36  1  0.86987119  0.71729777  0.02046316  1  0  0.561749  0  3.79321  0  0  0.514838  0  4.074736  0  0  0.535945  0  4.086361  0  0  0.328178  0.500298  0  4.066867  0
C  C37  1  0.13012986  0.28269698  0.97953957  1  0  0.561747  0  3.793213  0  0  0.514907  0  4.074679  0  0  0.53601  0  4.086304  0  0  0.328173  0.50037  0  4.066806  0
N  N38  1  0.01872175  0.66255937  0.09609548  1  0  -0.404932  0  3.071934  0  0  -0.351467  0  3.353288  0  0  -0.371027  0  3.367644  0  0  -0.246895  -0.338296  0  3.343201  0
N  N39  1  0.98127829  0.33743855  0.90390284  1  0  -0.404928  0  3.071793  0  0  -0.351472  0  3.353105  0  0  -0.371029  0  3.367461  0  0  -0.246888  -0.338289  0  3.343011  0
N  N40  1  0.94140538  0.57173810  0.20153065  1  0  -0.117021  0  3.263479  0  0  -0.062425  0  3.561248  0  0  -0.072157  0  3.577387  0  0  -0.117314  -0.055112  0  3.549793  0
N  N41  1  0.05859420  0.42826090  0.79846912  1  0  -0.11703  0  3.263593  0  0  -0.062428  0  3.56137  0  0  -0.072163  0  3.577512  0  0  -0.117302  -0.055115  0  3.549927  0
N  N42  1  0.75835514  0.56933610  0.19237029  1  0  -0.034554  0  3.019528  0  0  -0.032098  0  3.303799  0  0  -0.028689  0  3.319559  0  0  -0.085877  -0.034574  0  3.293252  0
N  N43  1  0.24164251  0.43066401  0.80763026  1  0  -0.034542  0  3.019726  0  0  -0.032096  0  3.304005  0  0  -0.028686  0  3.319767  0  0  -0.085878  -0.034563  0  3.293468  0
N  N44  1  0.70703485  0.66035083  0.07921495  1  0  -0.413215  0  3.056608  0  0  -0.348139  0  3.347915  0  0  -0.370239  0  3.359435  0  0  -0.243257  -0.333213  0  3.340254  0
N  N45  1  0.29296396  0.33965030  0.92078422  1  0  -0.413255  0  3.056735  0  0  -0.348183  0  3.348014  0  0  -0.370283  0  3.359538  0  0  -0.243265  -0.33325  0  3.340349  0
N  N46  1  0.88194182  0.82196873  0.90561383  1  0  -0.705425  0  3.026963  0  0  -0.658851  0  3.247745  0  0  -0.678726  0  3.240318  0  0  -0.575484  -0.644792  0  3.252934  0
N  N47  1  0.11805904  0.17803127  0.09438193  1  0  -0.705436  0  3.026896  0  0  -0.659018  0  3.247715  0  0  -0.678882  0  3.240278  0  0  -0.575491  -0.644948  0  3.252887  0
O  O48  1  0.27673534  0.93603397  0.00389586  1  0  -0.829259  0  1.869771  0  0  -0.772164  0  2.063619  0  0  -0.791165  0  2.033259  0  0  -0.58836  -0.758816  0  2.085236  0
O  O49  1  0.72327167  0.06396588  0.99609733  1  0  -0.829277  0  1.869741  0  0  -0.772203  0  2.063584  0  0  -0.791202  0  2.03322  0  0  -0.588371  -0.758856  0  2.08518  0
O  O50  1  0.42008190  0.43338778  0.20174019  1  0  -0.70698  0  2.113412  0  0  -0.635079  0  2.401356  0  0  -0.665346  0  2.383774  0  0  -0.333351  -0.613247  0  2.412983  0
O  O51  1  0.57991832  0.56660164  0.79825744  1  0  -0.707005  0  2.113108  0  0  -0.635184  0  2.401134  0  0  -0.665457  0  2.383558  0  0  -0.333353  -0.613352  0  2.412757  0
O  O52  1  0.66602071  0.25856254  0.13167836  1  0  -0.657014  0  2.071546  0  0  -0.582931  0  2.328862  0  0  -0.61255  0  2.315927  0  0  -0.316376  -0.561598  0  2.337029  0
O  O53  1  0.33398430  0.74142575  0.86832246  1  0  -0.657126  0  2.071809  0  0  -0.58301  0  2.329057  0  0  -0.612622  0  2.31611  0  0  -0.316389  -0.561674  0  2.337208  0
O  O54  1  0.80195656  0.79521607  0.48884863  1  0  -0.629344  0  1.974359  0  0  -0.562453  0  2.205675  0  0  -0.593786  0  2.201194  0  0  -0.327084  -0.538933  0  2.208414  0
O  O55  1  0.19804403  0.20478300  0.51116322  1  0  -0.62929  0  1.974096  0  0  -0.562401  0  2.205398  0  0  -0.593733  0  2.200917  0  0  -0.327066  -0.538899  0  2.208173  0
O  O56  1  0.81942036  0.79996286  0.67935241  1  0  -0.656451  0  1.980889  0  0  -0.594925  0  2.216044  0  0  -0.624201  0  2.210661  0  0  -0.327133  -0.573256  0  2.218541  0
O  O57  1  0.18054755  0.20003907  0.32066399  1  0  -0.656297  0  1.981138  0  0  -0.594809  0  2.216309  0  0  -0.624078  0  2.210924  0  0  -0.327055  -0.573143  0  2.218799  0
O  O58  1  0.73949782  0.27972616  0.72797608  1  0  -0.642053  0  2.035791  0  0  -0.580861  0  2.297659  0  0  -0.608524  0  2.283591  0  0  -0.324174  -0.559759  0  2.305506  0
O  O59  1  0.26050702  0.72028233  0.27202940  1  0  -0.641973  0  2.036427  0  0  -0.5808  0  2.298387  0  0  -0.60843  0  2.284261  0  0  -0.32411  -0.559704  0  2.306204  0
O  O60  1  0.80675174  0.44478504  0.54027342  1  0  -0.684731  0  2.065635  0  0  -0.595877  0  2.329774  0  0  -0.629758  0  2.316104  0  0  -0.329892  -0.570526  0  2.33903  0
O  O61  1  0.19325070  0.55521914  0.45971898  1  0  -0.684963  0  2.065538  0  0  -0.596052  0  2.329648  0  0  -0.629961  0  2.315994  0  0  -0.329986  -0.570714  0  2.338904  0
