# generated using pymatgen
data_ZnH6(C3N2)2
_symmetry_space_group_name_H-M   'P 1'
_cell_length_a   16.23427775
_cell_length_b   16.23431707
_cell_length_c   16.23426504
_cell_angle_alpha   69.26303907
_cell_angle_beta   69.26304204
_cell_angle_gamma   106.96897463
_symmetry_Int_Tables_number   1
_chemical_formula_structural   ZnH6(C3N2)2
_chemical_formula_sum   'Zn8 H48 C48 N32'
_cell_volume   3288.94059731
_cell_formula_units_Z   8
loop_
 _symmetry_equiv_pos_site_id
 _symmetry_equiv_pos_as_xyz
  1  'x, y, z'
loop_
 _atom_site_type_symbol
 _atom_site_label
 _atom_site_symmetry_multiplicity
 _atom_site_fract_x
 _atom_site_fract_y
 _atom_site_fract_z
 _atom_site_occupancy
 _atom_site_pbe_bader_charge
 _atom_site_pbe_bader_spin_density
 _atom_site_pbe_cm5_charge
 _atom_site_pbe_ddec_charge
 _atom_site_pbe_ddec_spin_density
 _atom_site_pbe_ddec_sum_bond_order
 _atom_site_pbe_magmom
Zn  Zn0  1  0.27717707  0.47419623  0.43303356  1  1.187416  0  0.715252  0.621359  0  2.582142  0
Zn  Zn1  1  0.97419683  0.40722728  0.30298339  1  1.18563  0  0.715266  0.621394  0  2.582077  0
Zn  Zn2  1  0.71021254  0.77718033  0.19701789  1  1.185099  0  0.715276  0.621394  0  2.58216  0
Zn  Zn3  1  0.90722948  0.21021246  0.06696747  1  1.185939  0  0.715224  0.621316  0  2.582169  0
Zn  Zn4  1  0.72282328  0.52580456  0.56696606  1  1.18742  0  0.715238  0.621348  0  2.582116  0
Zn  Zn5  1  0.02580348  0.59277194  0.69701640  1  1.185618  0  0.715269  0.621374  0  2.582138  0
Zn  Zn6  1  0.28978758  0.22281946  0.80298235  1  1.185119  0  0.715277  0.621401  0  2.58213  0
Zn  Zn7  1  0.09277044  0.78978715  0.93303233  1  1.185887  0  0.715242  0.621348  0  2.582131  0
H  H8  1  0.08875704  0.47405269  0.41412358  1  0.10255  0  0.122828  0.080964  0  1.007045  0
H  H9  1  0.97405605  0.38817710  0.11470290  1  0.105876  0  0.122783  0.0809  0  1.007044  0
H  H10  1  0.50287904  0.58875716  0.38529697  1  0.106393  0  0.122813  0.080892  0  1.007075  0
H  H11  1  0.88817776  0.00288211  0.08587634  1  0.10919  0  0.122821  0.080947  0  1.00702  0
H  H12  1  0.91124307  0.52594711  0.58587667  1  0.102547  0  0.122822  0.080965  0  1.00707  0
H  H13  1  0.02594387  0.61182250  0.88529689  1  0.105874  0  0.122795  0.080914  0  1.007008  0
H  H14  1  0.49712088  0.41124244  0.61470282  1  0.106391  0  0.122795  0.08091  0  1.00703  0
H  H15  1  0.11182296  0.99711830  0.91412329  1  0.109204  0  0.1228  0.080909  0  1.007047  0
H  H16  1  0.26472715  0.34347341  0.31943326  1  0.070763  0  0.110569  0.101789  0  1.015213  0
H  H17  1  0.84347080  0.16290563  0.42125690  1  0.05058  0  0.110564  0.10178  0  1.015232  0
H  H18  1  0.58416346  0.76472995  0.07874279  1  0.097928  0  0.110579  0.101819  0  1.015241  0
H  H19  1  0.66290447  0.08415729  0.18056971  1  0.073194  0  0.110558  0.101797  0  1.015231  0
H  H20  1  0.73527239  0.65652657  0.68056653  1  0.070753  0  0.110568  0.101795  0  1.015198  0
H  H21  1  0.15652851  0.83709335  0.57874351  1  0.050576  0  0.110546  0.10176  0  1.015255  0
H  H22  1  0.41583588  0.23527061  0.92125745  1  0.097928  0  0.110574  0.101796  0  1.015235  0
H  H23  1  0.33709484  0.91584170  0.81943070  1  0.073189  0  0.110563  0.101805  0  1.015231  0
H  H24  1  0.11605167  0.30463285  0.27021467  1  0.071582  0  0.110754  0.104423  0  1.016074  0
H  H25  1  0.80463011  0.07484626  0.31142242  1  0.100465  0  0.11077  0.104419  0  1.016004  0
H  H26  1  0.38626753  0.61605276  0.18857945  1  0.095365  0  0.110735  0.104363  0  1.016021  0
H  H27  1  0.57484620  0.88626363  0.22978545  1  0.066648  0  0.11075  0.104418  0  1.016015  0
H  H28  1  0.88394806  0.69536733  0.72978557  1  0.071651  0  0.110783  0.104473  0  1.016026  0
H  H29  1  0.19536901  0.92515330  0.68857844  1  0.100486  0  0.110748  0.104376  0  1.016062  0
H  H30  1  0.61373182  0.38394780  0.81142080  1  0.095412  0  0.110762  0.10439  0  1.01604  0
H  H31  1  0.42515410  0.11373559  0.77021434  1  0.066793  0  0.110755  0.104425  0  1.016037  0
H  H32  1  0.09591057  0.44226217  0.63867489  1  0.101785  0  0.122893  0.07803  0  1.008773  0
H  H33  1  0.94226227  0.58093433  0.15365148  1  0.078338  0  0.122864  0.077986  0  1.008772  0
H  H34  1  0.73458585  0.59591432  0.34634853  1  0.090138  0  0.122864  0.077984  0  1.00879  0
H  H35  1  0.08093528  0.23458514  0.86132742  1  0.10006  0  0.122857  0.077983  0  1.008782  0
H  H36  1  0.90408916  0.55773800  0.36132536  1  0.10179  0  0.122895  0.078036  0  1.00877  0
H  H37  1  0.05773746  0.41906509  0.84634786  1  0.078291  0  0.122873  0.077995  0  1.008766  0
H  H38  1  0.26541383  0.40408504  0.65365278  1  0.090115  0  0.122855  0.077963  0  1.008814  0
H  H39  1  0.91906483  0.76541465  0.13867282  1  0.100453  0  0.122859  0.077976  0  1.008777  0
H  H40  1  0.33077160  0.70005998  0.35674448  1  0.095546  0  0.110447  0.105578  0  1.02072  0
H  H41  1  0.20006181  0.55680782  0.13070703  1  0.091473  0  0.110422  0.105507  0  1.02076  0
H  H42  1  0.68751648  0.83077043  0.36929194  1  0.086352  0  0.110426  0.105503  0  1.020756  0
H  H43  1  0.05680656  0.18751665  0.14325423  1  0.089987  0  0.110444  0.105542  0  1.020724  0
H  H44  1  0.66922852  0.29993981  0.64325576  1  0.095543  0  0.110421  0.105535  0  1.020741  0
H  H45  1  0.79993792  0.44319236  0.86929321  1  0.091461  0  0.110419  0.105504  0  1.020782  0
H  H46  1  0.31248410  0.16923136  0.63070707  1  0.0863  0  0.110444  0.105552  0  1.020749  0
H  H47  1  0.94319355  0.81248315  0.85674601  1  0.08998  0  0.110454  0.10557  0  1.020751  0
H  H48  1  0.21741317  0.75614592  0.47666879  1  0.094511  0  0.110998  0.101619  0  1.017935  0
H  H49  1  0.25614572  0.73281902  0.96126402  1  0.091903  0  0.111021  0.101627  0  1.017919  0
H  H50  1  0.69408369  0.71740955  0.53873467  1  0.09063  0  0.111029  0.101655  0  1.017894  0
H  H51  1  0.23281581  0.19408095  0.02332932  1  0.074504  0  0.111005  0.1016  0  1.017924  0
H  H52  1  0.78258637  0.24385407  0.52333100  1  0.094498  0  0.110997  0.101593  0  1.01795  0
H  H53  1  0.74385439  0.26718077  0.03873623  1  0.09182  0  0.111019  0.101635  0  1.017916  0
H  H54  1  0.30591665  0.28259124  0.46126496  1  0.09064  0  0.111028  0.10164  0  1.017901  0
H  H55  1  0.76718430  0.80591884  0.97667092  1  0.07458  0  0.111012  0.101633  0  1.017901  0
C  C56  1  0.11631949  0.43295553  0.38166790  1  0.96433  0  0.112168  0.128729  0  4.020286  0
C  C57  1  0.93295690  0.31462338  0.18336363  1  0.961716  0  0.112159  0.128701  0  4.020327  0
C  C58  1  0.49798692  0.61632024  0.31663569  1  0.963065  0  0.112195  0.128839  0  4.020303  0
C  C59  1  0.81462356  0.99798759  0.11833301  1  0.958073  0  0.112153  0.128744  0  4.020196  0
C  C60  1  0.88368062  0.56704426  0.61833234  1  0.964448  0  0.112168  0.128676  0  4.020313  0
C  C61  1  0.06704264  0.68537661  0.81663616  1  0.961731  0  0.112153  0.128694  0  4.020279  0
C  C62  1  0.50201281  0.38367994  0.68336455  1  0.963071  0  0.112146  0.128678  0  4.020376  0
C  C63  1  0.18537698  0.00201263  0.88166616  1  0.958093  0  0.112154  0.128733  0  4.020278  0
C  C64  1  0.20595510  0.36477762  0.33240379  1  0.342492  0  -0.026287  -0.070078  0  4.061031  0
C  C65  1  0.86477565  0.19718065  0.34117883  1  0.406591  0  -0.026264  -0.070101  0  4.061135  0
C  C66  1  0.53836002  0.70595551  0.15882121  1  0.36632  0  -0.026302  -0.070182  0  4.061199  0
C  C67  1  0.69717925  0.03835727  0.16759707  1  0.32653  0  -0.026261  -0.070088  0  4.061038  0
C  C68  1  0.79404463  0.63522256  0.66759646  1  0.342657  0  -0.026293  -0.070069  0  4.061002  0
C  C69  1  0.13522427  0.80281896  0.65882096  1  0.406579  0  -0.026249  -0.070054  0  4.061169  0
C  C70  1  0.46163932  0.29404504  0.84117903  1  0.365992  0  -0.026271  -0.070103  0  4.061217  0
C  C71  1  0.30281967  0.96164210  0.83240334  1  0.326546  0  -0.026261  -0.07008  0  4.061045  0
C  C72  1  0.13259189  0.34586242  0.30729497  1  0.399072  0  -0.025353  -0.067908  0  4.054882  0
C  C73  1  0.84586100  0.15315732  0.28673188  1  0.323884  0  -0.025344  -0.06788  0  4.054879  0
C  C74  1  0.43988960  0.63259341  0.21326897  1  0.328985  0  -0.025299  -0.067774  0  4.054865  0
C  C75  1  0.65315576  0.93988487  0.19270552  1  0.433358  0  -0.025389  -0.067959  0  4.054803  0
C  C76  1  0.86740784  0.65413775  0.69270527  1  0.398993  0  -0.025385  -0.068019  0  4.054894  0
C  C77  1  0.15413892  0.84684228  0.71326791  1  0.323885  0  -0.025314  -0.067855  0  4.054917  0
C  C78  1  0.56010952  0.36740615  0.78673190  1  0.328939  0  -0.025308  -0.067826  0  4.054946  0
C  C79  1  0.34684416  0.06011473  0.80729427  1  0.433209  0  -0.025358  -0.067964  0  4.054826  0
C  C80  1  0.14469947  0.52027594  0.57806918  1  0.956782  0  0.109933  0.122154  0  4.030676  0
C  C81  1  0.02027627  0.59834369  0.12442498  1  0.984528  0  0.109959  0.122241  0  4.0306  0
C  C82  1  0.72276662  0.64470026  0.37557657  1  0.965212  0  0.109977  0.122253  0  4.030641  0
C  C83  1  0.09834402  0.22276767  0.92193226  1  0.949723  0  0.109952  0.122232  0  4.030658  0
C  C84  1  0.85530065  0.47972385  0.42193107  1  0.956785  0  0.109925  0.122161  0  4.030719  0
C  C85  1  0.97972365  0.40165591  0.87557481  1  0.984363  0  0.109951  0.122232  0  4.03059  0
C  C86  1  0.27723330  0.35530011  0.62442413  1  0.965139  0  0.109971  0.122263  0  4.0306  0
C  C87  1  0.90165591  0.77723193  0.07806753  1  0.94935  0  0.109975  0.122276  0  4.030615  0
C  C88  1  0.26517259  0.65473634  0.43325942  1  0.332872  0  -0.025018  -0.066066  0  4.040603  0
C  C89  1  0.15473728  0.58799707  0.11043530  1  0.384243  0  -0.024979  -0.065935  0  4.04066  0
C  C90  1  0.69843472  0.76517401  0.38956382  1  0.320467  0  -0.024961  -0.065877  0  4.040605  0
C  C91  1  0.08799691  0.19843229  0.06673977  1  0.332016  0  -0.024993  -0.065986  0  4.040615  0
C  C92  1  0.73482752  0.34526346  0.56674082  1  0.332868  0  -0.024979  -0.06599  0  4.04062  0
C  C93  1  0.84526164  0.41200230  0.88956510  1  0.384239  0  -0.024961  -0.065889  0  4.040656  0
C  C94  1  0.30156804  0.23482843  0.61043441  1  0.320603  0  -0.024984  -0.06596  0  4.040669  0
C  C95  1  0.91200363  0.80156792  0.93325941  1  0.332016  0  -0.024984  -0.065971  0  4.040569  0
C  C96  1  0.20872642  0.68238885  0.49276485  1  0.357214  0  -0.0241  -0.060573  0  4.046506  0
C  C97  1  0.18238956  0.67515592  0.02633603  1  0.313991  0  -0.024089  -0.060545  0  4.046506  0
C  C98  1  0.70149483  0.70872687  0.47366174  1  0.375015  0  -0.024104  -0.060621  0  4.046515  0
C  C99  1  0.17515323  0.20149002  0.00723484  1  0.379317  0  -0.024074  -0.060468  0  4.046488  0
C  C100  1  0.79127351  0.31761075  0.50723494  1  0.357213  0  -0.024074  -0.060496  0  4.046556  0
C  C101  1  0.81761036  0.32484368  0.97366376  1  0.314069  0  -0.024102  -0.0606  0  4.046555  0
C  C102  1  0.29850756  0.29127596  0.52633649  1  0.374975  0  -0.024084  -0.060541  0  4.046436  0
C  C103  1  0.82484650  0.79851015  0.99276540  1  0.379254  0  -0.024084  -0.060545  0  4.046441  0
N  N104  1  0.19506499  0.41995896  0.37974494  1  -1.278689  0  -0.380653  -0.29217  0  3.637953  0
N  N105  1  0.91995978  0.29970357  0.27510610  1  -1.281957  0  -0.380653  -0.292109  0  3.63791  0
N  N106  1  0.57481103  0.69506647  0.22489358  1  -1.277285  0  -0.380677  -0.292198  0  3.637913  0
N  N107  1  0.79970326  0.07480933  0.12025769  1  -1.288115  0  -0.380641  -0.292153  0  3.637832  0
N  N108  1  0.80493512  0.58004083  0.62025530  1  -1.27884  0  -0.380639  -0.292129  0  3.637913  0
N  N109  1  0.08004014  0.70029604  0.72489369  1  -1.281971  0  -0.38068  -0.292187  0  3.637988  0
N  N110  1  0.42518870  0.30493371  0.77510667  1  -1.276982  0  -0.380682  -0.292181  0  3.638006  0
N  N111  1  0.20029670  0.92519184  0.87974194  1  -1.28816  0  -0.380654  -0.292205  0  3.637952  0
N  N112  1  0.07607632  0.38944784  0.33880616  1  -1.26403  0  -0.382089  -0.296123  0  3.636404  0
N  N113  1  0.88944862  0.22825440  0.18662883  1  -1.259313  0  -0.382108  -0.296121  0  3.636478  0
N  N114  1  0.41488250  0.57607692  0.31337106  1  -1.275504  0  -0.382154  -0.296199  0  3.636429  0
N  N115  1  0.72825423  0.91488164  0.16119396  1  -1.271029  0  -0.382062  -0.296073  0  3.636368  0
N  N116  1  0.92392317  0.61055133  0.66119470  1  -1.26414  0  -0.382075  -0.29603  0  3.63631  0
N  N117  1  0.11055092  0.77174559  0.81337096  1  -1.259262  0  -0.382082  -0.296041  0  3.636378  0
N  N118  1  0.58511761  0.42392287  0.68662919  1  -1.275484  0  -0.38212  -0.296101  0  3.636416  0
N  N119  1  0.27174688  0.08511838  0.83880566  1  -1.271031  0  -0.382081  -0.29601  0  3.636337  0
N  N120  1  0.22413649  0.55170030  0.48794009  1  -1.267631  0  -0.379893  -0.296239  0  3.634853  0
N  N121  1  0.05170166  0.53963962  0.17243661  1  -1.26253  0  -0.379908  -0.296338  0  3.634838  0
N  N122  1  0.71207737  0.72413898  0.32756357  1  -1.257955  0  -0.379931  -0.29638  0  3.634903  0
N  N123  1  0.03964083  0.21207742  0.01206090  1  -1.256325  0  -0.379914  -0.296314  0  3.634904  0
N  N124  1  0.77586363  0.44829949  0.51206016  1  -1.267622  0  -0.379927  -0.296331  0  3.634935  0
N  N125  1  0.94829827  0.46035998  0.82756318  1  -1.262504  0  -0.379909  -0.296356  0  3.634851  0
N  N126  1  0.28792478  0.27586285  0.67243528  1  -1.257907  0  -0.379921  -0.296361  0  3.634945  0
N  N127  1  0.96035929  0.78792238  0.98793935  1  -1.25634  0  -0.379914  -0.296331  0  3.634868  0
N  N128  1  0.13249913  0.59681499  0.58454154  1  -1.264055  0  -0.382462  -0.295482  0  3.647652  0
N  N129  1  0.09681471  0.68135687  0.03568485  1  -1.275939  0  -0.382451  -0.295515  0  3.647651  0
N  N130  1  0.71704045  0.63249878  0.46431614  1  -1.262595  0  -0.382455  -0.295472  0  3.647603  0
N  N131  1  0.18135563  0.21703933  0.91545905  1  -1.262704  0  -0.382469  -0.295581  0  3.647647  0
N  N132  1  0.86749980  0.40318438  0.41545886  1  -1.264046  0  -0.382439  -0.295501  0  3.647689  0
N  N133  1  0.90318522  0.31864273  0.96431494  1  -1.275728  0  -0.382449  -0.29548  0  3.647644  0
N  N134  1  0.28295909  0.36750197  0.53568456  1  -1.262601  0  -0.382474  -0.295526  0  3.647523  0
N  N135  1  0.81864387  0.78295984  0.08454181  1  -1.262704  0  -0.382492  -0.295573  0  3.647599  0
