# generated using pymatgen
data_NdZnH9C13(NO5)2
_symmetry_space_group_name_H-M   'P 1'
_cell_length_a   9.36335440
_cell_length_b   10.15638038
_cell_length_c   18.79920402
_cell_angle_alpha   95.52624516
_cell_angle_beta   89.99980209
_cell_angle_gamma   90.00124732
_symmetry_Int_Tables_number   1
_chemical_formula_structural   NdZnH9C13(NO5)2
_chemical_formula_sum   'Nd4 Zn4 H36 C52 N8 O40'
_cell_volume   1779.45355534
_cell_formula_units_Z   4
loop_
 _symmetry_equiv_pos_site_id
 _symmetry_equiv_pos_as_xyz
  1  'x, y, z'
loop_
 _atom_site_type_symbol
 _atom_site_label
 _atom_site_symmetry_multiplicity
 _atom_site_fract_x
 _atom_site_fract_y
 _atom_site_fract_z
 _atom_site_occupancy
 _atom_site_pbe_bader_charge
 _atom_site_pbe_bader_spin_density
 _atom_site_pbe_cm5_charge
 _atom_site_pbe_ddec_charge
 _atom_site_pbe_ddec_spin_density
 _atom_site_pbe_ddec_sum_bond_order
 _atom_site_pbe_magmom
Nd  Nd0  1  0.51504232  0.24777486  0.19473956  1  2.266271  0  1.489455  2.138785  0  2.111676  0
Nd  Nd1  1  0.01503014  0.25222633  0.30526020  1  2.266266  0  1.489448  2.138801  0  2.111753  0
Nd  Nd2  1  0.48495641  0.75224638  0.80526244  1  2.266314  0  1.489393  2.138585  0  2.111942  0
Nd  Nd3  1  0.98498248  0.74776481  0.69473492  1  2.266193  0  1.489448  2.138716  0  2.111825  0
Zn  Zn4  1  0.09454755  0.68817566  0.34953545  1  1.282481  0  0.716472  0.841348  0  2.360157  0
Zn  Zn5  1  0.59454587  0.81181850  0.15046062  1  1.282511  0  0.7165  0.841352  0  2.36024  0
Zn  Zn6  1  0.90542127  0.31181361  0.65046697  1  1.282695  0  0.716546  0.841399  0  2.360296  0
Zn  Zn7  1  0.40542082  0.18819714  0.84953823  1  1.282839  0  0.716512  0.84136  0  2.36057  0
H  H8  1  0.05757003  0.07005500  0.84513463  1  0.085326  0  0.103045  0.095788  0  1.066488  0
H  H9  1  0.55755024  0.42985681  0.65487193  1  0.08547  0  0.103046  0.095806  0  1.06644  0
H  H10  1  0.94245434  0.92994363  0.15487287  1  0.085515  0  0.103085  0.095908  0  1.066434  0
H  H11  1  0.44249014  0.57014456  0.34511289  1  0.085845  0  0.103047  0.095921  0  1.066053  0
H  H12  1  0.13738478  0.23336347  0.94530687  1  0.118176  0  0.106189  0.111864  0  1.005636  0
H  H13  1  0.63733961  0.26651241  0.55470642  1  0.118885  0  0.106295  0.111925  0  1.00601  0
H  H14  1  0.86263104  0.76667248  0.05468894  1  0.07057  0  0.106192  0.111919  0  1.005869  0
H  H15  1  0.36268262  0.73347444  0.44528301  1  0.11891  0  0.106224  0.11183  0  1.005739  0
H  H16  1  0.97058835  0.29970645  0.04503653  1  0.072653  0  0.108502  0.100385  0  1.015525  0
H  H17  1  0.47055397  0.20023184  0.45496112  1  0.072392  0  0.108541  0.100624  0  1.015191  0
H  H18  1  0.02940825  0.70034256  0.95495029  1  0.072371  0  0.10852  0.10038  0  1.015591  0
H  H19  1  0.52944583  0.79974046  0.54504143  1  0.072485  0  0.108568  0.100601  0  1.015179  0
H  H20  1  0.65358616  0.03405318  0.94589450  1  0.107625  0  0.109244  0.097487  0  1.067913  0
H  H21  1  0.15358814  0.46594187  0.55410125  1  0.10704  0  0.109313  0.097551  0  1.067749  0
H  H22  1  0.34643500  0.96595675  0.05411025  1  0.107613  0  0.109279  0.097581  0  1.06789  0
H  H23  1  0.84642233  0.53403466  0.44590754  1  0.107342  0  0.109271  0.097533  0  1.067918  0
H  H24  1  0.32943997  0.90645465  0.27989153  1  0.147782  0  0.142304  0.109386  0  0.97301  0
H  H25  1  0.82944449  0.59354605  0.22009632  1  0.147557  0  0.142327  0.109313  0  0.973218  0
H  H26  1  0.67053420  0.09355305  0.72011516  1  0.147873  0  0.14227  0.109343  0  0.973216  0
H  H27  1  0.17051579  0.40645717  0.77990625  1  0.147639  0  0.142281  0.109268  0  0.973311  0
H  H28  1  0.39960400  0.19349321  0.34474864  1  0.69092  0  0.30177  0.40877  0  0.927376  0
H  H29  1  0.89961695  0.30651249  0.15525132  1  0.690957  0  0.301803  0.408845  0  0.927256  0
H  H30  1  0.60040327  0.80651027  0.65525182  1  0.690189  0  0.301776  0.408741  0  0.927454  0
H  H31  1  0.10039673  0.69346513  0.84474849  1  0.690277  0  0.301791  0.408648  0  0.927557  0
H  H32  1  0.57086465  0.17961582  0.34425137  1  0.621588  0  0.328752  0.413087  0  0.879797  0
H  H33  1  0.07087506  0.32041583  0.15575846  1  0.621486  0  0.328804  0.413218  0  0.879689  0
H  H34  1  0.42913836  0.82039695  0.65575469  1  0.621683  0  0.328829  0.413229  0  0.879736  0
H  H35  1  0.92913115  0.67953036  0.84422904  1  0.620737  0  0.328748  0.413261  0  0.879906  0
H  H36  1  0.09243219  0.51893082  0.44205431  1  0.617478  0  0.302058  0.384361  0  0.958376  0
H  H37  1  0.59242664  0.98106798  0.05794539  1  0.617482  0  0.30204  0.384336  0  0.958429  0
H  H38  1  0.90757188  0.48105463  0.55794672  1  0.617633  0  0.302039  0.384297  0  0.958426  0
H  H39  1  0.40757636  0.01894791  0.94205135  1  0.617648  0  0.302088  0.384342  0  0.958364  0
H  H40  1  0.03833643  0.65130373  0.48569156  1  0.644157  0  0.311108  0.409492  0  0.908187  0
H  H41  1  0.53831973  0.84869642  0.01430667  1  0.64399  0  0.311045  0.409444  0  0.908246  0
H  H42  1  0.96166230  0.34868232  0.51431271  1  0.643947  0  0.311114  0.409485  0  0.908245  0
H  H43  1  0.46167260  0.15132447  0.98568997  1  0.643845  0  0.311112  0.409433  0  0.908318  0
C  C44  1  0.85001851  0.04442283  0.88941459  1  -0.016838  0  -0.018323  -0.054166  0  3.966317  0
C  C45  1  0.35001927  0.45552735  0.61059018  1  -0.017553  0  -0.018422  -0.054051  0  3.966084  0
C  C46  1  0.14999517  0.95557466  0.11058588  1  -0.016708  0  -0.018238  -0.053916  0  3.965945  0
C  C47  1  0.65001577  0.54447033  0.38940871  1  -0.017259  0  -0.018466  -0.054067  0  3.966205  0
C  C48  1  0.98706800  0.09904939  0.88971836  1  -0.064845  0  -0.071513  -0.056509  0  3.921045  0
C  C49  1  0.48705211  0.40086940  0.61028602  1  -0.063752  0  -0.071416  -0.056354  0  3.920894  0
C  C50  1  0.01294675  0.90095937  0.11028788  1  -0.065237  0  -0.071634  -0.056748  0  3.921085  0
C  C51  1  0.51298080  0.59912556  0.38971050  1  -0.063981  0  -0.071438  -0.056417  0  3.920687  0
C  C52  1  0.03080461  0.19045205  0.94563739  1  -0.066486  0  -0.085154  -0.081097  0  3.984268  0
C  C53  1  0.53078570  0.30947111  0.55436670  1  -0.067048  0  -0.085445  -0.081473  0  3.985227  0
C  C54  1  0.96919519  0.80957706  0.05435730  1  -0.018771  0  -0.085117  -0.081091  0  3.984113  0
C  C55  1  0.46924187  0.69051293  0.44562941  1  -0.067142  0  -0.085258  -0.081304  0  3.984909  0
C  C56  1  0.93806395  0.22613429  0.00215544  1  -0.016204  0  -0.071194  -0.067497  0  3.940223  0
C  C57  1  0.43803543  0.27379898  0.49785330  1  -0.016354  0  -0.071161  -0.067587  0  3.940109  0
C  C58  1  0.06193905  0.77389785  0.99783897  1  -0.015611  0  -0.071179  -0.067384  0  3.940228  0
C  C59  1  0.56197718  0.72618258  0.50214686  1  -0.016323  0  -0.071152  -0.06745  0  3.940297  0
C  C60  1  0.80148430  0.16929904  0.00352780  1  -0.023874  0  -0.018846  -0.049546  0  3.985948  0
C  C61  1  0.30147579  0.33067024  0.49647587  1  -0.024523  0  -0.019005  -0.0497  0  3.986219  0
C  C62  1  0.19851977  0.83072389  0.99646849  1  -0.023366  0  -0.018837  -0.049834  0  3.986309  0
C  C63  1  0.69853148  0.66930995  0.50352737  1  -0.024457  0  -0.018989  -0.049724  0  3.98633  0
C  C64  1  0.75846088  0.07944079  0.94661683  1  0.00111  0  -0.072514  -0.09092  0  3.938658  0
C  C65  1  0.25846945  0.42055023  0.55337750  1  0.002418  0  -0.072469  -0.090975  0  3.93855  0
C  C66  1  0.24156242  0.92057953  0.05338456  1  0.000626  0  -0.072661  -0.091023  0  3.938408  0
C  C67  1  0.74155705  0.57942799  0.44662556  1  0.001623  0  -0.072528  -0.091156  0  3.938884  0
C  C68  1  0.70395859  0.19956125  0.06520700  1  1.52241  0  0.22169  0.600821  0  4.155691  0
C  C69  1  0.20393680  0.30041512  0.43479508  1  1.522459  0  0.221775  0.600961  0  4.155549  0
C  C70  1  0.29605403  0.80045359  0.93479018  1  1.522736  0  0.221774  0.60109  0  4.155662  0
C  C71  1  0.79607475  0.69956641  0.56521361  1  1.522645  0  0.221547  0.600701  0  4.155374  0
C  C72  1  0.79913080  0.94881842  0.82884544  1  1.599131  0  0.238617  0.653804  0  4.165321  0
C  C73  1  0.29913466  0.55113882  0.67115660  1  1.598278  0  0.238559  0.653603  0  4.166272  0
C  C74  1  0.20089036  0.05116674  0.17116622  1  1.599152  0  0.238435  0.653377  0  4.165936  0
C  C75  1  0.70088756  0.44884825  0.32883924  1  1.598544  0  0.238548  0.653486  0  4.166071  0
C  C76  1  0.23760137  0.46660388  0.26198130  1  1.524426  0  0.220665  0.597888  0  4.218738  0
C  C77  1  0.73759895  0.03339245  0.23801790  1  1.524613  0  0.220739  0.5979  0  4.218756  0
C  C78  1  0.76239415  0.53339705  0.73802374  1  1.524477  0  0.220827  0.598095  0  4.218281  0
C  C79  1  0.26239764  0.96662160  0.76197761  1  1.524462  0  0.220863  0.598205  0  4.218151  0
C  C80  1  0.30123017  0.59025175  0.24270591  1  0.402471  0  0.073712  -0.015842  0  3.992867  0
C  C81  1  0.80123541  0.90974892  0.25728329  1  0.402824  0  0.073807  -0.015758  0  3.993268  0
C  C82  1  0.69874827  0.40975054  0.75729605  1  0.402223  0  0.073735  -0.015577  0  3.992293  0
C  C83  1  0.19874409  0.09025672  0.74271576  1  0.402759  0  0.073676  -0.015989  0  3.992599  0
C  C84  1  0.40211993  0.62418947  0.19282287  1  0.442451  0  0.082822  -0.00259  0  3.966194  0
C  C85  1  0.90212697  0.87580671  0.30716171  1  0.442461  0  0.08274  -0.002596  0  3.965988  0
C  C86  1  0.59785637  0.37582256  0.80718099  1  0.442601  0  0.082846  -0.002689  0  3.966052  0
C  C87  1  0.09784827  0.12418832  0.69283429  1  0.442373  0  0.082893  -0.002549  0  3.965687  0
C  C88  1  0.49088618  0.54892814  0.13699186  1  1.62183  0  0.222518  0.609548  0  4.219188  0
C  C89  1  0.99089004  0.95106867  0.36299934  1  1.622379  0  0.222494  0.609512  0  4.218906  0
C  C90  1  0.50908905  0.45109078  0.86300461  1  1.621684  0  0.222735  0.609753  0  4.218697  0
C  C91  1  0.00908840  0.04892935  0.63700491  1  1.621909  0  0.222885  0.609919  0  4.218536  0
C  C92  1  0.33593802  0.80358066  0.25821201  1  1.000253  0  0.150526  0.200615  0  3.935606  0
C  C93  1  0.83594499  0.69640413  0.24177332  1  1.000584  0  0.150593  0.200802  0  3.935357  0
C  C94  1  0.66404042  0.19641743  0.74179171  1  1.000455  0  0.150706  0.200928  0  3.935394  0
C  C95  1  0.16401956  0.30360157  0.75822520  1  1.001083  0  0.15085  0.201029  0  3.935187  0
N  N96  1  0.26085088  0.70523460  0.28297259  1  -1.255425  0  -0.360896  -0.339092  0  3.577647  0
N  N97  1  0.76085625  0.79476552  0.21701804  1  -1.256196  0  -0.360914  -0.33918  0  3.577684  0
N  N98  1  0.73913397  0.29476244  0.71703158  1  -1.255253  0  -0.361096  -0.339529  0  3.577794  0
N  N99  1  0.23911898  0.20525136  0.78297878  1  -1.256101  0  -0.361143  -0.339343  0  3.577447  0
N  N100  1  0.42136177  0.75883862  0.20354654  1  -1.245682  0  -0.359391  -0.338119  0  3.576497  0
N  N101  1  0.92137561  0.74115669  0.29643884  1  -1.245706  0  -0.359451  -0.338149  0  3.575941  0
N  N102  1  0.57860278  0.24117532  0.79645803  1  -1.246012  0  -0.359487  -0.338259  0  3.576488  0
N  N103  1  0.07859215  0.25883770  0.70356243  1  -1.246481  0  -0.359474  -0.338099  0  3.57577  0
O  O104  1  0.74602970  0.26650026  0.12200757  1  -1.184786  0  -0.335676  -0.600721  0  2.290599  0
O  O105  1  0.24601181  0.23347342  0.37798639  1  -1.18494  0  -0.335629  -0.600666  0  2.290281  0
O  O106  1  0.25396689  0.73351885  0.87798732  1  -1.184937  0  -0.335744  -0.600703  0  2.290437  0
O  O107  1  0.75399119  0.76651337  0.62202009  1  -1.185046  0  -0.335649  -0.600589  0  2.290069  0
O  O108  1  0.57518529  0.15291109  0.06240776  1  -1.201198  0  -0.349042  -0.646488  0  2.279673  0
O  O109  1  0.07519127  0.34707982  0.43759103  1  -1.201177  0  -0.349065  -0.646537  0  2.280051  0
O  O110  1  0.42481344  0.84709636  0.93758452  1  -1.201437  0  -0.349084  -0.646588  0  2.27998  0
O  O111  1  0.92482134  0.65290671  0.56241755  1  -1.201467  0  -0.348856  -0.646246  0  2.279969  0
O  O112  1  0.67260266  0.90472108  0.83364882  1  -1.217304  0  -0.41134  -0.667077  0  2.29436  0
O  O113  1  0.17264130  0.59528112  0.66634508  1  -1.216683  0  -0.411323  -0.667145  0  2.294861  0
O  O114  1  0.32740248  0.09528038  0.16635999  1  -1.2174  0  -0.411264  -0.666866  0  2.294648  0
O  O115  1  0.82739374  0.40470261  0.33365366  1  -1.217052  0  -0.411391  -0.667131  0  2.294481  0
O  O116  1  0.88335374  0.91838327  0.77666512  1  -1.220209  0  -0.404927  -0.695654  0  2.302271  0
O  O117  1  0.38335029  0.58157293  0.72334237  1  -1.22026  0  -0.404908  -0.695603  0  2.302473  0
O  O118  1  0.11667062  0.08158310  0.22335344  1  -1.220395  0  -0.404837  -0.695602  0  2.302654  0
O  O119  1  0.61666873  0.41842191  0.27665521  1  -1.220189  0  -0.404795  -0.695455  0  2.302694  0
O  O120  1  0.27963634  0.35253669  0.23672632  1  -1.201462  0  -0.368215  -0.687651  0  2.32805  0
O  O121  1  0.77963429  0.14745722  0.26327064  1  -1.20143  0  -0.368276  -0.687583  0  2.328009  0
O  O122  1  0.72036560  0.64746028  0.76327837  1  -1.201669  0  -0.368219  -0.687665  0  2.328126  0
O  O123  1  0.22038474  0.85253661  0.73671885  1  -1.201376  0  -0.368302  -0.687737  0  2.327477  0
O  O124  1  0.13401908  0.47921338  0.30762655  1  -1.169646  0  -0.363499  -0.628795  0  2.345627  0
O  O125  1  0.63401617  0.02078285  0.19237476  1  -1.169719  0  -0.363529  -0.628835  0  2.34575  0
O  O126  1  0.86597431  0.52078057  0.69237841  1  -1.169498  0  -0.363647  -0.629004  0  2.34545  0
O  O127  1  0.36596867  0.97923489  0.80762320  1  -1.16958  0  -0.363568  -0.628872  0  2.345709  0
O  O128  1  0.47490002  0.42423678  0.12545322  1  -1.215157  0  -0.43177  -0.669465  0  2.274815  0
O  O129  1  0.97487702  0.07575614  0.37454487  1  -1.215033  0  -0.431732  -0.669401  0  2.274696  0
O  O130  1  0.52508269  0.57577630  0.87455021  1  -1.215115  0  -0.431723  -0.669382  0  2.274805  0
O  O131  1  0.02509821  0.92424141  0.62545508  1  -1.215031  0  -0.431826  -0.669634  0  2.274583  0
O  O132  1  0.58043881  0.61560114  0.10433872  1  -1.146728  0  -0.314499  -0.517481  0  2.18156  0
O  O133  1  0.08043823  0.88438742  0.39565062  1  -1.14722  0  -0.31449  -0.517528  0  2.181514  0
O  O134  1  0.41951933  0.38441708  0.89564703  1  -1.147014  0  -0.314718  -0.517638  0  2.181665  0
O  O135  1  0.91952312  0.11559978  0.60436069  1  -1.146881  0  -0.314798  -0.517619  0  2.181544  0
O  O136  1  0.48566006  0.16459150  0.31505844  1  -1.299988  0  -0.631445  -0.845905  0  2.036659  0
O  O137  1  0.98565841  0.33543537  0.18494408  1  -1.299965  0  -0.631522  -0.846089  0  2.036495  0
O  O138  1  0.51435149  0.83542978  0.68493503  1  -1.299405  0  -0.631526  -0.84602  0  2.036646  0
O  O139  1  0.01436274  0.66451565  0.81505290  1  -1.29853  0  -0.631499  -0.845992  0  2.03683  0
O  O140  1  0.10231451  0.61689267  0.44597650  1  -1.222636  0  -0.561157  -0.718806  0  2.176781  0
O  O141  1  0.60230753  0.88310495  0.05402139  1  -1.222359  0  -0.561093  -0.718747  0  2.176879  0
O  O142  1  0.89768742  0.38308889  0.55402365  1  -1.22251  0  -0.561173  -0.718767  0  2.176982  0
O  O143  1  0.39769013  0.11691431  0.94598044  1  -1.222496  0  -0.561204  -0.718744  0  2.177059  0
