# generated using pymatgen
data_Zn2H33C50N9O14
_symmetry_space_group_name_H-M   'P 1'
_cell_length_a   15.94725305
_cell_length_b   16.05748773
_cell_length_c   17.16070346
_cell_angle_alpha   86.95572729
_cell_angle_beta   89.05797170
_cell_angle_gamma   87.58223778
_symmetry_Int_Tables_number   1
_chemical_formula_structural   Zn2H33C50N9O14
_chemical_formula_sum   'Zn2 H33 C50 N9 O14'
_cell_volume   4383.83787555
_cell_formula_units_Z   1
loop_
 _symmetry_equiv_pos_site_id
 _symmetry_equiv_pos_as_xyz
  1  'x, y, z'
loop_
 _atom_site_type_symbol
 _atom_site_label
 _atom_site_symmetry_multiplicity
 _atom_site_fract_x
 _atom_site_fract_y
 _atom_site_fract_z
 _atom_site_occupancy
 _atom_site_pbe_bader_charge
 _atom_site_pbe_bader_spin_density
 _atom_site_pbe_cm5_charge
 _atom_site_pbe_ddec_charge
 _atom_site_pbe_ddec_spin_density
 _atom_site_pbe_ddec_sum_bond_order
 _atom_site_pbe_magmom
Zn  Zn0  1  0.49338053  0.59239053  0.49960378  1  1.297549  0  0.675133  0.840702  0  2.382149  0
Zn  Zn1  1  0.51490791  0.41792593  0.49175858  1  1.313911  0  0.670681  0.838862  0  2.396894  0
H  H2  1  0.08209685  0.53305160  0.38212139  1  0.014704  0  0.094676  0.093139  0  0.975976  0
H  H3  1  0.93654626  0.55773555  0.38216204  1  0.014846  0  0.094623  0.093684  0  0.978153  0
H  H4  1  0.91776812  0.37699481  0.52854298  1  0.04527  0  0.095161  0.0948  0  0.975407  0
H  H5  1  0.92527330  0.40496063  0.42803605  1  0.014917  0  0.095388  0.095489  0  0.973951  0
H  H6  1  0.07106636  0.38228507  0.43374370  1  0.011691  0  0.09388  0.092231  0  0.979315  0
H  H7  1  0.06411435  0.35923982  0.53527070  1  0.025388  0  0.093719  0.091997  0  0.979377  0
H  H8  1  0.93541653  0.59391291  0.59604372  1  0.013323  0  0.093615  0.091889  0  0.978575  0
H  H9  1  0.92792995  0.48804881  0.62772442  1  0.030517  0  0.095157  0.094414  0  0.975532  0
H  H10  1  0.08182761  0.57914588  0.59358462  1  0.057771  0  0.092558  0.089341  0  0.985446  0
H  H11  1  0.94464235  0.63403726  0.45173006  1  0.021999  0  0.092548  0.089773  0  0.980204  0
H  H12  1  0.09077600  0.61308499  0.44777022  1  0.002779  0  0.093317  0.090888  0  0.979249  0
H  H13  1  0.07441238  0.47459302  0.62987576  1  0.053464  0  0.093476  0.090764  0  0.979099  0
H  H14  1  0.56980998  0.59826845  0.73976805  1  0.088251  0  0.10624  0.111784  0  0.994416  0
H  H15  1  0.57064631  0.59178452  0.88670667  1  0.07242  0  0.104077  0.1047  0  1.016562  0
H  H16  1  0.51511010  0.66108609  0.09478869  1  0.079736  0  0.104331  0.105779  0  0.998632  0
H  H17  1  0.50898498  0.66189579  0.24186699  1  0.100813  0  0.101499  0.10414  0  1.00192  0
H  H18  1  0.46020503  0.35831528  0.74377130  1  0.090557  0  0.104976  0.111414  0  1.000537  0
H  H19  1  0.49274229  0.39503706  0.10815699  1  0.107561  0  0.105993  0.10729  0  1.01525  0
H  H20  1  0.45996275  0.35213980  0.89062298  1  0.070431  0  0.108254  0.112397  0  0.991906  0
H  H21  1  0.49051514  0.39554806  0.25457031  1  0.121664  0  0.103693  0.114034  0  1.011321  0
H  H22  1  0.53997077  0.72346857  0.39984701  1  0.17041  0  0.132963  0.117214  0  0.982468  0
H  H23  1  0.53703775  0.88093690  0.38297941  1  0.116099  0  0.119626  0.133937  0  1.001593  0
H  H24  1  0.44160416  0.30133095  0.59400744  1  0.207405  0  0.142269  0.133677  0  1.002576  0
H  H25  1  0.48747633  0.08643407  0.31806150  1  0.081452  0  0.111019  0.114648  0  0.982372  0
H  H26  1  0.56826003  0.99979069  0.22471397  1  0.071055  0  0.110367  0.109035  0  0.978833  0
H  H27  1  0.71516268  0.95058434  0.25432297  1  0.067821  0  0.109872  0.105581  0  0.982373  0
H  H28  1  0.78136786  0.98987778  0.37688016  1  0.054178  0  0.111181  0.108281  0  0.979447  0
H  H29  1  0.70163453  0.07896502  0.46874554  1  0.090729  0  0.109418  0.115275  0  0.981151  0
H  H30  1  0.47247070  0.76246561  0.71873381  1  0.06286  0  0.104156  0.107512  0  0.994945  0
H  H31  1  0.39943254  0.68294040  0.82550441  1  0.048954  0  0.105458  0.102597  0  0.988894  0
H  H32  1  0.28077378  0.59468689  0.79579938  1  0.064916  0  0.105533  0.100042  0  0.986112  0
H  H33  1  0.23457015  0.58698492  0.65802776  1  0.078266  0  0.1011  0.095521  0  1.009996  0
H  H34  1  0.30702365  0.66636814  0.55162306  1  0.107601  0  0.105706  0.113104  0  1.006857  0
C  C35  1  0.50114213  0.52645270  0.34386938  1  1.542396  0  0.21761  0.597041  0  4.155614  0
C  C36  1  0.66519599  0.51922147  0.49510375  1  1.614166  0  0.218001  0.683747  0  4.218442  0
C  C37  1  0.50798909  0.48749041  0.64666013  1  1.587678  0  0.218775  0.59559  0  4.157749  0
C  C38  1  0.34389387  0.47490991  0.49553339  1  1.61563  0  0.21969  0.683499  0  4.223296  0
C  C39  1  0.96276459  0.56926560  0.43920067  1  0.00735  0  -0.154214  -0.187343  0  3.857545  0
C  C40  1  0.94905032  0.41868480  0.48548535  1  -0.028534  0  -0.152914  -0.184829  0  3.846012  0
C  C41  1  0.04553431  0.40561489  0.48867215  1  0.003094  0  -0.155098  -0.188382  0  3.861773  0
C  C42  1  0.25336085  0.47461984  0.50012496  1  0.096241  0  -0.064644  -0.226639  0  4.001302  0
C  C43  1  0.92250128  0.51015838  0.50206457  1  0.147445  0  -0.00024  0.170841  0  3.90246  0
C  C44  1  0.05923342  0.55497214  0.43850927  1  0.010167  0  -0.152794  -0.181944  0  3.846602  0
C  C45  1  0.08617062  0.48900552  0.50367425  1  0.150498  0  0.000206  0.168555  0  3.901563  0
C  C46  1  0.05325241  0.51969729  0.58314431  1  -0.051257  0  -0.152509  -0.183521  0  3.846169  0
C  C47  1  0.95622868  0.52999193  0.58293779  1  -0.030648  0  -0.151802  -0.18431  0  3.843919  0
C  C48  1  0.17708127  0.47954442  0.50323448  1  -0.380944  0  -0.025419  -0.042972  0  4.043575  0
C  C49  1  0.83163954  0.51987812  0.50063816  1  -0.392659  0  -0.026261  -0.044384  0  4.044053  0
C  C50  1  0.75543820  0.52265142  0.49791732  1  0.108634  0  -0.065424  -0.2225  0  4.003144  0
C  C51  1  0.50013390  0.52858441  0.25654962  1  0.037519  0  -0.01038  -0.016723  0  3.936242  0
C  C52  1  0.49507252  0.45329778  0.21884813  1  -0.057269  0  -0.080364  -0.077291  0  3.958775  0
C  C53  1  0.49671904  0.45276197  0.13818204  1  -0.011454  0  -0.083043  -0.136877  0  3.947316  0
C  C54  1  0.50490239  0.52819988  0.09360876  1  0.35163  0  0.086295  0.170042  0  4.04839  0
C  C55  1  0.50901889  0.60365511  0.13096855  1  -0.023765  0  -0.083809  -0.144282  0  3.969532  0
C  C56  1  0.50596061  0.60388514  0.21204352  1  -0.144983  0  -0.085629  -0.092156  0  3.991701  0
C  C57  1  0.54598625  0.54174375  0.85453610  1  0.039005  0  -0.086142  -0.148657  0  3.96608  0
C  C58  1  0.54575252  0.54497990  0.77372215  1  -0.012775  0  -0.079706  -0.078516  0  3.984604  0
C  C59  1  0.51238139  0.47286939  0.89651592  1  0.334519  0  0.086901  0.171775  0  4.056142  0
C  C60  1  0.51318097  0.47977770  0.73357485  1  -0.094596  0  -0.012497  -0.025893  0  3.951041  0
C  C61  1  0.48383847  0.40927497  0.77546001  1  0.058126  0  -0.082725  -0.08516  0  3.973846  0
C  C62  1  0.48371660  0.40563637  0.85661472  1  -0.094031  0  -0.081686  -0.144952  0  3.961598  0
C  C63  1  0.46952803  0.25560312  0.55564873  1  0.569946  0  0.081394  0.095292  0  3.857549  0
C  C64  1  0.45183747  0.17210721  0.56451086  1  0.290591  0  0.094646  -0.029983  0  3.888337  0
C  C65  1  0.48775089  0.11330648  0.51448074  1  0.421426  0  0.132654  0.137046  0  3.980134  0
C  C66  1  0.54300332  0.14246660  0.45442394  1  0.095724  0  0.022418  -0.061662  0  3.902238  0
C  C67  1  0.55526983  0.22844435  0.45111919  1  0.779545  0  0.233118  0.193525  0  3.905821  0
C  C68  1  0.50946766  0.84912698  0.43422945  1  -0.007982  0  -0.067614  -0.177305  0  3.920019  0
C  C69  1  0.51098829  0.76294605  0.44336887  1  0.482598  0  0.064647  0.119377  0  3.90348  0
C  C70  1  0.47204218  0.89615338  0.49280982  1  0.41482  0  0.115656  0.159093  0  4.028813  0
C  C71  1  0.43767816  0.76519868  0.56291666  1  0.598616  0  0.150418  0.198209  0  3.923127  0
C  C72  1  0.43750345  0.85295465  0.55791898  1  0.135752  0  0.096464  -0.065125  0  3.841619  0
C  C73  1  0.58916148  0.08752499  0.39958124  1  -0.123772  0  -0.019387  0.053181  0  4.047936  0
C  C74  1  0.55180585  0.06507276  0.33069738  1  0.000845  0  -0.082853  -0.123404  0  3.989088  0
C  C75  1  0.59729453  0.01622624  0.27857748  1  -0.037051  0  -0.087071  -0.081601  0  4.019013  0
C  C76  1  0.67973455  0.98875103  0.29516456  1  -0.013885  0  -0.082576  -0.078384  0  4.006089  0
C  C77  1  0.71698309  0.01082890  0.36380939  1  -0.026541  0  -0.083689  -0.069845  0  4.012322  0
C  C78  1  0.67223937  0.06072263  0.41564591  1  -0.000435  0  -0.088153  -0.130316  0  3.970288  0
C  C79  1  0.39442493  0.71956148  0.62810629  1  0.006789  0  -0.020503  0.01012  0  4.02343  0
C  C80  1  0.41971156  0.72481907  0.70564508  1  -0.04885  0  -0.08761  -0.111428  0  3.966084  0
C  C81  1  0.37855259  0.68010992  0.76556890  1  0.02269  0  -0.087473  -0.073705  0  4.013747  0
C  C82  1  0.31202317  0.63039966  0.74877296  1  -0.089091  0  -0.082863  -0.073342  0  4.001632  0
C  C83  1  0.28610195  0.62599586  0.67184393  1  0.000465  0  -0.087744  -0.073574  0  4.002104  0
C  C84  1  0.32675422  0.67068897  0.61159660  1  -0.043733  0  -0.082861  -0.098966  0  3.958047  0
N  N85  1  0.51027559  0.53461821  0.01128479  1  -0.481938  0  -0.153715  -0.145424  0  3.289726  0
N  N86  1  0.50526639  0.46598833  0.97860011  1  -0.485615  0  -0.151417  -0.139716  0  3.285831  0
N  N87  1  0.52105240  0.28401386  0.49827804  1  -1.234768  0  -0.292714  -0.212974  0  3.441838  0
N  N88  1  0.48035831  0.02776620  0.53270079  1  -0.412046  0  -0.106434  -0.059289  0  3.28185  0
N  N89  1  0.46760549  0.98344504  0.47630960  1  -0.393684  0  -0.099606  -0.058493  0  3.223923  0
N  N90  1  0.47495248  0.72207954  0.50510324  1  -1.199454  0  -0.296113  -0.222017  0  3.418937  0
N  N91  1  0.61097405  0.26280547  0.38785990  1  0.438366  0  0.07005  0.484834  0  4.235104  0
N  N92  1  0.39073060  0.14726700  0.62528926  1  0.379066  0  0.063974  0.526114  0  4.21052  0
N  N93  1  0.39113528  0.89806843  0.61918937  1  0.435251  0  0.060305  0.517671  0  4.272825  0
O  O94  1  0.48778212  0.59463391  0.37753640  1  -1.171493  0  -0.31721  -0.554194  0  2.312131  0
O  O95  1  0.51602598  0.45476665  0.37783466  1  -1.164399  0  -0.320224  -0.551007  0  2.360208  0
O  O96  1  0.62267323  0.58764780  0.48395998  1  -1.14157  0  -0.320544  -0.553754  0  2.2526  0
O  O97  1  0.63651670  0.44615441  0.50444332  1  -1.136399  0  -0.320236  -0.547619  0  2.274881  0
O  O98  1  0.51413142  0.56033053  0.61451811  1  -1.159424  0  -0.308805  -0.539135  0  2.353112  0
O  O99  1  0.49685104  0.42126351  0.61086993  1  -1.174577  0  -0.316879  -0.555225  0  2.349062  0
O  O100  1  0.37542834  0.54604406  0.50107268  1  -1.158106  0  -0.307992  -0.555563  0  2.340574  0
O  O101  1  0.38457036  0.40613061  0.48653659  1  -1.149962  0  -0.319781  -0.549847  0  2.243424  0
O  O102  1  0.68355273  0.27518696  0.40615452  1  -0.399981  0  -0.093691  -0.271611  0  1.870155  0
O  O103  1  0.57931626  0.27380382  0.32286863  1  -0.4095  0  -0.093136  -0.279083  0  1.904279  0
O  O104  1  0.34934257  0.08582183  0.61296297  1  -0.415737  0  -0.111974  -0.304311  0  1.942113  0
O  O105  1  0.38437480  0.18997147  0.68318983  1  -0.416882  0  -0.120202  -0.311353  0  1.846568  0
O  O106  1  0.31555875  0.91202887  0.60802090  1  -0.407348  0  -0.104145  -0.282249  0  1.874772  0
O  O107  1  0.43118315  0.91574114  0.67652726  1  -0.420757  0  -0.112369  -0.312655  0  1.91138  0
