# generated using pymatgen
data_CaH12(C3O5)2
_symmetry_space_group_name_H-M   'P 1'
_cell_length_a   6.71867334
_cell_length_b   11.43019081
_cell_length_c   14.80273812
_cell_angle_alpha   89.99971668
_cell_angle_beta   89.99993946
_cell_angle_gamma   90.00013887
_symmetry_Int_Tables_number   1
_chemical_formula_structural   CaH12(C3O5)2
_chemical_formula_sum   'Ca4 H48 C24 O40'
_cell_volume   1136.78690703
_cell_formula_units_Z   4
loop_
 _symmetry_equiv_pos_site_id
 _symmetry_equiv_pos_as_xyz
  1  'x, y, z'
loop_
 _atom_site_type_symbol
 _atom_site_label
 _atom_site_symmetry_multiplicity
 _atom_site_fract_x
 _atom_site_fract_y
 _atom_site_fract_z
 _atom_site_occupancy
 _atom_site_hle17_bader_spin_density
 _atom_site_hle17_ddec_charge
 _atom_site_hle17_ddec_spin_density
 _atom_site_hle17_ddec_sum_bond_order
 _atom_site_hle17_magmom
 _atom_site_hse06_10hf_bader_spin_density
 _atom_site_hse06_10hf_ddec_charge
 _atom_site_hse06_10hf_ddec_spin_density
 _atom_site_hse06_10hf_ddec_sum_bond_order
 _atom_site_hse06_10hf_magmom
 _atom_site_hse06_bader_spin_density
 _atom_site_hse06_ddec_charge
 _atom_site_hse06_ddec_spin_density
 _atom_site_hse06_ddec_sum_bond_order
 _atom_site_hse06_magmom
 _atom_site_pbe_bader_spin_density
 _atom_site_pbe_cm5_charge
 _atom_site_pbe_ddec_charge
 _atom_site_pbe_ddec_spin_density
 _atom_site_pbe_ddec_sum_bond_order
 _atom_site_pbe_magmom
Ca  Ca0  1  0.00126216  0.99999302  0.25000249  1  0  1.503196  0  1.111495  0  0  1.364451  0  1.459333  0  0  1.407377  0  1.415184  0  0  0.84597  1.332275  0  1.490538  0
Ca  Ca1  1  0.49873926  0.50000257  0.74999864  1  0  1.503107  0  1.111593  0  0  1.364383  0  1.459361  0  0  1.407304  0  1.415216  0  0  0.845981  1.332204  0  1.490573  0
Ca  Ca2  1  0.99871731  0.00000320  0.75000149  1  0  1.503202  0  1.111501  0  0  1.364373  0  1.459488  0  0  1.407295  0  1.415348  0  0  0.845964  1.332191  0  1.490697  0
Ca  Ca3  1  0.50126998  0.50000589  0.25000196  1  0  1.503096  0  1.111585  0  0  1.364331  0  1.45941  0  0  1.407253  0  1.415268  0  0  0.84599  1.33216  0  1.490628  0
H  H4  1  0.34838552  0.99632139  0.48921152  1  0  0.077063  0  0.932311  0  0  0.080438  0  1.000258  0  0  0.083343  0  0.996992  0  0  0.11187  0.078317  0  1.002797  0
H  H5  1  0.34838723  0.00367805  0.01078979  1  0  0.077126  0  0.932199  0  0  0.080573  0  1.000182  0  0  0.083484  0  0.996908  0  0  0.111885  0.078449  0  1.002728  0
H  H6  1  0.15161886  0.49632873  0.51078760  1  0  0.077067  0  0.93218  0  0  0.080517  0  1.00019  0  0  0.083429  0  0.996929  0  0  0.111923  0.078395  0  1.002735  0
H  H7  1  0.15159314  0.50368056  0.98920178  1  0  0.077116  0  0.932194  0  0  0.080493  0  1.0002  0  0  0.0834  0  0.996934  0  0  0.11189  0.078373  0  1.002744  0
H  H8  1  0.65160437  0.00366257  0.51078841  1  0  0.077133  0  0.932132  0  0  0.080541  0  1.000215  0  0  0.083448  0  0.996949  0  0  0.111928  0.078422  0  1.002758  0
H  H9  1  0.65159522  0.99632778  0.98921149  1  0  0.077045  0  0.932303  0  0  0.080497  0  1.000366  0  0  0.083405  0  0.997106  0  0  0.111876  0.078376  0  1.002913  0
H  H10  1  0.84840676  0.50367885  0.48920895  1  0  0.077091  0  0.932062  0  0  0.080523  0  1.00012  0  0  0.083434  0  0.996854  0  0  0.111888  0.078402  0  1.002664  0
H  H11  1  0.84838038  0.49632616  0.01078531  1  0  0.077155  0  0.932268  0  0  0.080526  0  1.000209  0  0  0.083435  0  0.996941  0  0  0.111919  0.078404  0  1.002754  0
H  H12  1  0.05828972  0.12813974  0.51405598  1  0  0.06301  0  0.911554  0  0  0.071535  0  0.974853  0  0  0.072663  0  0.973461  0  0  0.1197  0.070616  0  0.976096  0
H  H13  1  0.05828275  0.87185812  0.98594089  1  0  0.062952  0  0.911598  0  0  0.071471  0  0.974889  0  0  0.072608  0  0.973485  0  0  0.119663  0.070549  0  0.976131  0
H  H14  1  0.44174206  0.62814560  0.48593983  1  0  0.063007  0  0.91129  0  0  0.071531  0  0.97462  0  0  0.07267  0  0.973206  0  0  0.119654  0.070605  0  0.975874  0
H  H15  1  0.44170445  0.37186003  0.01405533  1  0  0.062978  0  0.911405  0  0  0.071507  0  0.974745  0  0  0.072646  0  0.973335  0  0  0.119705  0.070581  0  0.975989  0
H  H16  1  0.94172250  0.87185297  0.48594732  1  0  0.062984  0  0.911573  0  0  0.0715  0  0.974864  0  0  0.072631  0  0.973472  0  0  0.119659  0.070578  0  0.976105  0
H  H17  1  0.94170565  0.12814334  0.01405971  1  0  0.062957  0  0.911534  0  0  0.071482  0  0.974828  0  0  0.072619  0  0.97342  0  0  0.11966  0.070558  0  0.976075  0
H  H18  1  0.55830291  0.37184974  0.51405604  1  0  0.062928  0  0.911287  0  0  0.071481  0  0.974644  0  0  0.072616  0  0.97322  0  0  0.119634  0.070548  0  0.975887  0
H  H19  1  0.55828097  0.62815106  0.98594324  1  0  0.062948  0  0.911362  0  0  0.071473  0  0.974728  0  0  0.072613  0  0.973313  0  0  0.119628  0.070551  0  0.97597  0
H  H20  1  0.33832091  0.91404066  0.33445044  1  0  0.385426  0  0.845391  0  0  0.367259  0  0.906657  0  0  0.376403  0  0.896063  0  0  0.331207  0.360685  0  0.91436  0
H  H21  1  0.33830798  0.08595790  0.16554951  1  0  0.385376  0  0.845517  0  0  0.367195  0  0.906778  0  0  0.376336  0  0.896193  0  0  0.331178  0.36062  0  0.914483  0
H  H22  1  0.16168889  0.41404878  0.66555237  1  0  0.385398  0  0.845456  0  0  0.367199  0  0.906733  0  0  0.376339  0  0.896148  0  0  0.331206  0.360627  0  0.914435  0
H  H23  1  0.16167887  0.58595701  0.83444106  1  0  0.385443  0  0.845324  0  0  0.367301  0  0.906569  0  0  0.376446  0  0.895972  0  0  0.331215  0.360728  0  0.914273  0
H  H24  1  0.66165856  0.08595205  0.66554138  1  0  0.385407  0  0.845371  0  0  0.367205  0  0.906681  0  0  0.376348  0  0.896086  0  0  0.331154  0.360634  0  0.91438  0
H  H25  1  0.66165810  0.91404706  0.83445649  1  0  0.385369  0  0.845402  0  0  0.367231  0  0.90663  0  0  0.376375  0  0.89603  0  0  0.331133  0.360654  0  0.914341  0
H  H26  1  0.83832482  0.58595268  0.33444080  1  0  0.385396  0  0.845363  0  0  0.367266  0  0.90661  0  0  0.376415  0  0.896004  0  0  0.331191  0.360687  0  0.914318  0
H  H27  1  0.83829614  0.41404095  0.16555279  1  0  0.385336  0  0.845456  0  0  0.367057  0  0.906821  0  0  0.376193  0  0.896251  0  0  0.331157  0.360487  0  0.914515  0
H  H28  1  0.88678237  0.16318263  0.40307283  1  0  0.3861  0  0.91619  0  0  0.35924  0  0.988411  0  0  0.371251  0  0.97531  0  0  0.299383  0.350802  0  0.997171  0
H  H29  1  0.88678630  0.83681102  0.09692816  1  0  0.386166  0  0.916054  0  0  0.35922  0  0.988438  0  0  0.371253  0  0.975331  0  0  0.299379  0.350748  0  0.997249  0
H  H30  1  0.61323277  0.66317621  0.59693269  1  0  0.386129  0  0.916184  0  0  0.359292  0  0.988341  0  0  0.371295  0  0.975242  0  0  0.299427  0.350854  0  0.997108  0
H  H31  1  0.61321507  0.33683074  0.90306993  1  0  0.386177  0  0.916135  0  0  0.359344  0  0.988285  0  0  0.371348  0  0.975165  0  0  0.299493  0.350913  0  0.997042  0
H  H32  1  0.11322837  0.83682320  0.59693250  1  0  0.386055  0  0.916312  0  0  0.359228  0  0.988455  0  0  0.371231  0  0.975331  0  0  0.299435  0.350798  0  0.997203  0
H  H33  1  0.11320211  0.16318519  0.90306974  1  0  0.386091  0  0.916215  0  0  0.359231  0  0.988455  0  0  0.371244  0  0.97533  0  0  0.299365  0.350791  0  0.997207  0
H  H34  1  0.38678243  0.33682787  0.40307061  1  0  0.386039  0  0.916322  0  0  0.359219  0  0.988464  0  0  0.371221  0  0.975344  0  0  0.299448  0.350793  0  0.997202  0
H  H35  1  0.38678227  0.66317860  0.09693135  1  0  0.386148  0  0.916155  0  0  0.359264  0  0.988406  0  0  0.371271  0  0.975292  0  0  0.299459  0.350832  0  0.997161  0
H  H36  1  0.78563501  0.76582744  0.25203679  1  0  0.43437  0  0.867573  0  0  0.399894  0  0.935984  0  0  0.412339  0  0.917851  0  0  0.296994  0.391056  0  0.948853  0
H  H37  1  0.78567795  0.23417053  0.24796290  1  0  0.434622  0  0.86722  0  0  0.400068  0  0.935782  0  0  0.412516  0  0.917639  0  0  0.297046  0.391217  0  0.948676  0
H  H38  1  0.71434953  0.26583507  0.74796360  1  0  0.434666  0  0.867171  0  0  0.400116  0  0.935727  0  0  0.412567  0  0.917579  0  0  0.29708  0.39127  0  0.948609  0
H  H39  1  0.71435698  0.73417020  0.75204167  1  0  0.434756  0  0.867058  0  0  0.400148  0  0.935727  0  0  0.412601  0  0.917572  0  0  0.297094  0.391299  0  0.948617  0
H  H40  1  0.21435042  0.23417052  0.74796313  1  0  0.434602  0  0.867251  0  0  0.40004  0  0.935826  0  0  0.412491  0  0.917678  0  0  0.29702  0.391191  0  0.948715  0
H  H41  1  0.21436999  0.76582480  0.75203027  1  0  0.434305  0  0.867602  0  0  0.399806  0  0.93606  0  0  0.412257  0  0.917919  0  0  0.296875  0.390961  0  0.948939  0
H  H42  1  0.28563292  0.73417864  0.25203970  1  0  0.434486  0  0.867424  0  0  0.399948  0  0.935957  0  0  0.412402  0  0.917805  0  0  0.296952  0.391102  0  0.948839  0
H  H43  1  0.28566119  0.26582777  0.24796501  1  0  0.434599  0  0.867248  0  0  0.400028  0  0.935844  0  0  0.41248  0  0.917695  0  0  0.296986  0.391176  0  0.948738  0
H  H44  1  0.75782155  0.81543696  0.35054010  1  0  0.429052  0  0.82593  0  0  0.409382  0  0.885568  0  0  0.418435  0  0.872016  0  0  0.324878  0.402789  0  0.895367  0
H  H45  1  0.75784054  0.18454874  0.14946569  1  0  0.429288  0  0.825662  0  0  0.409604  0  0.885271  0  0  0.418657  0  0.871717  0  0  0.324968  0.403007  0  0.895124  0
H  H46  1  0.74217968  0.31545748  0.64946753  1  0  0.429173  0  0.825887  0  0  0.409477  0  0.885471  0  0  0.418532  0  0.871915  0  0  0.324893  0.402883  0  0.895367  0
H  H47  1  0.74216580  0.68454605  0.85053570  1  0  0.429194  0  0.825812  0  0  0.409515  0  0.885397  0  0  0.418568  0  0.871842  0  0  0.324944  0.402918  0  0.895251  0
H  H48  1  0.24214751  0.18454875  0.64946455  1  0  0.429232  0  0.825699  0  0  0.409546  0  0.885345  0  0  0.418601  0  0.871786  0  0  0.32493  0.402951  0  0.895157  0
H  H49  1  0.24217019  0.81545359  0.85053694  1  0  0.429105  0  0.825711  0  0  0.409421  0  0.88548  0  0  0.418475  0  0.871926  0  0  0.32487  0.402823  0  0.895196  0
H  H50  1  0.25783552  0.68455098  0.35054253  1  0  0.429207  0  0.825597  0  0  0.409516  0  0.885374  0  0  0.418572  0  0.871815  0  0  0.324917  0.402923  0  0.895097  0
H  H51  1  0.25783154  0.31545716  0.14946693  1  0  0.429218  0  0.825687  0  0  0.409528  0  0.885355  0  0  0.418584  0  0.871796  0  0  0.324926  0.402935  0  0.895152  0
C  C52  1  0.31885170  0.13007808  0.38499464  1  0  0.643519  0  3.894093  0  0  0.590402  0  4.20386  0  0  0.623713  0  4.195539  0  0  0.214307  0.567748  0  4.208856  0
C  C53  1  0.31884540  0.86991172  0.11499924  1  0  0.643536  0  3.894253  0  0  0.590562  0  4.203933  0  0  0.623888  0  4.195579  0  0  0.214354  0.567919  0  4.208923  0
C  C54  1  0.18117860  0.63008908  0.61499846  1  0  0.643528  0  3.893237  0  0  0.590449  0  4.203181  0  0  0.623779  0  4.194833  0  0  0.214342  0.567808  0  4.208158  0
C  C55  1  0.18116561  0.36993247  0.88498212  1  0  0.643578  0  3.89342  0  0  0.590445  0  4.203292  0  0  0.623752  0  4.194991  0  0  0.214463  0.567793  0  4.208281  0
C  C56  1  0.68115456  0.86991026  0.61500258  1  0  0.643693  0  3.894461  0  0  0.590723  0  4.204148  0  0  0.624035  0  4.195828  0  0  0.214465  0.568076  0  4.209136  0
C  C57  1  0.68113854  0.13008711  0.88499730  1  0  0.643398  0  3.894006  0  0  0.590436  0  4.203782  0  0  0.623767  0  4.195435  0  0  0.214347  0.567785  0  4.208776  0
C  C58  1  0.81885892  0.36993075  0.38498593  1  0  0.643066  0  3.89407  0  0  0.59021  0  4.20362  0  0  0.623539  0  4.195276  0  0  0.214348  0.567567  0  4.208601  0
C  C59  1  0.81883024  0.63006462  0.11501578  1  0  0.643426  0  3.893617  0  0  0.590256  0  4.203417  0  0  0.623587  0  4.195068  0  0  0.214358  0.567605  0  4.208405  0
C  C60  1  0.24812454  0.01942446  0.43338863  1  0  0.034687  0  3.635637  0  0  0.007441  0  3.894037  0  0  0.008967  0  3.899206  0  0  -0.009777  0.006211  0  3.890649  0
C  C61  1  0.24811904  0.98056268  0.06661273  1  0  0.034794  0  3.635545  0  0  0.007195  0  3.894393  0  0  0.008713  0  3.899561  0  0  -0.009726  0.005958  0  3.891015  0
C  C62  1  0.25190505  0.51942969  0.56660558  1  0  0.03489  0  3.635708  0  0  0.007227  0  3.894763  0  0  0.008713  0  3.900006  0  0  -0.009806  0.005991  0  3.891381  0
C  C63  1  0.25187184  0.48057616  0.93338577  1  0  0.034731  0  3.63611  0  0  0.007342  0  3.89481  0  0  0.008861  0  3.899993  0  0  -0.00977  0.006103  0  3.891433  0
C  C64  1  0.75186535  0.98055776  0.56661332  1  0  0.034799  0  3.635091  0  0  0.007106  0  3.894171  0  0  0.008625  0  3.899344  0  0  -0.009805  0.005869  0  3.890797  0
C  C65  1  0.75186639  0.01943179  0.93339260  1  0  0.034792  0  3.635379  0  0  0.00698  0  3.89466  0  0  0.008478  0  3.899867  0  0  -0.009848  0.005745  0  3.891285  0
C  C66  1  0.74813099  0.48056652  0.43339097  1  0  0.034964  0  3.63568  0  0  0.007249  0  3.894763  0  0  0.008743  0  3.899985  0  0  -0.009747  0.006015  0  3.891377  0
C  C67  1  0.74811210  0.51942792  0.06660943  1  0  0.034426  0  3.636253  0  0  0.007258  0  3.89453  0  0  0.008775  0  3.899705  0  0  -0.009844  0.006029  0  3.891144  0
C  C68  1  0.04206756  0.04969498  0.47160656  1  0  0.162044  0  3.60081  0  0  0.132468  0  3.853001  0  0  0.137921  0  3.863182  0  0  0.000513  0.128727  0  3.846027  0
C  C69  1  0.04206342  0.95029902  0.02839492  1  0  0.162008  0  3.600557  0  0  0.132532  0  3.852792  0  0  0.137985  0  3.862972  0  0  0.000481  0.128792  0  3.845817  0
C  C70  1  0.45791162  0.54970758  0.52841996  1  0  0.161939  0  3.600267  0  0  0.132419  0  3.852651  0  0  0.137877  0  3.862832  0  0  0.000383  0.128679  0  3.845675  0
C  C71  1  0.45790197  0.45030015  0.97159154  1  0  0.16229  0  3.599836  0  0  0.132712  0  3.85216  0  0  0.138161  0  3.86235  0  0  0.000509  0.12898  0  3.845185  0
C  C72  1  0.95793722  0.95030210  0.52839269  1  0  0.16207  0  3.60053  0  0  0.13262  0  3.852797  0  0  0.138075  0  3.862971  0  0  0.000527  0.12888  0  3.845825  0
C  C73  1  0.95791606  0.04969894  0.97160433  1  0  0.162175  0  3.600605  0  0  0.132741  0  3.852883  0  0  0.138196  0  3.863072  0  0  0.000496  0.128999  0  3.84591  0
C  C74  1  0.54211846  0.45029213  0.47158402  1  0  0.16228  0  3.599851  0  0  0.132719  0  3.852265  0  0  0.138187  0  3.862433  0  0  0.00054  0.128992  0  3.845282  0
C  C75  1  0.54208346  0.54970569  0.02840771  1  0  0.162214  0  3.599872  0  0  0.132517  0  3.852256  0  0  0.137973  0  3.862422  0  0  0.000548  0.128774  0  3.845294  0
O  O76  1  0.27890195  0.13716570  0.30047447  1  0  -0.709878  0  2.042725  0  0  -0.645041  0  2.273901  0  0  -0.67275  0  2.261767  0  0  -0.339349  -0.62544  0  2.281684  0
O  O77  1  0.27889694  0.86282495  0.19952417  1  0  -0.709972  0  2.042535  0  0  -0.645148  0  2.273597  0  0  -0.67289  0  2.261511  0  0  -0.339441  -0.625535  0  2.281333  0
O  O78  1  0.22112393  0.63717795  0.69952199  1  0  -0.709904  0  2.042484  0  0  -0.64506  0  2.273644  0  0  -0.672776  0  2.261504  0  0  -0.339385  -0.62547  0  2.281417  0
O  O79  1  0.22110063  0.36282263  0.80048154  1  0  -0.709735  0  2.043035  0  0  -0.644843  0  2.274205  0  0  -0.67254  0  2.262075  0  0  -0.339348  -0.625249  0  2.281981  0
O  O80  1  0.72108794  0.86282876  0.69952816  1  0  -0.710032  0  2.042605  0  0  -0.645196  0  2.273762  0  0  -0.672912  0  2.261628  0  0  -0.339452  -0.625591  0  2.28153  0
O  O81  1  0.72108700  0.13717389  0.80047643  1  0  -0.709906  0  2.042624  0  0  -0.645039  0  2.27374  0  0  -0.67276  0  2.261601  0  0  -0.339415  -0.625424  0  2.281479  0
O  O82  1  0.77894187  0.36283313  0.30047726  1  0  -0.709553  0  2.043041  0  0  -0.644733  0  2.274051  0  0  -0.672439  0  2.261912  0  0  -0.339294  -0.625131  0  2.281803  0
O  O83  1  0.77890861  0.63716483  0.19951906  1  0  -0.70963  0  2.043081  0  0  -0.644813  0  2.274255  0  0  -0.672513  0  2.26211  0  0  -0.339338  -0.625227  0  2.282031  0
O  O84  1  0.22108645  0.92224859  0.37319465  1  0  -0.576824  0  2.120439  0  0  -0.528018  0  2.343441  0  0  -0.543968  0  2.331379  0  0  -0.414482  -0.516485  0  2.351653  0
O  O85  1  0.22106610  0.07774815  0.12680876  1  0  -0.576847  0  2.120352  0  0  -0.527937  0  2.343497  0  0  -0.543887  0  2.331437  0  0  -0.414451  -0.516403  0  2.351715  0
O  O86  1  0.27892192  0.42225528  0.62680476  1  0  -0.576781  0  2.120387  0  0  -0.527818  0  2.343592  0  0  -0.543759  0  2.331541  0  0  -0.41437  -0.516283  0  2.351806  0
O  O87  1  0.27891177  0.57774797  0.87318590  1  0  -0.576872  0  2.120503  0  0  -0.528053  0  2.343551  0  0  -0.544002  0  2.331485  0  0  -0.414432  -0.516512  0  2.351765  0
O  O88  1  0.77890642  0.07774587  0.62680460  1  0  -0.576805  0  2.120025  0  0  -0.52782  0  2.343188  0  0  -0.543766  0  2.331129  0  0  -0.414375  -0.516291  0  2.351404  0
O  O89  1  0.77889701  0.92225593  0.87319657  1  0  -0.576756  0  2.120214  0  0  -0.527823  0  2.343382  0  0  -0.543766  0  2.331332  0  0  -0.414311  -0.516286  0  2.351597  0
O  O90  1  0.72109625  0.57774968  0.37319247  1  0  -0.57693  0  2.120086  0  0  -0.528081  0  2.343228  0  0  -0.544029  0  2.331172  0  0  -0.414466  -0.516541  0  2.351442  0
O  O91  1  0.72107068  0.42224737  0.12680186  1  0  -0.576638  0  2.120372  0  0  -0.527678  0  2.343458  0  0  -0.543631  0  2.331399  0  0  -0.414353  -0.516146  0  2.35167  0
O  O92  1  0.90744986  0.07453671  0.39912507  1  0  -0.627752  0  2.058326  0  0  -0.569064  0  2.28583  0  0  -0.590553  0  2.275746  0  0  -0.43061  -0.553504  0  2.292015  0
O  O93  1  0.90744245  0.92544908  0.10087388  1  0  -0.627691  0  2.058005  0  0  -0.568941  0  2.285503  0  0  -0.590452  0  2.275409  0  0  -0.430529  -0.553359  0  2.291737  0
O  O94  1  0.59256620  0.57452851  0.60087133  1  0  -0.627707  0  2.058634  0  0  -0.568946  0  2.286076  0  0  -0.590432  0  2.275981  0  0  -0.430498  -0.553386  0  2.292251  0
O  O95  1  0.59254758  0.42546706  0.89912590  1  0  -0.627901  0  2.058383  0  0  -0.569171  0  2.285869  0  0  -0.590659  0  2.275767  0  0  -0.430664  -0.553611  0  2.292048  0
O  O96  1  0.09255195  0.92546125  0.60088161  1  0  -0.627705  0  2.058272  0  0  -0.569006  0  2.285756  0  0  -0.590495  0  2.275646  0  0  -0.430601  -0.55345  0  2.291931  0
O  O97  1  0.09254150  0.07454013  0.89912740  1  0  -0.627776  0  2.058454  0  0  -0.569062  0  2.285908  0  0  -0.590556  0  2.275812  0  0  -0.43057  -0.5535  0  2.292088  0
O  O98  1  0.40746091  0.42545721  0.39912657  1  0  -0.627715  0  2.05868  0  0  -0.568998  0  2.286143  0  0  -0.590481  0  2.276034  0  0  -0.4306  -0.553443  0  2.292314  0
O  O99  1  0.40744231  0.57454840  0.10087605  1  0  -0.627723  0  2.058167  0  0  -0.568948  0  2.285663  0  0  -0.590435  0  2.27557  0  0  -0.430583  -0.553386  0  2.291842  0
O  O100  1  0.39548609  0.20779931  0.43385773  1  0  -0.583424  0  1.972928  0  0  -0.540815  0  2.201038  0  0  -0.564459  0  2.190572  0  0  -0.308818  -0.524455  0  2.207747  0
O  O101  1  0.39548086  0.79220191  0.06613949  1  0  -0.583459  0  1.973274  0  0  -0.540827  0  2.201303  0  0  -0.564472  0  2.190828  0  0  -0.308799  -0.524483  0  2.208035  0
O  O102  1  0.10453430  0.70780795  0.56613508  1  0  -0.58339  0  1.97275  0  0  -0.540752  0  2.200864  0  0  -0.564397  0  2.190387  0  0  -0.308776  -0.524401  0  2.207579  0
O  O103  1  0.10448500  0.29219168  0.93386650  1  0  -0.583651  0  1.971727  0  0  -0.541054  0  2.199912  0  0  -0.564712  0  2.189457  0  0  -0.30897  -0.524681  0  2.206624  0
O  O104  1  0.60453507  0.79219253  0.56614490  1  0  -0.583547  0  1.973394  0  0  -0.540923  0  2.201424  0  0  -0.564564  0  2.190958  0  0  -0.308869  -0.524577  0  2.208163  0
O  O105  1  0.60450457  0.20780567  0.93386314  1  0  -0.583344  0  1.972902  0  0  -0.540759  0  2.200993  0  0  -0.564406  0  2.190521  0  0  -0.308782  -0.524404  0  2.207709  0
O  O106  1  0.89550025  0.29219263  0.43386553  1  0  -0.583408  0  1.97226  0  0  -0.540854  0  2.200285  0  0  -0.564512  0  2.189819  0  0  -0.308883  -0.5245  0  2.207012  0
O  O107  1  0.89550192  0.70780540  0.06613748  1  0  -0.583505  0  1.971951  0  0  -0.540851  0  2.200115  0  0  -0.564528  0  2.189654  0  0  -0.308858  -0.524468  0  2.206836  0
O  O108  1  0.78836641  0.83983046  0.28912709  1  0  -0.869097  0  1.754838  0  0  -0.817416  0  1.934962  0  0  -0.837057  0  1.90188  0  0  -0.618857  -0.803274  0  1.958148  0
O  O109  1  0.78840448  0.16017101  0.21087734  1  0  -0.869561  0  1.754367  0  0  -0.817832  0  1.934475  0  0  -0.837478  0  1.90139  0  0  -0.61901  -0.803674  0  1.957719  0
O  O110  1  0.71161265  0.33982870  0.71087978  1  0  -0.869474  0  1.754531  0  0  -0.817748  0  1.934592  0  0  -0.837398  0  1.901506  0  0  -0.618992  -0.803593  0  1.957873  0
O  O111  1  0.71162105  0.66017919  0.78912076  1  0  -0.869532  0  1.754377  0  0  -0.817792  0  1.934475  0  0  -0.837439  0  1.901391  0  0  -0.619062  -0.803638  0  1.957721  0
O  O112  1  0.21159521  0.16017188  0.71087757  1  0  -0.869479  0  1.754365  0  0  -0.81773  0  1.934518  0  0  -0.837375  0  1.901436  0  0  -0.618956  -0.803577  0  1.957722  0
O  O113  1  0.21160030  0.83984357  0.78912191  1  0  -0.86916  0  1.754585  0  0  -0.817418  0  1.934776  0  0  -0.837068  0  1.901699  0  0  -0.618814  -0.803262  0  1.957876  0
O  O114  1  0.28838171  0.66017013  0.28912623  1  0  -0.869388  0  1.754384  0  0  -0.817671  0  1.934591  0  0  -0.83732  0  1.901512  0  0  -0.618923  -0.803519  0  1.957701  0
O  O115  1  0.28841349  0.33983277  0.21087849  1  0  -0.869488  0  1.754396  0  0  -0.817745  0  1.934545  0  0  -0.837395  0  1.901459  0  0  -0.618959  -0.80359  0  1.95774  0
