# generated using pymatgen
data_ZnH11C11NO5
_symmetry_space_group_name_H-M   'P 1'
_cell_length_a   5.93747138
_cell_length_b   8.53331972
_cell_length_c   11.68751360
_cell_angle_alpha   104.32548358
_cell_angle_beta   89.99959442
_cell_angle_gamma   90.00123600
_symmetry_Int_Tables_number   1
_chemical_formula_structural   ZnH11C11NO5
_chemical_formula_sum   'Zn2 H22 C22 N2 O10'
_cell_volume   573.75069093
_cell_formula_units_Z   2
loop_
 _symmetry_equiv_pos_site_id
 _symmetry_equiv_pos_as_xyz
  1  'x, y, z'
loop_
 _atom_site_type_symbol
 _atom_site_label
 _atom_site_symmetry_multiplicity
 _atom_site_fract_x
 _atom_site_fract_y
 _atom_site_fract_z
 _atom_site_occupancy
 _atom_site_hle17_bader_spin_density
 _atom_site_hle17_ddec_charge
 _atom_site_hle17_ddec_spin_density
 _atom_site_hle17_ddec_sum_bond_order
 _atom_site_hle17_magmom
 _atom_site_hse06_10hf_bader_spin_density
 _atom_site_hse06_10hf_ddec_charge
 _atom_site_hse06_10hf_ddec_spin_density
 _atom_site_hse06_10hf_ddec_sum_bond_order
 _atom_site_hse06_10hf_magmom
 _atom_site_hse06_bader_spin_density
 _atom_site_hse06_ddec_charge
 _atom_site_hse06_ddec_spin_density
 _atom_site_hse06_ddec_sum_bond_order
 _atom_site_hse06_magmom
 _atom_site_pbe_bader_spin_density
 _atom_site_pbe_cm5_charge
 _atom_site_pbe_ddec_charge
 _atom_site_pbe_ddec_spin_density
 _atom_site_pbe_ddec_sum_bond_order
 _atom_site_pbe_magmom
Zn  Zn0  1  0.22232534  0.00713396  0.17082316  1  0  1.073902  0  1.736007  0  0  0.889159  0  2.201483  0  0  0.939787  0  2.142823  0  0  0.695859  0.853607  0  2.241798  0
Zn  Zn1  1  0.72233465  0.99286688  0.82917491  1  0  1.074044  0  1.735953  0  0  0.889274  0  2.201429  0  0  0.939899  0  2.142768  0  0  0.695877  0.853715  0  2.24174  0
H  H2  1  0.04378249  0.41839388  0.81368008  1  0  0.370684  0  0.938289  0  0  0.346946  0  1.0087  0  0  0.357548  0  0.993415  0  0  0.287005  0.339486  0  1.01899  0
H  H3  1  0.54379788  0.58160963  0.18631949  1  0  0.370707  0  0.938277  0  0  0.346996  0  1.008652  0  0  0.357555  0  0.993411  0  0  0.286991  0.339539  0  1.018952  0
H  H4  1  0.83141774  0.69767327  0.76851505  1  0  0.256903  0  0.902749  0  0  0.250077  0  0.956892  0  0  0.256049  0  0.952857  0  0  0.299444  0.245731  0  0.96  0
H  H5  1  0.33143614  0.30232928  0.23148795  1  0  0.256881  0  0.902847  0  0  0.250097  0  0.956918  0  0  0.256063  0  0.952894  0  0  0.299455  0.245748  0  0.960036  0
H  H6  1  0.71848186  0.64476932  0.37675440  1  0  0.095623  0  0.950384  0  0  0.10743  0  1.009185  0  0  0.110247  0  1.007675  0  0  0.105602  0.105332  0  1.010446  0
H  H7  1  0.21847451  0.35523549  0.62325372  1  0  0.095586  0  0.950348  0  0  0.107357  0  1.009209  0  0  0.110181  0  1.007668  0  0  0.105562  0.105255  0  1.010472  0
H  H8  1  0.75082163  0.55959765  0.56411380  1  0  0.088888  0  0.972631  0  0  0.098436  0  1.038058  0  0  0.100129  0  1.039893  0  0  0.096874  0.097155  0  1.037054  0
H  H9  1  0.25082559  0.44041287  0.43589280  1  0  0.088918  0  0.972566  0  0  0.098457  0  1.038021  0  0  0.10015  0  1.039857  0  0  0.096899  0.097176  0  1.03702  0
H  H10  1  0.15584429  0.83667524  0.69590641  1  0  0.091338  0  0.960025  0  0  0.101918  0  1.02382  0  0  0.104986  0  1.022391  0  0  0.099351  0.099686  0  1.025041  0
H  H11  1  0.65586348  0.16331619  0.30408217  1  0  0.091319  0  0.959905  0  0  0.101898  0  1.023712  0  0  0.104966  0  1.022283  0  0  0.099358  0.099665  0  1.024945  0
H  H12  1  0.11911185  0.91404792  0.50501362  1  0  0.103906  0  0.963153  0  0  0.111701  0  1.026536  0  0  0.114444  0  1.025755  0  0  0.104226  0.109659  0  1.027308  0
H  H13  1  0.61911851  0.08592805  0.49497144  1  0  0.103921  0  0.963112  0  0  0.111797  0  1.026422  0  0  0.114542  0  1.025633  0  0  0.10427  0.109753  0  1.027197  0
H  H14  1  0.51525819  0.52743450  0.75226254  1  0  0.074477  0  0.911176  0  0  0.09287  0  0.968203  0  0  0.093913  0  0.967202  0  0  0.107041  0.091999  0  0.969118  0
H  H15  1  0.01530296  0.47257192  0.24774598  1  0  0.074319  0  0.91119  0  0  0.092719  0  0.968256  0  0  0.093781  0  0.967228  0  0  0.106968  0.091855  0  0.969171  0
H  H16  1  0.34689214  0.69608528  0.82036481  1  0  0.09319  0  0.931849  0  0  0.107266  0  0.994269  0  0  0.108997  0  0.992805  0  0  0.109929  0.105945  0  0.995412  0
H  H17  1  0.84691768  0.30393992  0.17963597  1  0  0.093133  0  0.931717  0  0  0.107115  0  0.994299  0  0  0.108845  0  0.992831  0  0  0.109872  0.105802  0  0.995446  0
H  H18  1  0.59084777  0.74216380  0.99122207  1  0  0.112453  0  0.900741  0  0  0.125626  0  0.953637  0  0  0.127512  0  0.953196  0  0  0.130461  0.124227  0  0.954172  0
H  H19  1  0.09085516  0.25783717  0.00878496  1  0  0.112514  0  0.900647  0  0  0.125631  0  0.953646  0  0  0.127515  0  0.953205  0  0  0.130463  0.124235  0  0.954173  0
H  H20  1  0.88910190  0.54661683  0.01808502  1  0  0.055429  0  0.943362  0  0  0.068474  0  1.01211  0  0  0.06966  0  1.010684  0  0  0.097213  0.067515  0  1.013271  0
H  H21  1  0.38912264  0.45337666  0.98191243  1  0  0.055426  0  0.94334  0  0  0.068437  0  1.012101  0  0  0.069636  0  1.01066  0  0  0.09724  0.06744  0  1.013301  0
H  H22  1  0.71410661  0.46260866  0.89500142  1  0  0.050976  0  0.94305  0  0  0.062663  0  1.013816  0  0  0.063613  0  1.012775  0  0  0.097938  0.061922  0  1.014636  0
H  H23  1  0.21412214  0.53738991  0.10499881  1  0  0.050999  0  0.942881  0  0  0.062646  0  1.013681  0  0  0.063594  0  1.012644  0  0  0.097938  0.061907  0  1.0145  0
C  C24  1  0.40155136  0.84345612  0.31928484  1  0  0.643086  0  3.907576  0  0  0.593645  0  4.194447  0  0  0.628037  0  4.187711  0  0  0.210447  0.570381  0  4.198174  0
C  C25  1  0.90154404  0.15654079  0.68070979  1  0  0.643023  0  3.907794  0  0  0.593615  0  4.194619  0  0  0.628008  0  4.187882  0  0  0.210364  0.570354  0  4.198338  0
C  C26  1  0.41720659  0.78556689  0.42967842  1  0  -0.081153  0  3.774237  0  0  -0.056683  0  4.006455  0  0  -0.065431  0  4.028934  0  0  -0.020091  -0.05107  0  3.991238  0
C  C27  1  0.91720012  0.21443605  0.57032067  1  0  -0.081227  0  3.77426  0  0  -0.056759  0  4.006472  0  0  -0.065508  0  4.028947  0  0  -0.020109  -0.051142  0  3.991243  0
C  C28  1  0.59358537  0.68411561  0.44626022  1  0  -0.055724  0  3.734324  0  0  -0.081441  0  3.984341  0  0  -0.079966  0  4.003317  0  0  -0.078993  -0.082179  0  3.971575  0
C  C29  1  0.09358454  0.31589000  0.55374245  1  0  -0.055645  0  3.734248  0  0  -0.081328  0  3.984263  0  0  -0.079843  0  4.003235  0  0  -0.07893  -0.082063  0  3.97149  0
C  C30  1  0.61195107  0.63804238  0.55212486  1  0  -0.119209  0  3.728561  0  0  -0.136796  0  3.975574  0  0  -0.141282  0  3.998133  0  0  -0.091776  -0.133806  0  3.96046  0
C  C31  1  0.11195838  0.36196191  0.44787851  1  0  -0.119209  0  3.728544  0  0  -0.136855  0  3.975528  0  0  -0.141343  0  3.998087  0  0  -0.09183  -0.133865  0  3.960418  0
C  C32  1  0.45652326  0.69414604  0.64363982  1  0  0.071693  0  3.748901  0  0  0.092697  0  3.986799  0  0  0.093363  0  4.010755  0  0  -0.009753  0.092376  0  3.970289  0
C  C33  1  0.95653140  0.30585671  0.35636281  1  0  0.071502  0  3.749056  0  0  0.092675  0  3.98678  0  0  0.09334  0  4.010738  0  0  -0.009745  0.092351  0  3.970282  0
C  C34  1  0.27762142  0.79207000  0.62545422  1  0  -0.114193  0  3.729012  0  0  -0.131772  0  3.974606  0  0  -0.136327  0  3.996157  0  0  -0.088222  -0.128734  0  3.960146  0
C  C35  1  0.77762773  0.20792557  0.37454317  1  0  -0.114115  0  3.728903  0  0  -0.131731  0  3.974499  0  0  -0.136288  0  3.996051  0  0  -0.088219  -0.128694  0  3.960049  0
C  C36  1  0.25704767  0.83700832  0.51923570  1  0  -0.047544  0  3.712046  0  0  -0.071725  0  3.956793  0  0  -0.070061  0  3.976206  0  0  -0.078931  -0.072654  0  3.943847  0
C  C37  1  0.75705434  0.16297642  0.48075642  1  0  -0.047496  0  3.711922  0  0  -0.071763  0  3.956689  0  0  -0.070099  0  3.976104  0  0  -0.078959  -0.072691  0  3.94374  0
C  C38  1  0.49201256  0.65832059  0.76213921  1  0  -0.011754  0  3.642978  0  0  -0.078532  0  3.906852  0  0  -0.073938  0  3.915942  0  0  -0.066299  -0.081521  0  3.900488  0
C  C39  1  0.99203529  0.34168557  0.23786582  1  0  -0.011412  0  3.64253  0  0  -0.078216  0  3.906477  0  0  -0.073624  0  3.915554  0  0  -0.066177  -0.081221  0  3.900141  0
C  C40  1  0.91006125  0.85640330  0.00023736  1  0  0.678995  0  3.788043  0  0  0.625871  0  4.082071  0  0  0.660639  0  4.075465  0  0  0.225883  0.602191  0  4.085868  0
C  C41  1  0.41007002  0.14359490  0.99976179  1  0  0.678841  0  3.788141  0  0  0.625723  0  4.082231  0  0  0.660505  0  4.075613  0  0  0.225771  0.602051  0  4.086016  0
C  C42  1  0.74557396  0.72394335  0.93789811  1  0  -0.033429  0  3.604711  0  0  -0.054916  0  3.849279  0  0  -0.057306  0  3.861664  0  0  -0.002838  -0.053463  0  3.841044  0
C  C43  1  0.24558730  0.27605745  0.06210431  1  0  -0.033373  0  3.604475  0  0  -0.05491  0  3.849166  0  0  -0.05731  0  3.861571  0  0  -0.002749  -0.053453  0  3.840922  0
C  C44  1  0.84224161  0.55601655  0.92894847  1  0  0.106118  0  3.66285  0  0  0.039156  0  3.94352  0  0  0.046519  0  3.949114  0  0  -0.081597  0.034235  0  3.939568  0
C  C45  1  0.34225954  0.44398344  0.07105244  1  0  0.106107  0  3.662829  0  0  0.039278  0  3.943435  0  0  0.046634  0  3.949021  0  0  -0.081605  0.034382  0  3.939497  0
N  N46  1  0.69465001  0.74759251  0.81899533  1  0  -0.437781  0  3.257449  0  0  -0.360568  0  3.513598  0  0  -0.379584  0  3.521155  0  0  -0.476407  -0.347319  0  3.508117  0
N  N47  1  0.19466656  0.25240998  0.18100975  1  0  -0.437748  0  3.257247  0  0  -0.360518  0  3.513435  0  0  -0.379531  0  3.520992  0  0  -0.476453  -0.347272  0  3.50799  0
O  O48  1  0.50746436  0.77528678  0.22688903  1  0  -0.614344  0  1.977307  0  0  -0.560504  0  2.19891  0  0  -0.584448  0  2.187945  0  0  -0.3107  -0.543868  0  2.205895  0
O  O49  1  0.00746219  0.22471090  0.77310775  1  0  -0.614311  0  1.977255  0  0  -0.560467  0  2.198844  0  0  -0.58443  0  2.187884  0  0  -0.310676  -0.543834  0  2.205824  0
O  O50  1  0.27462171  0.96874444  0.32577671  1  0  -0.641553  0  2.054744  0  0  -0.565848  0  2.326026  0  0  -0.596698  0  2.313548  0  0  -0.324742  -0.544309  0  2.333897  0
O  O51  1  0.77462489  0.03124629  0.67421902  1  0  -0.641554  0  2.054926  0  0  -0.565878  0  2.326221  0  0  -0.596726  0  2.313741  0  0  -0.324732  -0.544344  0  2.33409  0
O  O52  1  0.94730758  0.97710431  0.95689777  1  0  -0.634803  0  2.055104  0  0  -0.565094  0  2.324152  0  0  -0.593839  0  2.309322  0  0  -0.310723  -0.545129  0  2.333727  0
O  O53  1  0.44730321  0.02288977  0.04309484  1  0  -0.634634  0  2.055149  0  0  -0.565  0  2.32429  0  0  -0.593751  0  2.30946  0  0  -0.31064  -0.545039  0  2.333867  0
O  O54  1  0.00181505  0.83919881  0.09462684  1  0  -0.596623  0  2.030488  0  0  -0.521758  0  2.292102  0  0  -0.550434  0  2.276515  0  0  -0.303395  -0.501883  0  2.302248  0
O  O55  1  0.50182892  0.16080257  0.90537139  1  0  -0.596657  0  2.030457  0  0  -0.521759  0  2.292056  0  0  -0.550439  0  2.276468  0  0  -0.303366  -0.501885  0  2.302193  0
O  O56  1  0.03033965  0.53738724  0.85100223  1  0  -0.579669  0  2.049462  0  0  -0.528368  0  2.27918  0  0  -0.546196  0  2.266077  0  0  -0.422798  -0.515571  0  2.287554  0
O  O57  1  0.53035386  0.46261642  0.14899903  1  0  -0.579741  0  2.049602  0  0  -0.528466  0  2.279182  0  0  -0.546255  0  2.266161  0  0  -0.422844  -0.515666  0  2.287552  0
