# generated using pymatgen
data_CdH14C18N4(ClO2)2
_symmetry_space_group_name_H-M   'P 1'
_cell_length_a   7.89209328
_cell_length_b   10.57311162
_cell_length_c   12.04479605
_cell_angle_alpha   90.00003016
_cell_angle_beta   102.06446035
_cell_angle_gamma   89.99990845
_symmetry_Int_Tables_number   1
_chemical_formula_structural   CdH14C18N4(ClO2)2
_chemical_formula_sum   'Cd2 H28 C36 N8 Cl4 O8'
_cell_volume   982.86694420
_cell_formula_units_Z   2
loop_
 _symmetry_equiv_pos_site_id
 _symmetry_equiv_pos_as_xyz
  1  'x, y, z'
loop_
 _atom_site_type_symbol
 _atom_site_label
 _atom_site_symmetry_multiplicity
 _atom_site_fract_x
 _atom_site_fract_y
 _atom_site_fract_z
 _atom_site_occupancy
 _atom_site_hle17_bader_spin_density
 _atom_site_hle17_ddec_charge
 _atom_site_hle17_ddec_spin_density
 _atom_site_hle17_ddec_sum_bond_order
 _atom_site_hle17_magmom
 _atom_site_hse06_10hf_bader_spin_density
 _atom_site_hse06_10hf_ddec_charge
 _atom_site_hse06_10hf_ddec_spin_density
 _atom_site_hse06_10hf_ddec_sum_bond_order
 _atom_site_hse06_10hf_magmom
 _atom_site_hse06_bader_spin_density
 _atom_site_hse06_ddec_charge
 _atom_site_hse06_ddec_spin_density
 _atom_site_hse06_ddec_sum_bond_order
 _atom_site_hse06_magmom
 _atom_site_pbe_bader_spin_density
 _atom_site_pbe_cm5_charge
 _atom_site_pbe_ddec_charge
 _atom_site_pbe_ddec_spin_density
 _atom_site_pbe_ddec_sum_bond_order
 _atom_site_pbe_magmom
Cd  Cd0  1  0.74999830  0.62083215  0.75000046  1  0  0.962559  0  1.946883  0  0  0.763129  0  2.438821  0  0  0.812685  0  2.395816  0  0  0.640815  0.72845  0  2.467728  0
Cd  Cd1  1  0.24999839  0.37916834  0.24999950  1  0  0.962553  0  1.946883  0  0  0.763124  0  2.438821  0  0  0.812679  0  2.395819  0  0  0.640819  0.728445  0  2.467728  0
H  H2  1  0.21895236  0.37868809  0.89226750  1  0  0.114099  0  0.964592  0  0  0.120091  0  1.030781  0  0  0.123595  0  1.029461  0  0  0.100108  0.117672  0  1.031615  0
H  H3  1  0.28104696  0.37868891  0.60773391  1  0  0.114104  0  0.964534  0  0  0.120089  0  1.030735  0  0  0.123589  0  1.029439  0  0  0.100098  0.117666  0  1.031564  0
H  H4  1  0.78104693  0.62131146  0.10773447  1  0  0.114111  0  0.964597  0  0  0.120096  0  1.030791  0  0  0.123596  0  1.029487  0  0  0.100106  0.117676  0  1.031626  0
H  H5  1  0.71895362  0.62131253  0.39226741  1  0  0.114106  0  0.964602  0  0  0.120094  0  1.030794  0  0  0.123598  0  1.029478  0  0  0.10011  0.117669  0  1.031626  0
H  H6  1  0.39401347  0.19999322  0.98949756  1  0  0.112825  0  0.944838  0  0  0.120468  0  1.00758  0  0  0.12388  0  1.004368  0  0  0.109549  0.117936  0  1.009927  0
H  H7  1  0.10599010  0.19999325  0.51050269  1  0  0.11278  0  0.944861  0  0  0.120408  0  1.007618  0  0  0.123818  0  1.00441  0  0  0.109518  0.117876  0  1.009967  0
H  H8  1  0.60598970  0.80000728  0.01050411  1  0  0.112779  0  0.94488  0  0  0.120406  0  1.007639  0  0  0.123815  0  1.004432  0  0  0.109511  0.117874  0  1.009984  0
H  H9  1  0.89401307  0.80000725  0.48949732  1  0  0.112796  0  0.944838  0  0  0.120428  0  1.007598  0  0  0.123838  0  1.00439  0  0  0.109505  0.117891  0  1.009946  0
H  H10  1  0.71199483  0.18838623  0.98248268  1  0  0.117283  0  0.935833  0  0  0.12515  0  0.996347  0  0  0.128438  0  0.995468  0  0  0.10998  0.122653  0  0.997465  0
H  H11  1  0.78800915  0.18838415  0.51751655  1  0  0.117285  0  0.935831  0  0  0.125159  0  0.996337  0  0  0.128446  0  0.995459  0  0  0.109987  0.122661  0  0.997459  0
H  H12  1  0.28800704  0.81161616  0.01751549  1  0  0.117291  0  0.935848  0  0  0.125167  0  0.996347  0  0  0.128454  0  0.995469  0  0  0.109983  0.122673  0  0.997465  0
H  H13  1  0.21199531  0.81161351  0.48248364  1  0  0.117268  0  0.935842  0  0  0.125131  0  0.99636  0  0  0.128418  0  0.995481  0  0  0.109974  0.122631  0  0.997484  0
H  H14  1  0.83655277  0.35794453  0.88054486  1  0  0.081316  0  0.955628  0  0  0.087982  0  1.022532  0  0  0.090533  0  1.020361  0  0  0.106553  0.086024  0  1.024246  0
H  H15  1  0.66344697  0.35793888  0.61945470  1  0  0.08129  0  0.955626  0  0  0.087911  0  1.022583  0  0  0.090462  0  1.020411  0  0  0.106523  0.085948  0  1.024299  0
H  H16  1  0.16344651  0.64206069  0.11945462  1  0  0.081291  0  0.955631  0  0  0.087909  0  1.022598  0  0  0.090461  0  1.020426  0  0  0.106529  0.08595  0  1.024312  0
H  H17  1  0.33655361  0.64205594  0.38054578  1  0  0.081312  0  0.95564  0  0  0.087976  0  1.022548  0  0  0.090527  0  1.020377  0  0  0.106547  0.086014  0  1.024262  0
H  H18  1  0.43149827  0.12273767  0.57127076  1  0  0.111799  0  0.960508  0  0  0.129027  0  1.020683  0  0  0.130335  0  1.019474  0  0  0.095881  0.127908  0  1.021723  0
H  H19  1  0.06850158  0.12273989  0.92872977  1  0  0.111784  0  0.960513  0  0  0.129017  0  1.020684  0  0  0.130325  0  1.019475  0  0  0.095881  0.127902  0  1.021722  0
H  H20  1  0.56849972  0.87725999  0.42872854  1  0  0.111797  0  0.960495  0  0  0.129033  0  1.020659  0  0  0.130341  0  1.019452  0  0  0.095895  0.12792  0  1.02169  0
H  H21  1  0.93149900  0.87726345  0.07126988  1  0  0.111811  0  0.960515  0  0  0.129041  0  1.020685  0  0  0.130348  0  1.019476  0  0  0.095897  0.127927  0  1.021719  0
H  H22  1  0.62502450  0.05399717  0.65697724  1  0  0.103744  0  0.941962  0  0  0.119067  0  1.009595  0  0  0.11976  0  1.008791  0  0  0.10524  0.118353  0  1.010318  0
H  H23  1  0.87497458  0.05399992  0.84302209  1  0  0.103759  0  0.941912  0  0  0.119071  0  1.009563  0  0  0.119763  0  1.008758  0  0  0.105245  0.118358  0  1.010283  0
H  H24  1  0.37497478  0.94600049  0.34302141  1  0  0.103751  0  0.941928  0  0  0.119071  0  1.009569  0  0  0.119764  0  1.008764  0  0  0.105245  0.118356  0  1.010297  0
H  H25  1  0.12502470  0.94600152  0.15697656  1  0  0.103852  0  0.941891  0  0  0.119132  0  1.009554  0  0  0.119824  0  1.00875  0  0  0.105278  0.11842  0  1.010271  0
H  H26  1  0.48967464  0.15490418  0.72150913  1  0  0.084201  0  0.954627  0  0  0.100085  0  1.023012  0  0  0.099509  0  1.024701  0  0  0.094293  0.100504  0  1.021589  0
H  H27  1  0.01032514  0.15490448  0.77848975  1  0  0.084159  0  0.954658  0  0  0.100049  0  1.023038  0  0  0.09947  0  1.024729  0  0  0.094283  0.100467  0  1.021622  0
H  H28  1  0.51032464  0.84509537  0.27848952  1  0  0.08416  0  0.954643  0  0  0.100049  0  1.023023  0  0  0.099472  0  1.024714  0  0  0.094285  0.100471  0  1.021601  0
H  H29  1  0.98967415  0.84509507  0.22150890  1  0  0.084193  0  0.954627  0  0  0.100078  0  1.023001  0  0  0.099501  0  1.02469  0  0  0.09429  0.100498  0  1.021586  0
C  C30  1  0.34137918  0.79016855  0.76462913  1  0  0.072739  0  3.717362  0  0  0.061269  0  3.978941  0  0  0.062966  0  3.992723  0  0  0.135392  0.059718  0  3.969793  0
C  C31  1  0.15861538  0.79016865  0.73536934  1  0  0.073077  0  3.717191  0  0  0.061432  0  3.978821  0  0  0.06313  0  3.992602  0  0  0.135464  0.059875  0  3.969675  0
C  C32  1  0.65861880  0.20983006  0.23537018  1  0  0.072821  0  3.717241  0  0  0.061224  0  3.978883  0  0  0.062917  0  3.992664  0  0  0.135356  0.059678  0  3.969736  0
C  C33  1  0.84138649  0.20982901  0.26463299  1  0  0.073083  0  3.717115  0  0  0.061428  0  3.978828  0  0  0.063122  0  3.992615  0  0  0.135506  0.059877  0  3.969675  0
C  C34  1  0.33818970  0.57233864  0.77886833  1  0  0.127646  0  3.70267  0  0  0.118899  0  3.951114  0  0  0.124005  0  3.967046  0  0  0.138276  0.114796  0  3.940916  0
C  C35  1  0.16181051  0.57233684  0.72113329  1  0  0.127497  0  3.702667  0  0  0.118745  0  3.951132  0  0  0.123854  0  3.967063  0  0  0.138223  0.114648  0  3.940925  0
C  C36  1  0.66181218  0.42766186  0.22113317  1  0  0.127584  0  3.70264  0  0  0.118826  0  3.951101  0  0  0.123933  0  3.967037  0  0  0.138245  0.11473  0  3.94089  0
C  C37  1  0.83819137  0.42766177  0.27886820  1  0  0.127503  0  3.702744  0  0  0.118757  0  3.951185  0  0  0.123867  0  3.96712  0  0  0.138228  0.114657  0  3.940975  0
C  C38  1  0.43412535  0.45945981  0.83035496  1  0  0.180165  0  3.773133  0  0  0.177063  0  4.013402  0  0  0.182734  0  4.034917  0  0  0.116978  0.173258  0  3.999106  0
C  C39  1  0.06587379  0.45945904  0.66964480  1  0  0.18033  0  3.77312  0  0  0.177195  0  4.013426  0  0  0.182868  0  4.034938  0  0  0.11702  0.173389  0  3.999123  0
C  C40  1  0.56587264  0.54054068  0.16964434  1  0  0.180204  0  3.77313  0  0  0.177084  0  4.013409  0  0  0.182755  0  4.034924  0  0  0.116967  0.17328  0  3.999112  0
C  C41  1  0.93412549  0.54054051  0.33035468  1  0  0.180194  0  3.773116  0  0  0.177091  0  4.013387  0  0  0.182758  0  4.034903  0  0  0.116973  0.173282  0  3.999088  0
C  C42  1  0.35419465  0.36867203  0.88654800  1  0  -0.138513  0  3.688958  0  0  -0.157774  0  3.936816  0  0  -0.164706  0  3.958257  0  0  -0.079816  -0.1534  0  3.922451  0
C  C43  1  0.14580339  0.36867208  0.61345323  1  0  -0.13859  0  3.688951  0  0  -0.157841  0  3.936829  0  0  -0.164775  0  3.958257  0  0  -0.079827  -0.153461  0  3.922451  0
C  C44  1  0.64580593  0.63132752  0.11345331  1  0  -0.13851  0  3.688916  0  0  -0.157767  0  3.936779  0  0  -0.164696  0  3.958205  0  0  -0.07978  -0.153392  0  3.922415  0
C  C45  1  0.85419460  0.63132842  0.38654690  1  0  -0.138467  0  3.688861  0  0  -0.157711  0  3.936711  0  0  -0.164641  0  3.958148  0  0  -0.079795  -0.153332  0  3.922334  0
C  C46  1  0.45279121  0.26889531  0.94171597  1  0  0.011486  0  3.677971  0  0  -0.008932  0  3.930571  0  0  -0.005007  0  3.947135  0  0  -0.062694  -0.011177  0  3.919384  0
C  C47  1  0.04721093  0.26889544  0.55828578  1  0  0.011545  0  3.677967  0  0  -0.008852  0  3.930579  0  0  -0.004926  0  3.947143  0  0  -0.062672  -0.011099  0  3.919391  0
C  C48  1  0.54720937  0.73110519  0.05828535  1  0  0.011552  0  3.678015  0  0  -0.008849  0  3.930633  0  0  -0.004925  0  3.947199  0  0  -0.062657  -0.011094  0  3.919447  0
C  C49  1  0.95279354  0.73110506  0.44171524  1  0  0.011424  0  3.67795  0  0  -0.009016  0  3.930595  0  0  -0.005091  0  3.947159  0  0  -0.062694  -0.011256  0  3.919401  0
C  C50  1  0.62838544  0.26293953  0.93898071  1  0  -0.099951  0  3.68615  0  0  -0.114954  0  3.941203  0  0  -0.121162  0  3.961413  0  0  -0.07747  -0.111368  0  3.928158  0
C  C51  1  0.87161580  0.26293549  0.56101902  1  0  -0.099995  0  3.686068  0  0  -0.115025  0  3.941127  0  0  -0.12123  0  3.961332  0  0  -0.0775  -0.111441  0  3.928086  0
C  C52  1  0.37161643  0.73706475  0.06101913  1  0  -0.100003  0  3.686197  0  0  -0.115031  0  3.941251  0  0  -0.121236  0  3.961457  0  0  -0.077499  -0.11145  0  3.928213  0
C  C53  1  0.12838608  0.73706122  0.43898082  1  0  -0.099878  0  3.686092  0  0  -0.114854  0  3.94112  0  0  -0.121062  0  3.96133  0  0  -0.07744  -0.111275  0  3.928084  0
C  C54  1  0.69882649  0.35748874  0.88167486  1  0  0.129207  0  3.709051  0  0  0.098001  0  3.963065  0  0  0.104728  0  3.981194  0  0  0.045184  0.093686  0  3.950645  0
C  C55  1  0.80117326  0.35748577  0.61832637  1  0  0.12928  0  3.708966  0  0  0.098134  0  3.962955  0  0  0.104863  0  3.981082  0  0  0.045206  0.093821  0  3.95053  0
C  C56  1  0.30117539  0.64251364  0.11832581  1  0  0.129284  0  3.709052  0  0  0.098127  0  3.963041  0  0  0.104856  0  3.98117  0  0  0.045191  0.093814  0  3.95062  0
C  C57  1  0.19882602  0.64251095  0.38167394  1  0  0.129195  0  3.709036  0  0  0.097991  0  3.963041  0  0  0.10472  0  3.98117  0  0  0.045187  0.09368  0  3.950618  0
C  C58  1  0.45062496  0.90644740  0.76458679  1  0  0.56255  0  3.824583  0  0  0.508825  0  4.129803  0  0  0.541375  0  4.120231  0  0  0.237678  0.486608  0  4.135953  0
C  C59  1  0.04937195  0.90644858  0.73541205  1  0  0.562502  0  3.824535  0  0  0.508986  0  4.129505  0  0  0.54154  0  4.119925  0  0  0.237753  0.486768  0  4.135656  0
C  C60  1  0.54937432  0.09355120  0.23541269  1  0  0.562508  0  3.824547  0  0  0.509035  0  4.129434  0  0  0.541603  0  4.119829  0  0  0.23774  0.48679  0  4.135625  0
C  C61  1  0.95063122  0.09355002  0.26459212  1  0  0.562515  0  3.824521  0  0  0.508962  0  4.129559  0  0  0.541522  0  4.119969  0  0  0.237759  0.486736  0  4.135725  0
C  C62  1  0.49142763  0.08471763  0.65466332  1  0  -0.074739  0  3.564885  0  0  -0.171524  0  3.822079  0  0  -0.163748  0  3.824985  0  0  -0.144509  -0.17648  0  3.819845  0
C  C63  1  0.00857230  0.08472081  0.84533638  1  0  -0.074668  0  3.564884  0  0  -0.171454  0  3.822081  0  0  -0.163675  0  3.824988  0  0  -0.144515  -0.176428  0  3.819859  0
C  C64  1  0.50857036  0.91528097  0.34533599  1  0  -0.074656  0  3.564836  0  0  -0.171454  0  3.822041  0  0  -0.163677  0  3.824949  0  0  -0.14451  -0.176422  0  3.819796  0
C  C65  1  0.99142958  0.91528157  0.15466345  1  0  -0.074849  0  3.5649  0  0  -0.171598  0  3.822112  0  0  -0.163823  0  3.825027  0  0  -0.144564  -0.176564  0  3.819867  0
N  N66  1  0.42515448  0.68162430  0.79198828  1  0  -0.276742  0  3.177687  0  0  -0.235774  0  3.437862  0  0  -0.247372  0  3.454952  0  0  -0.274452  -0.226938  0  3.425989  0
N  N67  1  0.07484161  0.68162449  0.70801200  1  0  -0.276735  0  3.17756  0  0  -0.235725  0  3.437765  0  0  -0.247325  0  3.454857  0  0  -0.274421  -0.226884  0  3.425882  0
N  N68  1  0.57484481  0.31837525  0.20801203  1  0  -0.276656  0  3.1776  0  0  -0.235652  0  3.437783  0  0  -0.247252  0  3.454878  0  0  -0.274382  -0.226815  0  3.4259  0
N  N69  1  0.92515767  0.31837506  0.29198997  1  0  -0.276777  0  3.177646  0  0  -0.235768  0  3.437884  0  0  -0.24737  0  3.45498  0  0  -0.27445  -0.226927  0  3.425994  0
N  N70  1  0.60445457  0.45342932  0.82807150  1  0  -0.35451  0  3.238238  0  0  -0.282477  0  3.495993  0  0  -0.301228  0  3.514884  0  0  -0.32176  -0.269593  0  3.482903  0
N  N71  1  0.89554368  0.45342815  0.67192874  1  0  -0.354592  0  3.23829  0  0  -0.282545  0  3.496026  0  0  -0.301298  0  3.514917  0  0  -0.321755  -0.269661  0  3.482934  0
N  N72  1  0.39554471  0.54657307  0.17192798  1  0  -0.354581  0  3.238323  0  0  -0.282524  0  3.496034  0  0  -0.301276  0  3.514927  0  0  -0.321751  -0.269645  0  3.482956  0
N  N73  1  0.10445561  0.54657140  0.32807074  1  0  -0.354517  0  3.238235  0  0  -0.282489  0  3.495997  0  0  -0.301238  0  3.514889  0  0  -0.321776  -0.269607  0  3.482908  0
Cl  Cl74  1  0.92240074  0.69624983  0.93045846  1  0  -0.584334  0  0.911601  0  0  -0.523841  0  1.181988  0  0  -0.542282  0  1.162791  0  0  -0.327933  -0.510125  0  1.195025  0
Cl  Cl75  1  0.57759960  0.69624992  0.56954217  1  0  -0.584315  0  0.911603  0  0  -0.523835  0  1.182001  0  0  -0.542277  0  1.162802  0  0  -0.327928  -0.51012  0  1.195037  0
Cl  Cl76  1  0.07759984  0.30374972  0.06954203  1  0  -0.584311  0  0.911619  0  0  -0.523837  0  1.182031  0  0  -0.542278  0  1.162832  0  0  -0.327924  -0.510122  0  1.195073  0
Cl  Cl77  1  0.42239969  0.30375057  0.43045814  1  0  -0.58432  0  0.911563  0  0  -0.523833  0  1.181959  0  0  -0.542275  0  1.162764  0  0  -0.327934  -0.510118  0  1.194996  0
O  O78  1  0.57941970  0.93131420  0.83682669  1  0  -0.484733  0  1.931508  0  0  -0.448731  0  2.142367  0  0  -0.467391  0  2.135278  0  0  -0.260652  -0.435784  0  2.147166  0
O  O79  1  0.92057366  0.93131678  0.66316812  1  0  -0.484764  0  1.931382  0  0  -0.448837  0  2.142146  0  0  -0.4675  0  2.135056  0  0  -0.260669  -0.435886  0  2.146948  0
O  O80  1  0.42057570  0.06868440  0.16316811  1  0  -0.484755  0  1.931363  0  0  -0.448841  0  2.142093  0  0  -0.467508  0  2.134994  0  0  -0.260668  -0.435883  0  2.146909  0
O  O81  1  0.07942692  0.06868182  0.33682988  1  0  -0.484753  0  1.931464  0  0  -0.448797  0  2.142234  0  0  -0.467458  0  2.13514  0  0  -0.260683  -0.435844  0  2.147042  0
O  O82  1  0.38720821  0.97612700  0.67168129  1  0  -0.276902  0  2.297807  0  0  -0.203526  0  2.536815  0  0  -0.225344  0  2.535605  0  0  -0.166267  -0.188517  0  2.536985  0
O  O83  1  0.11278726  0.97612815  0.82831572  1  0  -0.276941  0  2.297978  0  0  -0.20361  0  2.536921  0  0  -0.22543  0  2.535705  0  0  -0.166294  -0.188592  0  2.537087  0
O  O84  1  0.61278718  0.02387255  0.32831517  1  0  -0.276944  0  2.29797  0  0  -0.20363  0  2.536907  0  0  -0.225454  0  2.535685  0  0  -0.166294  -0.188601  0  2.537081  0
O  O85  1  0.88721332  0.02387234  0.17168477  1  0  -0.276948  0  2.297925  0  0  -0.203604  0  2.536869  0  0  -0.225426  0  2.535652  0  0  -0.16632  -0.188584  0  2.537039  0
