# generated using pymatgen
data_CdH20C20(NO)4
_symmetry_space_group_name_H-M   'P 1'
_cell_length_a   8.38480559
_cell_length_b   8.87110856
_cell_length_c   14.80791468
_cell_angle_alpha   82.81093503
_cell_angle_beta   77.38768774
_cell_angle_gamma   68.85225950
_symmetry_Int_Tables_number   1
_chemical_formula_structural   CdH20C20(NO)4
_chemical_formula_sum   'Cd2 H40 C40 N8 O8'
_cell_volume   1001.18097241
_cell_formula_units_Z   2
loop_
 _symmetry_equiv_pos_site_id
 _symmetry_equiv_pos_as_xyz
  1  'x, y, z'
loop_
 _atom_site_type_symbol
 _atom_site_label
 _atom_site_symmetry_multiplicity
 _atom_site_fract_x
 _atom_site_fract_y
 _atom_site_fract_z
 _atom_site_occupancy
 _atom_site_hle17_bader_spin_density
 _atom_site_hle17_ddec_charge
 _atom_site_hle17_ddec_spin_density
 _atom_site_hle17_ddec_sum_bond_order
 _atom_site_hle17_magmom
 _atom_site_hse06_10hf_bader_spin_density
 _atom_site_hse06_10hf_ddec_charge
 _atom_site_hse06_10hf_ddec_spin_density
 _atom_site_hse06_10hf_ddec_sum_bond_order
 _atom_site_hse06_10hf_magmom
 _atom_site_hse06_bader_spin_density
 _atom_site_hse06_ddec_charge
 _atom_site_hse06_ddec_spin_density
 _atom_site_hse06_ddec_sum_bond_order
 _atom_site_hse06_magmom
 _atom_site_pbe_bader_spin_density
 _atom_site_pbe_cm5_charge
 _atom_site_pbe_ddec_charge
 _atom_site_pbe_ddec_spin_density
 _atom_site_pbe_ddec_sum_bond_order
 _atom_site_pbe_magmom
Cd  Cd0  1  0.00166656  0.94431965  0.24466576  1  0  1.083822  0  1.709692  0  0  0.885488  0  2.159022  0  0  0.943965  0  2.108585  0  0  0.770208  0.844174  0  2.193314  0
Cd  Cd1  1  0.99833338  0.05568263  0.75533410  1  0  1.083823  0  1.709659  0  0  0.885492  0  2.158981  0  0  0.943969  0  2.108546  0  0  0.770203  0.844178  0  2.193273  0
H  H2  1  0.53463932  0.96909707  0.19583191  1  0  0.098861  0  0.975805  0  0  0.107652  0  1.044027  0  0  0.110755  0  1.04253  0  0  0.103326  0.105376  0  1.045203  0
H  H3  1  0.46536106  0.03090399  0.80416865  1  0  0.098888  0  0.97583  0  0  0.10767  0  1.04405  0  0  0.11078  0  1.042543  0  0  0.103345  0.105393  0  1.045225  0
H  H4  1  0.05806909  0.35398271  0.28774934  1  0  0.093103  0  0.973467  0  0  0.102568  0  1.037264  0  0  0.105355  0  1.036096  0  0  0.099494  0.100536  0  1.038208  0
H  H5  1  0.94193048  0.64601716  0.71225074  1  0  0.093092  0  0.973487  0  0  0.10255  0  1.037292  0  0  0.105338  0  1.036121  0  0  0.099491  0.100519  0  1.038237  0
H  H6  1  0.10817165  0.51433426  0.14074789  1  0  0.093929  0  0.949923  0  0  0.105915  0  1.005639  0  0  0.108979  0  1.004365  0  0  0.101252  0.103708  0  1.006624  0
H  H7  1  0.89182793  0.48566561  0.85925219  1  0  0.093924  0  0.949923  0  0  0.105909  0  1.005639  0  0  0.108973  0  1.004367  0  0  0.101252  0.103703  0  1.006624  0
H  H8  1  0.36836663  0.40151614  0.02014168  1  0  0.090744  0  0.94897  0  0  0.107345  0  1.002312  0  0  0.109918  0  1.001383  0  0  0.103176  0.105483  0  1.003067  0
H  H9  1  0.63163293  0.59848374  0.97985705  1  0  0.090747  0  0.948956  0  0  0.107348  0  1.002297  0  0  0.10992  0  1.001369  0  0  0.103174  0.105486  0  1.003052  0
H  H10  1  0.99313381  0.82952574  0.95087158  1  0  0.104239  0  0.925009  0  0  0.11682  0  0.980087  0  0  0.119472  0  0.977182  0  0  0.140575  0.114823  0  0.982244  0
H  H11  1  0.00686498  0.17047293  0.04912870  1  0  0.104244  0  0.925017  0  0  0.116826  0  0.980096  0  0  0.119477  0  0.977194  0  0  0.140575  0.114829  0  0.982254  0
H  H12  1  0.60398438  0.27193531  0.90036224  1  0  0.099503  0  0.994183  0  0  0.109551  0  1.059702  0  0  0.111425  0  1.059275  0  0  0.113408  0.108197  0  1.06003  0
H  H13  1  0.39601193  0.72806339  0.09963700  1  0  0.099484  0  0.994249  0  0  0.109592  0  1.059695  0  0  0.111472  0  1.059272  0  0  0.113406  0.108235  0  1.060025  0
H  H14  1  0.09959383  0.79167543  0.45689213  1  0  0.102461  0  0.91484  0  0  0.117531  0  0.967431  0  0  0.119784  0  0.964901  0  0  0.143362  0.115808  0  0.969318  0
H  H15  1  0.90040356  0.20833049  0.54310710  1  0  0.102456  0  0.914832  0  0  0.117523  0  0.967431  0  0  0.119778  0  0.9649  0  0  0.143338  0.1158  0  0.969318  0
H  H16  1  0.39826589  0.09494292  0.43958688  1  0  0.124006  0  0.941851  0  0  0.135778  0  0.998099  0  0  0.139202  0  0.995762  0  0  0.126025  0.133273  0  0.999912  0
H  H17  1  0.60173203  0.90505817  0.56041333  1  0  0.124063  0  0.941823  0  0  0.135822  0  0.998073  0  0  0.139246  0  0.995735  0  0  0.12606  0.133316  0  0.999887  0
H  H18  1  0.55693079  0.75226996  0.30824645  1  0  0.070704  0  0.92279  0  0  0.08515  0  0.980631  0  0  0.085766  0  0.982435  0  0  0.098882  0.084691  0  0.979522  0
H  H19  1  0.44307536  0.24772863  0.69175289  1  0  0.070666  0  0.922874  0  0  0.085126  0  0.980729  0  0  0.085737  0  0.98253  0  0  0.098888  0.084668  0  0.979617  0
H  H20  1  0.80978755  0.48917425  0.17908997  1  0  0.073478  0  0.947044  0  0  0.090971  0  1.009577  0  0  0.091943  0  1.00991  0  0  0.087889  0.090236  0  1.009381  0
H  H21  1  0.19021326  0.51082561  0.82090996  1  0  0.073467  0  0.947047  0  0  0.090959  0  1.009582  0  0  0.09193  0  1.009916  0  0  0.087882  0.090224  0  1.009386  0
H  H22  1  0.66494671  0.67779667  0.14599980  1  0  0.059089  0  0.961147  0  0  0.07337  0  1.031806  0  0  0.074862  0  1.03113  0  0  0.082864  0.072251  0  1.032368  0
H  H23  1  0.33505656  0.32220316  0.85400049  1  0  0.059072  0  0.961199  0  0  0.073357  0  1.031852  0  0  0.074846  0  1.031179  0  0  0.082867  0.072239  0  1.032414  0
H  H24  1  0.41129792  0.60001176  0.22741649  1  0  0.055511  0  0.937674  0  0  0.075869  0  0.999711  0  0  0.076268  0  0.999883  0  0  0.084927  0.075512  0  0.999718  0
H  H25  1  0.58870451  0.39999048  0.77258507  1  0  0.055497  0  0.937668  0  0  0.075862  0  0.999705  0  0  0.076261  0  0.999873  0  0  0.08492  0.075502  0  0.999718  0
H  H26  1  0.55113480  0.45021585  0.14914480  1  0  0.065614  0  0.960631  0  0  0.080199  0  1.028906  0  0  0.081346  0  1.028987  0  0  0.08511  0.079357  0  1.028919  0
H  H27  1  0.44886558  0.54978521  0.85085576  1  0  0.065571  0  0.960631  0  0  0.080178  0  1.028896  0  0  0.081321  0  1.028976  0  0  0.085103  0.079336  0  1.028908  0
H  H28  1  0.43838484  0.33953333  0.30385390  1  0  0.074447  0  0.939359  0  0  0.08894  0  0.993868  0  0  0.089801  0  0.995687  0  0  0.099965  0.088339  0  0.992674  0
H  H29  1  0.56161345  0.66047017  0.69614676  1  0  0.07451  0  0.939361  0  0  0.088964  0  0.993912  0  0  0.089824  0  0.995735  0  0  0.099979  0.088364  0  0.992716  0
H  H30  1  0.41665533  0.55189743  0.39966095  1  0  0.062129  0  0.939539  0  0  0.081071  0  1.002381  0  0  0.081691  0  1.002833  0  0  0.086901  0.080588  0  1.002079  0
H  H31  1  0.58334751  0.44810361  0.60033930  1  0  0.062132  0  0.93954  0  0  0.081068  0  1.002396  0  0  0.081687  0  1.002851  0  0  0.0869  0.080589  0  1.00209  0
H  H32  1  0.55083008  0.36498144  0.44216209  1  0  0.063232  0  0.962516  0  0  0.077855  0  1.03111  0  0  0.078987  0  1.031177  0  0  0.086916  0.076989  0  1.031158  0
H  H33  1  0.44916907  0.63501964  0.55783863  1  0  0.063236  0  0.962568  0  0  0.077871  0  1.031149  0  0  0.079004  0  1.031216  0  0  0.086921  0.077004  0  1.031199  0
H  H34  1  0.68268244  0.58046892  0.43690630  1  0  0.072019  0  0.945001  0  0  0.088557  0  1.007807  0  0  0.090299  0  1.006719  0  0  0.08911  0.087281  0  1.008633  0
H  H35  1  0.31732170  0.41952849  0.56309406  1  0  0.072038  0  0.944987  0  0  0.088573  0  1.007795  0  0  0.090316  0  1.006704  0  0  0.089106  0.087297  0  1.00862  0
H  H36  1  0.81647302  0.42680131  0.36197135  1  0  0.058837  0  0.948873  0  0  0.080008  0  1.007827  0  0  0.080638  0  1.007937  0  0  0.08578  0.079474  0  1.007872  0
H  H37  1  0.18352741  0.57319614  0.63802745  1  0  0.058857  0  0.94884  0  0  0.080059  0  1.007757  0  0  0.080668  0  1.007895  0  0  0.085803  0.079523  0  1.007805  0
H  H38  1  0.77299055  0.89540274  0.10247264  1  0  0.318904  0  0.931575  0  0  0.297359  0  0.997016  0  0  0.306888  0  0.988648  0  0  0.308792  0.290611  0  1.003003  0
H  H39  1  0.22700780  0.10459714  0.89752760  1  0  0.31892  0  0.931577  0  0  0.297371  0  0.997018  0  0  0.3069  0  0.988649  0  0  0.308796  0.290623  0  1.003005  0
H  H40  1  0.27017140  0.89692239  0.54524609  1  0  0.318482  0  0.942181  0  0  0.295507  0  1.008283  0  0  0.305355  0  1.000169  0  0  0.305026  0.288546  0  1.01406  0
H  H41  1  0.72982652  0.10307870  0.45475411  1  0  0.318478  0  0.942193  0  0  0.295498  0  1.008301  0  0  0.305344  0  1.000189  0  0  0.305011  0.288538  0  1.014078  0
C  C42  1  0.47077266  0.17607412  0.09881955  1  0  0.044744  0  3.820733  0  0  0.060942  0  4.058343  0  0  0.061652  0  4.080975  0  0  -0.00514  0.060368  0  4.043097  0
C  C43  1  0.52922736  0.82392454  0.90118057  1  0  0.044746  0  3.820776  0  0  0.060949  0  4.058352  0  0  0.061659  0  4.080984  0  0  -0.005126  0.060374  0  4.043105  0
C  C44  1  0.44106552  0.08794024  0.18247573  1  0  -0.125676  0  3.665204  0  0  -0.157271  0  3.913825  0  0  -0.159545  0  3.932912  0  0  -0.085681  -0.155604  0  3.900972  0
C  C45  1  0.55893407  0.91205962  0.81752503  1  0  -0.125735  0  3.665268  0  0  -0.157313  0  3.913882  0  0  -0.159593  0  3.932967  0  0  -0.085698  -0.155647  0  3.90103  0
C  C46  1  0.29252682  0.14966310  0.25013964  1  0  0.031093  0  3.826093  0  0  0.049003  0  4.063971  0  0  0.048192  0  4.088056  0  0  -0.010499  0.049529  0  4.047678  0
C  C47  1  0.70747232  0.85033798  0.74986040  1  0  0.031133  0  3.826067  0  0  0.049026  0  4.063962  0  0  0.048214  0  4.08805  0  0  -0.010489  0.049552  0  4.047669  0
C  C48  1  0.17248281  0.30393330  0.23469796  1  0  -0.107376  0  3.731326  0  0  -0.131497  0  3.982388  0  0  -0.13365  0  4.003152  0  0  -0.089605  -0.129945  0  3.968341  0
C  C49  1  0.82751754  0.69606777  0.76530059  1  0  -0.107384  0  3.73131  0  0  -0.131495  0  3.982382  0  0  -0.133645  0  4.003142  0  0  -0.089599  -0.129943  0  3.968334  0
C  C50  1  0.20085595  0.39351928  0.15196608  1  0  -0.061333  0  3.783212  0  0  -0.072341  0  4.033921  0  0  -0.074405  0  4.055365  0  0  -0.089692  -0.070945  0  4.019391  0
C  C51  1  0.79914485  0.60648057  0.84803317  1  0  -0.061297  0  3.78315  0  0  -0.072304  0  4.033859  0  0  -0.074366  0  4.055303  0  0  -0.089685  -0.070908  0  4.019329  0
C  C52  1  0.34763330  0.33007357  0.08431240  1  0  -0.108842  0  3.734771  0  0  -0.130491  0  3.979969  0  0  -0.132453  0  3.999918  0  0  -0.086463  -0.129051  0  3.966445  0
C  C53  1  0.65236873  0.66992627  0.91568737  1  0  -0.108872  0  3.734708  0  0  -0.130528  0  3.979915  0  0  -0.132491  0  3.999863  0  0  -0.086492  -0.129088  0  3.96639  0
C  C54  1  0.87481548  0.93429880  0.96116908  1  0  0.23279  0  3.672455  0  0  0.17017  0  3.947087  0  0  0.184795  0  3.960071  0  0  0.145958  0.160772  0  3.937809  0
C  C55  1  0.12518374  0.06569866  0.03883055  1  0  0.232834  0  3.67254  0  0  0.170206  0  3.947165  0  0  0.18483  0  3.960147  0  0  0.146007  0.160806  0  3.937887  0
C  C56  1  0.67190873  0.16342926  0.93804749  1  0  -0.053747  0  3.716575  0  0  -0.09256  0  3.980471  0  0  -0.091855  0  4.002009  0  0  -0.005581  -0.092969  0  3.965832  0
C  C57  1  0.32808758  0.83656944  0.06195175  1  0  -0.053704  0  3.716605  0  0  -0.092571  0  3.98046  0  0  -0.091876  0  4.002004  0  0  -0.005564  -0.092979  0  3.96582  0
C  C58  1  0.62418345  0.10907355  0.02823750  1  0  0.12763  0  3.765773  0  0  0.114178  0  4.022135  0  0  0.117377  0  4.044519  0  0  0.085085  0.112003  0  4.007123  0
C  C59  1  0.37581410  0.89092514  0.97176226  1  0  0.12764  0  3.765805  0  0  0.114205  0  4.022135  0  0  0.117404  0  4.044521  0  0  0.085086  0.112031  0  4.007122  0
C  C60  1  0.16670790  0.87636170  0.42882174  1  0  0.219584  0  3.693692  0  0  0.153992  0  3.97317  0  0  0.169048  0  3.985294  0  0  0.141752  0.144207  0  3.964565  0
C  C61  1  0.83329087  0.12363697  0.57117786  1  0  0.219586  0  3.693753  0  0  0.153994  0  3.97322  0  0  0.169045  0  3.985349  0  0  0.141791  0.144208  0  3.964615  0
C  C62  1  0.32027084  0.03642275  0.41824222  1  0  -0.04852  0  3.649212  0  0  -0.093205  0  3.90683  0  0  -0.091598  0  3.923394  0  0  0.005969  -0.094271  0  3.895816  0
C  C63  1  0.67972788  0.96357954  0.58175846  1  0  -0.048632  0  3.649283  0  0  -0.093304  0  3.906912  0  0  -0.091698  0  3.923476  0  0  0.005872  -0.09437  0  3.895899  0
C  C64  1  0.26333610  0.05027140  0.33593263  1  0  0.116758  0  3.812419  0  0  0.111916  0  4.068597  0  0  0.114974  0  4.093079  0  0  0.07687  0.109725  0  4.052123  0
C  C65  1  0.73666305  0.94972967  0.66406809  1  0  0.116738  0  3.812461  0  0  0.11189  0  4.068657  0  0  0.114948  0  4.093138  0  0  0.07684  0.109699  0  4.052184  0
C  C66  1  0.68162345  0.65062856  0.29168371  1  0  -0.110184  0  3.639326  0  0  -0.105921  0  3.874583  0  0  -0.11225  0  3.89042  0  0  -0.089951  -0.101677  0  3.863739  0
C  C67  1  0.31838069  0.34936884  0.70831665  1  0  -0.110123  0  3.639278  0  0  -0.105943  0  3.874662  0  0  -0.112258  0  3.890468  0  0  -0.089983  -0.1017  0  3.863821  0
C  C68  1  0.68207125  0.58175517  0.20140151  1  0  -0.126154  0  3.682245  0  0  -0.170565  0  3.938675  0  0  -0.170853  0  3.951236  0  0  -0.172633  -0.170185  0  3.930001  0
C  C69  1  0.31792958  0.41824468  0.79859977  1  0  -0.126103  0  3.682137  0  0  -0.170484  0  3.938583  0  0  -0.170771  0  3.951135  0  0  -0.172585  -0.170105  0  3.929912  0
C  C70  1  0.54132674  0.50576611  0.21326522  1  0  -0.115139  0  3.698463  0  0  -0.161214  0  3.957363  0  0  -0.160973  0  3.970674  0  0  -0.17083  -0.1612  0  3.948053  0
C  C71  1  0.45867408  0.49423374  0.78673538  1  0  -0.115054  0  3.698392  0  0  -0.161154  0  3.957302  0  0  -0.160906  0  3.970603  0  0  -0.170819  -0.161141  0  3.947991  0
C  C72  1  0.55132853  0.37958837  0.29430052  1  0  -0.119954  0  3.646557  0  0  -0.116579  0  3.881383  0  0  -0.123108  0  3.896914  0  0  -0.091539  -0.11213  0  3.870612  0
C  C73  1  0.44867062  0.62041271  0.70569952  1  0  -0.12001  0  3.646563  0  0  -0.116581  0  3.881389  0  0  -0.123113  0  3.896917  0  0  -0.09153  -0.112135  0  3.87062  0
C  C74  1  0.54410847  0.45497000  0.38376294  1  0  -0.11528  0  3.675083  0  0  -0.160507  0  3.934872  0  0  -0.160792  0  3.948568  0  0  -0.16638  -0.160113  0  3.925338  0
C  C75  1  0.45589155  0.54502866  0.61623718  1  0  -0.115329  0  3.675106  0  0  -0.160582  0  3.934937  0  0  -0.160867  0  3.948628  0  0  -0.16641  -0.16019  0  3.925407  0
C  C76  1  0.68930633  0.52531076  0.37324668  1  0  -0.116522  0  3.682951  0  0  -0.163083  0  3.942289  0  0  -0.163382  0  3.955808  0  0  -0.169681  -0.162716  0  3.932948  0
C  C77  1  0.31069493  0.47468788  0.62675396  1  0  -0.116607  0  3.682878  0  0  -0.16317  0  3.942275  0  0  -0.163459  0  3.955791  0  0  -0.169729  -0.162804  0  3.932936  0
C  C78  1  0.82059852  0.72818502  0.27958532  1  0  0.657338  0  3.846669  0  0  0.607528  0  4.145109  0  0  0.640444  0  4.140048  0  0  0.197386  0.58518  0  4.147707  0
C  C79  1  0.17940686  0.27181237  0.72041556  1  0  0.657356  0  3.846622  0  0  0.607576  0  4.145043  0  0  0.640494  0  4.139979  0  0  0.197406  0.585228  0  4.147643  0
C  C80  1  0.71000187  0.22589737  0.27617483  1  0  0.661533  0  3.829048  0  0  0.611962  0  4.127862  0  0  0.644913  0  4.123226  0  0  0.199556  0.589595  0  4.130163  0
C  C81  1  0.28999987  0.77410006  0.72382854  1  0  0.661535  0  3.829097  0  0  0.611937  0  4.127947  0  0  0.644889  0  4.123311  0  0  0.199582  0.589571  0  4.130247  0
N  N82  1  0.75564014  0.96329387  0.04040304  1  0  -0.328448  0  3.412991  0  0  -0.265043  0  3.651049  0  0  -0.281985  0  3.664536  0  0  -0.373527  -0.253734  0  3.641901  0
N  N83  1  0.24435988  0.03670479  0.95959708  1  0  -0.328511  0  3.413049  0  0  -0.265095  0  3.651089  0  0  -0.282037  0  3.664575  0  0  -0.373552  -0.253784  0  3.641939  0
N  N84  1  0.82726482  0.05387694  0.89739845  1  0  -0.404151  0  3.291553  0  0  -0.324136  0  3.580037  0  0  -0.346958  0  3.598929  0  0  -0.366179  -0.308532  0  3.566631  0
N  N85  1  0.17273151  0.94612175  0.10260147  1  0  -0.404178  0  3.291608  0  0  -0.324171  0  3.580121  0  0  -0.346992  0  3.599014  0  0  -0.36621  -0.308568  0  3.566715  0
N  N86  1  0.16743646  0.94831270  0.34394363  1  0  -0.450977  0  3.250691  0  0  -0.374018  0  3.540433  0  0  -0.397066  0  3.555943  0  0  -0.363255  -0.358231  0  3.529419  0
N  N87  1  0.83256467  0.05168957  0.65605404  1  0  -0.450905  0  3.250692  0  0  -0.373939  0  3.540429  0  0  -0.396986  0  3.55594  0  0  -0.363208  -0.358152  0  3.529414  0
N  N88  1  0.25849350  0.92673717  0.47532507  1  0  -0.283193  0  3.462884  0  0  -0.215625  0  3.706861  0  0  -0.231736  0  3.720697  0  0  -0.375188  -0.204833  0  3.697362  0
N  N89  1  0.74150566  0.07326391  0.52467565  1  0  -0.283199  0  3.463001  0  0  -0.215623  0  3.706968  0  0  -0.231731  0  3.720807  0  0  -0.375166  -0.20483  0  3.697469  0
O  O90  1  0.90151132  0.72097326  0.34304418  1  0  -0.62368  0  1.876821  0  0  -0.570816  0  2.095242  0  0  -0.596004  0  2.085891  0  0  -0.336691  -0.553239  0  2.101014  0
O  O91  1  0.09849281  0.27902415  0.65695551  1  0  -0.623682  0  1.876768  0  0  -0.570819  0  2.095172  0  0  -0.596009  0  2.085822  0  0  -0.336682  -0.553242  0  2.100946  0
O  O92  1  0.84721997  0.80747637  0.20115072  1  0  -0.68037  0  2.047068  0  0  -0.608629  0  2.298842  0  0  -0.638741  0  2.28798  0  0  -0.343201  -0.587429  0  2.305379  0
O  O93  1  0.15278209  0.19252347  0.79885040  1  0  -0.680398  0  2.04707  0  0  -0.608665  0  2.298832  0  0  -0.638776  0  2.287962  0  0  -0.343213  -0.587465  0  2.305369  0
O  O94  1  0.80750696  0.20383342  0.19693248  1  0  -0.623453  0  1.946219  0  0  -0.561516  0  2.186242  0  0  -0.589282  0  2.178918  0  0  -0.324676  -0.542199  0  2.190666  0
O  O95  1  0.19249262  0.79616645  0.80306761  1  0  -0.623418  0  1.946313  0  0  -0.561469  0  2.186341  0  0  -0.589233  0  2.179015  0  0  -0.324647  -0.542153  0  2.190765  0
O  O96  1  0.74016745  0.11837481  0.34314389  1  0  -0.671574  0  2.011097  0  0  -0.60817  0  2.254042  0  0  -0.637446  0  2.245654  0  0  -0.339169  -0.587615  0  2.259042  0
O  O97  1  0.25983047  0.88162628  0.65685632  1  0  -0.671607  0  2.011017  0  0  -0.608199  0  2.253976  0  0  -0.637478  0  2.245588  0  0  -0.339222  -0.587639  0  2.258966  0
