# generated using pymatgen
data_KH12C8N2O3
_symmetry_space_group_name_H-M   'P 1'
_cell_length_a   7.07067082
_cell_length_b   6.82921864
_cell_length_c   11.64492354
_cell_angle_alpha   97.10942288
_cell_angle_beta   90.22897101
_cell_angle_gamma   116.97061040
_symmetry_Int_Tables_number   1
_chemical_formula_structural   KH12C8N2O3
_chemical_formula_sum   'K2 H24 C16 N4 O6'
_cell_volume   496.14041068
_cell_formula_units_Z   2
loop_
 _symmetry_equiv_pos_site_id
 _symmetry_equiv_pos_as_xyz
  1  'x, y, z'
loop_
 _atom_site_type_symbol
 _atom_site_label
 _atom_site_symmetry_multiplicity
 _atom_site_fract_x
 _atom_site_fract_y
 _atom_site_fract_z
 _atom_site_occupancy
 _atom_site_pbe_bader_spin_density
 _atom_site_pbe_cm5_charge
 _atom_site_pbe_ddec_charge
 _atom_site_pbe_ddec_spin_density
 _atom_site_pbe_ddec_sum_bond_order
 _atom_site_pbe_magmom
K  K0  1  0.24978718  0.00232239  0.50503562  1  0  0.857337  0.813199  0  0.776132  0
K  K1  1  0.75020814  0.99766177  0.49496261  1  0  0.857321  0.813231  0  0.776073  0
H  H2  1  0.73790518  0.01202148  0.22100783  1  0  0.096924  0.12874  0  1.02696  0
H  H3  1  0.26209670  0.98797442  0.77898884  1  0  0.09692  0.128723  0  1.026976  0
H  H4  1  0.83407395  0.15014612  0.09780161  1  0  0.086878  0.122316  0  1.018175  0
H  H5  1  0.16592586  0.84985795  0.90219833  1  0  0.086887  0.122324  0  1.018162  0
H  H6  1  0.83307021  0.30290658  0.23440555  1  0  0.099933  0.143758  0  1.014408  0
H  H7  1  0.16692872  0.69708900  0.76559797  1  0  0.099919  0.143764  0  1.014365  0
H  H8  1  0.97588178  0.84432781  0.20321569  1  0  0.100325  0.138914  0  1.008481  0
H  H9  1  0.02411611  0.15566883  0.79676558  1  0  0.100315  0.138882  0  1.008561  0
H  H10  1  0.25533814  0.99896032  0.20523468  1  0  0.099704  0.137108  0  1.019792  0
H  H11  1  0.74466171  0.00103425  0.79475500  1  0  0.099712  0.13712  0  1.019843  0
H  H12  1  0.09521073  0.97250212  0.07976528  1  0  0.083704  0.112604  0  1.035999  0
H  H13  1  0.90479715  0.02751078  0.92022427  1  0  0.083722  0.112605  0  1.036064  0
H  H14  1  0.59983605  0.59049490  0.17746976  1  0  0.093913  0.126297  0  1.021548  0
H  H15  1  0.40016292  0.40951682  0.82254459  1  0  0.093887  0.126232  0  1.021645  0
H  H16  1  0.46670092  0.31800332  0.09816104  1  0  0.091899  0.133787  0  0.998813  0
H  H17  1  0.53331532  0.68201564  0.90184107  1  0  0.091927  0.133838  0  0.99882  0
H  H18  1  0.52292603  0.35687606  0.25193054  1  0  0.101522  0.148688  0  1.032922  0
H  H19  1  0.47707298  0.64312615  0.74807354  1  0  0.1015  0.148649  0  1.032887  0
H  H20  1  0.06317946  0.53973763  0.11480465  1  0  0.096436  0.135364  0  1.020438  0
H  H21  1  0.93682309  0.46026301  0.88519758  1  0  0.096426  0.135331  0  1.020439  0
H  H22  1  0.19081279  0.42163264  0.01812960  1  0  0.093975  0.132605  0  1.010091  0
H  H23  1  0.80919483  0.57837633  0.98187249  1  0  0.093982  0.132552  0  1.010049  0
H  H24  1  0.33987949  0.69099073  0.09771663  1  0  0.095049  0.130629  0  1.010987  0
H  H25  1  0.66012165  0.30901629  0.90229131  1  0  0.095028  0.130565  0  1.011034  0
C  C26  1  0.08253297  0.19655622  0.22596666  1  0  0.082803  0.270361  0  3.777704  0
C  C27  1  0.91746748  0.80343964  0.77403087  1  0  0.082726  0.270269  0  3.777597  0
C  C28  1  0.85837502  0.16456095  0.19232525  1  0  -0.23706  -0.430946  0  3.85154  0
C  C29  1  0.14162545  0.83543819  0.80767342  1  0  -0.237048  -0.430937  0  3.851489  0
C  C30  1  0.10510751  0.99182896  0.17503606  1  0  -0.237662  -0.43523  0  3.887169  0
C  C31  1  0.89489531  0.00817560  0.82495362  1  0  -0.23765  -0.435214  0  3.887321  0
C  C32  1  0.26224672  0.42295696  0.19792589  1  0  0.084546  0.185196  0  3.72573  0
C  C33  1  0.73775301  0.57704367  0.80207634  1  0  0.084574  0.185328  0  3.725501  0
C  C34  1  0.47615375  0.42025088  0.18055757  1  0  -0.238862  -0.438004  0  3.869574  0
C  C35  1  0.52385099  0.57975792  0.81944794  1  0  -0.238872  -0.438014  0  3.869613  0
C  C36  1  0.20940944  0.52476235  0.10162427  1  0  -0.239932  -0.435635  0  3.917607  0
C  C37  1  0.79059456  0.47524156  0.89837910  1  0  -0.239876  -0.43546  0  3.917419  0
C  C38  1  0.20624044  0.42531472  0.39739608  1  0  0.220597  0.11107  0  3.972827  0
C  C39  1  0.79375421  0.57467434  0.60260429  1  0  0.220567  0.111059  0  3.972596  0
C  C40  1  0.24234889  0.50094881  0.52881989  1  0  0.18964  0.542016  0  4.328121  0
C  C41  1  0.75765005  0.49904361  0.47117991  1  0  0.1897  0.542104  0  4.327907  0
N  N42  1  0.09806080  0.21681028  0.35378310  1  0  -0.432745  -0.394333  0  3.183615  0
N  N43  1  0.90193957  0.78317894  0.64621385  1  0  -0.432694  -0.39423  0  3.183466  0
N  N44  1  0.29075744  0.56377549  0.31318650  1  0  -0.094734  0.23059  0  3.701741  0
N  N45  1  0.70923086  0.43621843  0.68681685  1  0  -0.094804  0.230435  0  3.701671  0
O  O46  1  0.39283506  0.77486732  0.32569350  1  0  -0.217623  -0.37113  0  1.976685  0
O  O47  1  0.60714617  0.22512660  0.67430985  1  0  -0.217568  -0.371037  0  1.976751  0
O  O48  1  0.13455724  0.35111899  0.58907220  1  0  -0.419363  -0.61159  0  2.154181  0
O  O49  1  0.86543812  0.64886850  0.41092632  1  0  -0.419349  -0.611615  0  2.154159  0
O  O50  1  0.37642150  0.69938982  0.56363318  1  0  -0.457182  -0.626408  0  2.221011  0
O  O51  1  0.62358088  0.30059750  0.43636877  1  0  -0.457271  -0.626469  0  2.220884  0
