# generated using pymatgen
data_NdAgH6C14(NO4)2
_symmetry_space_group_name_H-M   'P 1'
_cell_length_a   7.35410275
_cell_length_b   10.27142129
_cell_length_c   11.59116044
_cell_angle_alpha   98.17933095
_cell_angle_beta   101.33196883
_cell_angle_gamma   95.48204845
_symmetry_Int_Tables_number   1
_chemical_formula_structural   NdAgH6C14(NO4)2
_chemical_formula_sum   'Nd2 Ag2 H12 C28 N4 O16'
_cell_volume   842.85386710
_cell_formula_units_Z   2
loop_
 _symmetry_equiv_pos_site_id
 _symmetry_equiv_pos_as_xyz
  1  'x, y, z'
loop_
 _atom_site_type_symbol
 _atom_site_label
 _atom_site_symmetry_multiplicity
 _atom_site_fract_x
 _atom_site_fract_y
 _atom_site_fract_z
 _atom_site_occupancy
 _atom_site_pbe_bader_charge
 _atom_site_pbe_bader_spin_density
 _atom_site_pbe_cm5_charge
 _atom_site_pbe_ddec_charge
 _atom_site_pbe_ddec_spin_density
 _atom_site_pbe_ddec_sum_bond_order
 _atom_site_pbe_magmom
Nd  Nd0  1  0.74023468  0.02748011  0.42873920  1  2.242083  0  1.498706  2.108061  0  2.108096  0
Nd  Nd1  1  0.25976523  0.97252002  0.57126158  1  2.242049  0  1.49873  2.108085  0  2.108115  0
Ag  Ag2  1  0.71157896  0.73502537  0.79976110  1  0.577783  0  0.474859  0.364621  0  1.760499  0
Ag  Ag3  1  0.28841975  0.26497577  0.20023968  1  0.577827  0  0.474847  0.364592  0  1.760521  0
H  H4  1  0.80347097  0.84613346  0.06906886  1  0.102278  0  0.12267  0.099969  0  0.993836  0
H  H5  1  0.19653013  0.15386569  0.93093107  1  0.102273  0  0.12267  0.099974  0  0.993798  0
H  H6  1  0.13167211  0.80075354  0.81612435  1  0.145429  0  0.122165  0.094562  0  1.036951  0
H  H7  1  0.86832742  0.19924461  0.18387610  1  0.145423  0  0.122159  0.094558  0  1.036976  0
H  H8  1  0.42413892  0.87498956  0.97120445  1  0.098712  0  0.108402  0.117191  0  1.015397  0
H  H9  1  0.57586179  0.12500760  0.02879515  1  0.09871  0  0.108405  0.117205  0  1.01537  0
H  H10  1  0.72667704  0.46937120  0.65797563  1  0.097642  0  0.122712  0.095944  0  0.999561  0
H  H11  1  0.27332306  0.53062993  0.34202531  1  0.097716  0  0.122717  0.095955  0  0.999573  0
H  H12  1  0.27331115  0.65407036  0.72969173  1  0.107159  0  0.123469  0.090782  0  1.010647  0
H  H13  1  0.72668914  0.34593181  0.27030680  1  0.107185  0  0.12348  0.090801  0  1.010648  0
H  H14  1  0.04835503  0.46818084  0.60551547  1  0.095257  0  0.116253  0.130859  0  0.997547  0
H  H15  1  0.95164563  0.53182333  0.39448252  1  0.095303  0  0.116228  0.130845  0  0.997546  0
C  C16  1  0.06482322  0.94067028  0.26550870  1  1.617727  0  0.234711  0.645582  0  4.168717  0
C  C17  1  0.93517788  0.05932885  0.73449209  1  1.617724  0  0.234682  0.645512  0  4.168761  0
C  C18  1  0.09715211  0.89918592  0.14198795  1  0.063914  0  -0.004654  -0.092823  0  3.907169  0
C  C19  1  0.90284761  0.10081322  0.85801267  1  0.063964  0  -0.004666  -0.09281  0  3.907194  0
C  C20  1  0.94261073  0.85280385  0.04938612  1  0.465623  0  0.050363  0.068651  0  3.925985  0
C  C21  1  0.05739037  0.14719526  0.95061553  1  0.465543  0  0.050356  0.068646  0  3.925973  0
C  C22  1  0.12793648  0.82591217  0.90998347  1  0.48026  0  0.04838  0.095437  0  3.925111  0
C  C23  1  0.87206442  0.17408599  0.09001629  1  0.480336  0  0.048381  0.095462  0  3.925158  0
C  C24  1  0.28941218  0.86921311  0.99730115  1  -0.08211  0  -0.079903  -0.152192  0  3.93222  0
C  C25  1  0.71058873  0.13078503  0.00269946  1  -0.081967  0  -0.079934  -0.152241  0  3.932225  0
C  C26  1  0.27616809  0.90621204  0.11597777  1  -0.000826  0  0.020865  0.028749  0  3.887129  0
C  C27  1  0.72383143  0.09378613  0.88402182  1  -0.001013  0  0.020911  0.028759  0  3.887166  0
C  C28  1  0.44994112  0.95211502  0.21186887  1  1.594041  0  0.197069  0.586293  0  4.238733  0
C  C29  1  0.55005703  0.04788310  0.78813313  1  1.594393  0  0.197154  0.58654  0  4.238546  0
C  C30  1  0.54884408  0.24611238  0.52014902  1  1.586724  0  0.217644  0.619844  0  4.192619  0
C  C31  1  0.45115621  0.75388976  0.47985123  1  1.586752  0  0.217661  0.619819  0  4.192622  0
C  C32  1  0.45991351  0.35601194  0.57586060  1  0.051801  0  -7.1e-05  -0.08903  0  3.922183  0
C  C33  1  0.54008419  0.64399126  0.42413690  1  0.051468  0  -1.6e-05  -0.088883  0  3.922117  0
C  C34  1  0.57561868  0.46548191  0.64664868  1  0.474727  0  0.057479  0.081241  0  3.906014  0
C  C35  1  0.42438041  0.53452124  0.35335071  1  0.474639  0  0.057434  0.081114  0  3.906096  0
C  C36  1  0.32323760  0.56732222  0.68697103  1  0.513955  0  0.055807  0.111389  0  3.927973  0
C  C37  1  0.67676130  0.43267996  0.31302733  1  0.513947  0  0.055764  0.111297  0  3.928089  0
C  C38  1  0.19790335  0.46277937  0.61735044  1  0.042606  0  -0.069304  -0.133855  0  3.902165  0
C  C39  1  0.80209593  0.53722481  0.38264739  1  0.042558  0  -0.069255  -0.133806  0  3.902197  0
C  C40  1  0.26501012  0.35488017  0.55876987  1  -0.060396  0  0.030856  0.022554  0  3.854613  0
C  C41  1  0.73498878  0.64512201  0.44122849  1  -0.060322  0  0.030813  0.022494  0  3.854569  0
C  C42  1  0.12375741  0.25219153  0.47163029  1  1.641496  0  0.237154  0.634426  0  4.177499  0
C  C43  1  0.87624388  0.74780859  0.52837066  1  1.641526  0  0.237122  0.634424  0  4.177519  0
N  N44  1  0.95608542  0.81597544  0.93553610  1  -1.198294  0  -0.350554  -0.209574  0  3.661458  0
N  N45  1  0.04391430  0.18402372  0.06446365  1  -1.198323  0  -0.350558  -0.209617  0  3.661573  0
N  N46  1  0.51023023  0.56998022  0.70132312  1  -1.204229  0  -0.347884  -0.211569  0  3.637988  0
N  N47  1  0.48976986  0.43002094  0.29867611  1  -1.204199  0  -0.347861  -0.21148  0  3.637993  0
O  O48  1  0.90643887  0.97796721  0.27113621  1  -1.189333  0  -0.394548  -0.670643  0  2.329792  0
O  O49  1  0.09356065  0.02203094  0.72886424  1  -1.189332  0  -0.394525  -0.670599  0  2.329846  0
O  O50  1  0.19648401  0.93459635  0.35199880  1  -1.185154  0  -0.361582  -0.619817  0  2.322324  0
O  O51  1  0.80351590  0.06540378  0.64800198  1  -1.185122  0  -0.361579  -0.619805  0  2.322316  0
O  O52  1  0.50464577  0.07689801  0.24337328  1  -1.172395  0  -0.362212  -0.631544  0  2.232562  0
O  O53  1  0.49535219  0.92309908  0.75663028  1  -1.172417  0  -0.362257  -0.631677  0  2.232585  0
O  O54  1  0.53649581  0.86395540  0.25543586  1  -1.163033  0  -0.35814  -0.588574  0  2.174893  0
O  O55  1  0.46350215  0.13604173  0.74456598  1  -1.163334  0  -0.358169  -0.588662  0  2.174849  0
O  O56  1  0.71087179  0.26824971  0.49992444  1  -1.171249  0  -0.353773  -0.598516  0  2.202956  0
O  O57  1  0.28912673  0.73175047  0.50007445  1  -1.171237  0  -0.353785  -0.59851  0  2.202941  0
O  O58  1  0.45681859  0.12927542  0.49269480  1  -1.207445  0  -0.427871  -0.716827  0  2.425777  0
O  O59  1  0.54318151  0.87072567  0.50730786  1  -1.207226  0  -0.427879  -0.716842  0  2.425846  0
O  O60  1  0.06730019  0.14662097  0.51026454  1  -1.21012  0  -0.441453  -0.749534  0  2.40829  0
O  O61  1  0.93269992  0.85338014  0.48973727  1  -1.210144  0  -0.44143  -0.749536  0  2.408377  0
O  O62  1  0.06315397  0.28076823  0.37135955  1  -1.15466  0  -0.287628  -0.531643  0  2.163458  0
O  O63  1  0.93684713  0.71923094  0.62863951  1  -1.154674  0  -0.287591  -0.531633  0  2.163435  0
