# generated using pymatgen
data_NbAgH4C4N2OF4
_symmetry_space_group_name_H-M   'P 1'
_cell_length_a   7.83564875
_cell_length_b   8.08674645
_cell_length_c   15.17680255
_cell_angle_alpha   89.99966950
_cell_angle_beta   90.00078626
_cell_angle_gamma   118.99204197
_symmetry_Int_Tables_number   1
_chemical_formula_structural   NbAgH4C4N2OF4
_chemical_formula_sum   'Nb4 Ag4 H16 C16 N8 O4 F16'
_cell_volume   841.16609655
_cell_formula_units_Z   4
loop_
 _symmetry_equiv_pos_site_id
 _symmetry_equiv_pos_as_xyz
  1  'x, y, z'
loop_
 _atom_site_type_symbol
 _atom_site_label
 _atom_site_symmetry_multiplicity
 _atom_site_fract_x
 _atom_site_fract_y
 _atom_site_fract_z
 _atom_site_occupancy
 _atom_site_hle17_bader_spin_density
 _atom_site_hle17_ddec_charge
 _atom_site_hle17_ddec_spin_density
 _atom_site_hle17_ddec_sum_bond_order
 _atom_site_hle17_magmom
 _atom_site_hse06_10hf_bader_spin_density
 _atom_site_hse06_10hf_ddec_charge
 _atom_site_hse06_10hf_ddec_spin_density
 _atom_site_hse06_10hf_ddec_sum_bond_order
 _atom_site_hse06_10hf_magmom
 _atom_site_hse06_bader_spin_density
 _atom_site_hse06_ddec_charge
 _atom_site_hse06_ddec_spin_density
 _atom_site_hse06_ddec_sum_bond_order
 _atom_site_hse06_magmom
 _atom_site_pbe_bader_spin_density
 _atom_site_pbe_cm5_charge
 _atom_site_pbe_ddec_charge
 _atom_site_pbe_ddec_spin_density
 _atom_site_pbe_ddec_sum_bond_order
 _atom_site_pbe_magmom
Nb  Nb0  1  0.96619817  0.00000093  0.24774599  1  0  2.555179  0  3.306762  0  0  2.531787  0  3.775132  0  0  2.644544  0  3.704964  0  0  1.573761  2.454213  0  3.82166  0
Nb  Nb1  1  0.53381047  0.00000599  0.74774371  1  0  2.555167  0  3.306529  0  0  2.531701  0  3.774992  0  0  2.644455  0  3.704829  0  0  1.573782  2.454132  0  3.821516  0
Nb  Nb2  1  0.46619572  0.99999815  0.25225350  1  0  2.555165  0  3.306649  0  0  2.531779  0  3.774982  0  0  2.644534  0  3.704823  0  0  1.573772  2.454204  0  3.821512  0
Nb  Nb3  1  0.03380884  0.00000406  0.75225277  1  0  2.555161  0  3.306751  0  0  2.531648  0  3.775301  0  0  2.644406  0  3.705134  0  0  1.573711  2.454075  0  3.821837  0
Ag  Ag4  1  0.25322006  0.00000039  0.97862337  1  0  0.596544  0  1.363627  0  0  0.463174  0  1.80075  0  0  0.491877  0  1.749148  0  0  0.489274  0.44384  0  1.836713  0
Ag  Ag5  1  0.24677901  0.99999667  0.47861990  1  0  0.596541  0  1.363621  0  0  0.463131  0  1.800714  0  0  0.491824  0  1.749126  0  0  0.489263  0.443796  0  1.836671  0
Ag  Ag6  1  0.75322082  0.99999812  0.52137576  1  0  0.596486  0  1.363706  0  0  0.463108  0  1.800776  0  0  0.491794  0  1.749193  0  0  0.489276  0.443784  0  1.836725  0
Ag  Ag7  1  0.74677692  0.99999808  0.02138044  1  0  0.596554  0  1.363594  0  0  0.463156  0  1.80068  0  0  0.491847  0  1.749096  0  0  0.489271  0.443832  0  1.836631  0
H  H8  1  0.03743117  0.70978928  0.12199904  1  0  0.104197  0  0.963555  0  0  0.11044  0  1.031029  0  0  0.113294  0  1.027978  0  0  0.12173  0.108295  0  1.03339  0
H  H9  1  0.46256440  0.29020698  0.62198069  1  0  0.104252  0  0.963711  0  0  0.110538  0  1.031075  0  0  0.113395  0  1.028019  0  0  0.121778  0.108399  0  1.033433  0
H  H10  1  0.82766219  0.29016191  0.37800173  1  0  0.104355  0  0.963736  0  0  0.110597  0  1.031141  0  0  0.113447  0  1.028096  0  0  0.121756  0.108447  0  1.033516  0
H  H11  1  0.67234469  0.70984302  0.87801890  1  0  0.104267  0  0.96401  0  0  0.110565  0  1.031313  0  0  0.113415  0  1.028267  0  0  0.12179  0.108425  0  1.033675  0
H  H12  1  0.96257460  0.29020637  0.87801069  1  0  0.104282  0  0.963558  0  0  0.110545  0  1.030975  0  0  0.113402  0  1.027919  0  0  0.121766  0.108403  0  1.033343  0
H  H13  1  0.53743358  0.70978584  0.37801192  1  0  0.104231  0  0.963678  0  0  0.110486  0  1.03109  0  0  0.113342  0  1.028036  0  0  0.121735  0.108347  0  1.033451  0
H  H14  1  0.17234300  0.70984787  0.62199416  1  0  0.104199  0  0.963601  0  0  0.110482  0  1.030985  0  0  0.113331  0  1.027946  0  0  0.121711  0.108325  0  1.03337  0
H  H15  1  0.32763867  0.29015121  0.12199347  1  0  0.104189  0  0.963712  0  0  0.110413  0  1.031185  0  0  0.113266  0  1.028137  0  0  0.12168  0.10826  0  1.033561  0
H  H16  1  0.13673158  0.64180117  0.85748511  1  0  0.115633  0  0.941621  0  0  0.12306  0  1.004485  0  0  0.126162  0  1.001382  0  0  0.127023  0.120739  0  1.006926  0
H  H17  1  0.36327206  0.35820127  0.35747722  1  0  0.115629  0  0.941667  0  0  0.123185  0  1.004364  0  0  0.126289  0  1.001255  0  0  0.127049  0.120867  0  1.006802  0
H  H18  1  0.99510799  0.35824841  0.64248876  1  0  0.115601  0  0.942075  0  0  0.123124  0  1.004782  0  0  0.126231  0  1.001658  0  0  0.127008  0.120801  0  1.007226  0
H  H19  1  0.50486316  0.64174609  0.14250512  1  0  0.115343  0  0.942043  0  0  0.122996  0  1.004622  0  0  0.126103  0  1.00151  0  0  0.126946  0.120672  0  1.007062  0
H  H20  1  0.86327220  0.35819306  0.14252264  1  0  0.115638  0  0.941612  0  0  0.123149  0  1.00436  0  0  0.126256  0  1.001239  0  0  0.127033  0.120829  0  1.006801  0
H  H21  1  0.63673569  0.64179579  0.64252000  1  0  0.115638  0  0.94147  0  0  0.123115  0  1.004269  0  0  0.126218  0  1.001163  0  0  0.127022  0.120794  0  1.00671  0
H  H22  1  0.00485778  0.64175147  0.35749923  1  0  0.11535  0  0.942133  0  0  0.122975  0  1.004738  0  0  0.126084  0  1.00162  0  0  0.126929  0.120656  0  1.007172  0
H  H23  1  0.49513096  0.35825945  0.85750791  1  0  0.115429  0  0.941896  0  0  0.12297  0  1.004578  0  0  0.126072  0  1.00148  0  0  0.126992  0.120657  0  1.007012  0
C  C24  1  0.02152440  0.61619028  0.06745800  1  0  0.085788  0  3.63755  0  0  0.05749  0  3.878595  0  0  0.059441  0  3.899018  0  0  0.060681  0.055963  0  3.865166  0
C  C25  1  0.47847208  0.38380303  0.56745660  1  0  0.085651  0  3.636907  0  0  0.057277  0  3.87796  0  0  0.059222  0  3.898376  0  0  0.060638  0.055729  0  3.864579  0
C  C26  1  0.90531155  0.38375663  0.43253377  1  0  0.085447  0  3.636849  0  0  0.057223  0  3.877876  0  0  0.059163  0  3.898308  0  0  0.060631  0.05568  0  3.864498  0
C  C27  1  0.59469755  0.61624985  0.93253882  1  0  0.085536  0  3.635945  0  0  0.057263  0  3.877015  0  0  0.059213  0  3.897425  0  0  0.060658  0.055705  0  3.863655  0
C  C28  1  0.97848450  0.38380396  0.93254713  1  0  0.085702  0  3.637267  0  0  0.057372  0  3.878317  0  0  0.059323  0  3.898733  0  0  0.060661  0.055831  0  3.864922  0
C  C29  1  0.52152957  0.61619969  0.43254260  1  0  0.085644  0  3.636765  0  0  0.057329  0  3.877822  0  0  0.059277  0  3.898234  0  0  0.060665  0.055789  0  3.864428  0
C  C30  1  0.09465652  0.61622488  0.56744104  1  0  0.085752  0  3.637325  0  0  0.057555  0  3.878351  0  0  0.059487  0  3.898799  0  0  0.060826  0.05606  0  3.864874  0
C  C31  1  0.40532703  0.38377832  0.06746037  1  0  0.085612  0  3.636749  0  0  0.057426  0  3.877758  0  0  0.059375  0  3.898178  0  0  0.060727  0.055929  0  3.864288  0
C  C32  1  0.07528706  0.57909013  0.92120856  1  0  0.082756  0  3.628984  0  0  0.054755  0  3.87094  0  0  0.05656  0  3.890973  0  0  0.064031  0.053267  0  3.857863  0
C  C33  1  0.42471312  0.42089691  0.42119893  1  0  0.082827  0  3.629073  0  0  0.054683  0  3.870938  0  0  0.056482  0  3.890974  0  0  0.064093  0.053207  0  3.857845  0
C  C34  1  0.99626242  0.42092577  0.57878882  1  0  0.082635  0  3.628717  0  0  0.054507  0  3.870803  0  0  0.056371  0  3.890747  0  0  0.063961  0.053007  0  3.857735  0
C  C35  1  0.50373079  0.57907283  0.07878296  1  0  0.083061  0  3.6296  0  0  0.054923  0  3.871476  0  0  0.056725  0  3.891523  0  0  0.064166  0.053433  0  3.85839  0
C  C36  1  0.92471814  0.42090694  0.07880117  1  0  0.082691  0  3.628961  0  0  0.054616  0  3.870858  0  0  0.05643  0  3.890883  0  0  0.064031  0.053129  0  3.857777  0
C  C37  1  0.57528499  0.57909873  0.57878906  1  0  0.08281  0  3.629258  0  0  0.054755  0  3.871177  0  0  0.05656  0  3.891205  0  0  0.064129  0.053274  0  3.858098  0
C  C38  1  0.00372165  0.57906988  0.42121696  1  0  0.083049  0  3.628808  0  0  0.054945  0  3.870761  0  0  0.056767  0  3.890779  0  0  0.064151  0.053456  0  3.857674  0
C  C39  1  0.49626506  0.42091575  0.92122611  1  0  0.083028  0  3.628866  0  0  0.054996  0  3.870861  0  0  0.056819  0  3.890866  0  0  0.064139  0.053503  0  3.857785  0
N  N40  1  0.09681779  0.69546108  0.98884655  1  0  -0.246171  0  3.308434  0  0  -0.163897  0  3.585317  0  0  -0.179155  0  3.602646  0  0  -0.321238  -0.153387  0  3.573423  0
N  N41  1  0.40317646  0.30453601  0.48883119  1  0  -0.246243  0  3.30829  0  0  -0.163826  0  3.585074  0  0  -0.179072  0  3.602397  0  0  -0.321308  -0.153323  0  3.573183  0
N  N42  1  0.90144723  0.30452642  0.51114398  1  0  -0.246028  0  3.307936  0  0  -0.163836  0  3.584897  0  0  -0.17911  0  3.602244  0  0  -0.321269  -0.153318  0  3.572989  0
N  N43  1  0.59852837  0.69546355  0.01116743  1  0  -0.246094  0  3.307967  0  0  -0.16392  0  3.585024  0  0  -0.17918  0  3.602352  0  0  -0.321422  -0.153402  0  3.57312  0
N  N44  1  0.90318614  0.30453598  0.01116186  1  0  -0.246219  0  3.308233  0  0  -0.163873  0  3.585074  0  0  -0.179132  0  3.602404  0  0  -0.321259  -0.153368  0  3.573193  0
N  N45  1  0.59682434  0.69546247  0.51116602  1  0  -0.246145  0  3.308444  0  0  -0.163803  0  3.585235  0  0  -0.179048  0  3.602558  0  0  -0.321352  -0.153307  0  3.573354  0
N  N46  1  0.09853387  0.69546075  0.48884994  1  0  -0.24607  0  3.308634  0  0  -0.163965  0  3.585712  0  0  -0.179232  0  3.603054  0  0  -0.321423  -0.153456  0  3.573811  0
N  N47  1  0.40145994  0.30454058  0.98884824  1  0  -0.24613  0  3.308438  0  0  -0.164042  0  3.585505  0  0  -0.179306  0  3.602838  0  0  -0.321375  -0.153533  0  3.57361  0
O  O48  1  0.74144266  0.99999334  0.22489100  1  0  -1.043689  0  1.690869  0  0  -1.070778  0  2.010913  0  0  -1.11255  0  1.989524  0  0  -0.673154  -1.042397  0  2.024731  0
O  O49  1  0.75855900  0.00000418  0.72488858  1  0  -1.043684  0  1.690824  0  0  -1.070775  0  2.010933  0  0  -1.112539  0  1.98954  0  0  -0.673178  -1.042391  0  2.024745  0
O  O50  1  0.24144308  0.99999430  0.27510798  1  0  -1.04369  0  1.690856  0  0  -1.070793  0  2.010932  0  0  -1.112566  0  1.989544  0  0  -0.673172  -1.042408  0  2.024743  0
O  O51  1  0.25856636  0.00001644  0.77510819  1  0  -1.043676  0  1.690765  0  0  -1.070775  0  2.010917  0  0  -1.112543  0  1.989528  0  0  -0.673158  -1.042386  0  2.024722  0
F  F52  1  0.04322856  0.99988362  0.12531551  1  0  -0.62488  0  0.898924  0  0  -0.600549  0  1.121478  0  0  -0.622835  0  1.096429  0  0  -0.370294  -0.584761  0  1.138404  0
F  F53  1  0.45676712  0.00009992  0.62531317  1  0  -0.624866  0  0.898856  0  0  -0.600551  0  1.121432  0  0  -0.622835  0  1.096384  0  0  -0.370313  -0.584764  0  1.138358  0
F  F54  1  0.54323001  0.99988866  0.37468470  1  0  -0.624855  0  0.898876  0  0  -0.600551  0  1.121444  0  0  -0.622833  0  1.096395  0  0  -0.370287  -0.58476  0  1.138368  0
F  F55  1  0.95677310  0.00010638  0.87468236  1  0  -0.624852  0  0.898894  0  0  -0.600517  0  1.121452  0  0  -0.6228  0  1.096403  0  0  -0.370272  -0.584727  0  1.138379  0
F  F56  1  0.13394049  0.27132748  0.24890228  1  0  -0.577009  0  0.760712  0  0  -0.550065  0  0.916203  0  0  -0.57201  0  0.898115  0  0  -0.373737  -0.534591  0  0.928207  0
F  F57  1  0.36606113  0.72868179  0.74890824  1  0  -0.577073  0  0.760711  0  0  -0.550077  0  0.916158  0  0  -0.572006  0  0.898056  0  0  -0.373741  -0.534598  0  0.928158  0
F  F58  1  0.36248725  0.72867367  0.25097199  1  0  -0.577127  0  0.760792  0  0  -0.550005  0  0.916074  0  0  -0.571999  0  0.898027  0  0  -0.373654  -0.534532  0  0.928073  0
F  F59  1  0.13751798  0.27132995  0.75097248  1  0  -0.577136  0  0.760761  0  0  -0.549986  0  0.916052  0  0  -0.571989  0  0.898011  0  0  -0.373655  -0.534508  0  0.928049  0
F  F60  1  0.86607207  0.72867665  0.75108834  1  0  -0.577062  0  0.760765  0  0  -0.550042  0  0.916197  0  0  -0.571982  0  0.898106  0  0  -0.3737  -0.534561  0  0.928194  0
F  F61  1  0.63394066  0.27132376  0.25109490  1  0  -0.577007  0  0.760702  0  0  -0.550042  0  0.916158  0  0  -0.571974  0  0.898058  0  0  -0.373717  -0.534566  0  0.928159  0
F  F62  1  0.63752857  0.27133188  0.74902259  1  0  -0.577118  0  0.76075  0  0  -0.549961  0  0.916024  0  0  -0.571963  0  0.897985  0  0  -0.373654  -0.534487  0  0.928019  0
F  F63  1  0.86248437  0.72867418  0.24902935  1  0  -0.577129  0  0.760777  0  0  -0.550014  0  0.916079  0  0  -0.571995  0  0.898014  0  0  -0.373646  -0.534539  0  0.928077  0
F  F64  1  0.54999035  0.99986046  0.87548191  1  0  -0.613247  0  0.872669  0  0  -0.587132  0  1.091409  0  0  -0.609521  0  1.066228  0  0  -0.376577  -0.571404  0  1.10847  0
F  F65  1  0.95003400  0.00017698  0.37548364  1  0  -0.61328  0  0.872841  0  0  -0.587161  0  1.091552  0  0  -0.609549  0  1.066364  0  0  -0.376556  -0.571429  0  1.10861  0
F  F66  1  0.04998548  0.99985118  0.62451621  1  0  -0.613265  0  0.872781  0  0  -0.587131  0  1.091524  0  0  -0.609522  0  1.066345  0  0  -0.376555  -0.571404  0  1.108586  0
F  F67  1  0.45001342  0.00014650  0.12451662  1  0  -0.613278  0  0.872746  0  0  -0.587171  0  1.091479  0  0  -0.609561  0  1.066298  0  0  -0.376579  -0.571447  0  1.108544  0
