# generated using pymatgen
data_LiYH10C16O9
_symmetry_space_group_name_H-M   'P 1'
_cell_length_a   10.53092053
_cell_length_b   12.25693052
_cell_length_c   14.33777059
_cell_angle_alpha   89.99891483
_cell_angle_beta   89.99800252
_cell_angle_gamma   109.43862350
_symmetry_Int_Tables_number   1
_chemical_formula_structural   LiYH10C16O9
_chemical_formula_sum   'Li4 Y4 H40 C64 O36'
_cell_volume   1745.18190944
_cell_formula_units_Z   4
loop_
 _symmetry_equiv_pos_site_id
 _symmetry_equiv_pos_as_xyz
  1  'x, y, z'
loop_
 _atom_site_type_symbol
 _atom_site_label
 _atom_site_symmetry_multiplicity
 _atom_site_fract_x
 _atom_site_fract_y
 _atom_site_fract_z
 _atom_site_occupancy
 _atom_site_hle17_bader_spin_density
 _atom_site_hle17_ddec_charge
 _atom_site_hle17_ddec_spin_density
 _atom_site_hle17_ddec_sum_bond_order
 _atom_site_hle17_magmom
 _atom_site_hse06_10hf_bader_spin_density
 _atom_site_hse06_10hf_ddec_charge
 _atom_site_hse06_10hf_ddec_spin_density
 _atom_site_hse06_10hf_ddec_sum_bond_order
 _atom_site_hse06_10hf_magmom
 _atom_site_hse06_bader_spin_density
 _atom_site_hse06_ddec_charge
 _atom_site_hse06_ddec_spin_density
 _atom_site_hse06_ddec_sum_bond_order
 _atom_site_hse06_magmom
 _atom_site_pbe_bader_spin_density
 _atom_site_pbe_cm5_charge
 _atom_site_pbe_ddec_charge
 _atom_site_pbe_ddec_spin_density
 _atom_site_pbe_ddec_sum_bond_order
 _atom_site_pbe_magmom
Li  Li0  1  0.88668059  0.81987092  0.10903009  1  0  0.881493  0  0.350646  0  0  0.847122  0  0.444616  0  0  0.856371  0  0.428482  0  0  0.497068  0.840124  0  0.456644  0
Li  Li1  1  0.61329865  0.68012586  0.60902377  1  0  0.881476  0  0.350632  0  0  0.847097  0  0.444618  0  0  0.856347  0  0.428479  0  0  0.496993  0.840093  0  0.456655  0
Li  Li2  1  0.11329433  0.18011699  0.89098226  1  0  0.881491  0  0.350556  0  0  0.847118  0  0.444525  0  0  0.856377  0  0.428378  0  0  0.497005  0.840109  0  0.456562  0
Li  Li3  1  0.38669260  0.31986257  0.39095650  1  0  0.881493  0  0.350631  0  0  0.847131  0  0.444575  0  0  0.856372  0  0.428453  0  0  0.497093  0.840161  0  0.456579  0
Y  Y4  1  0.74819635  0.99879688  0.98655593  1  0  2.039025  0  1.901526  0  0  1.844463  0  2.404366  0  0  1.919801  0  2.334679  0  0  1.316624  1.789841  0  2.452602  0
Y  Y5  1  0.75181767  0.50121537  0.48654558  1  0  2.039129  0  1.90141  0  0  1.844475  0  2.404274  0  0  1.919747  0  2.334696  0  0  1.316634  1.789928  0  2.452385  0
Y  Y6  1  0.25181287  0.00120495  0.01343828  1  0  2.038971  0  1.901672  0  0  1.844292  0  2.404647  0  0  1.919643  0  2.33495  0  0  1.31655  1.789726  0  2.452823  0
Y  Y7  1  0.24819114  0.49879072  0.51344585  1  0  2.039034  0  1.90156  0  0  1.844565  0  2.40427  0  0  1.919777  0  2.334809  0  0  1.316648  1.790018  0  2.452391  0
H  H8  1  0.28774878  0.24382210  0.67644135  1  0  0.102487  0  0.962874  0  0  0.112338  0  1.023506  0  0  0.114909  0  1.022746  0  0  0.112674  0.11051  0  1.023989  0
H  H9  1  0.21229011  0.25615550  0.17644395  1  0  0.102247  0  0.963041  0  0  0.112095  0  1.0237  0  0  0.114701  0  1.022885  0  0  0.112622  0.11025  0  1.024212  0
H  H10  1  0.71225602  0.75614795  0.32353613  1  0  0.102452  0  0.962966  0  0  0.112259  0  1.023648  0  0  0.114907  0  1.022781  0  0  0.112628  0.110408  0  1.024164  0
H  H11  1  0.78772008  0.74384636  0.82355026  1  0  0.102273  0  0.963137  0  0  0.112177  0  1.023708  0  0  0.114751  0  1.022948  0  0  0.112611  0.110326  0  1.024237  0
H  H12  1  0.29975337  0.08231664  0.77880359  1  0  0.091315  0  0.982839  0  0  0.099888  0  1.048759  0  0  0.103368  0  1.046278  0  0  0.112438  0.097217  0  1.050933  0
H  H13  1  0.20029086  0.41768023  0.27880182  1  0  0.091257  0  0.982667  0  0  0.099846  0  1.048623  0  0  0.10335  0  1.046112  0  0  0.112417  0.097173  0  1.050802  0
H  H14  1  0.70027806  0.91768077  0.22118435  1  0  0.091257  0  0.982712  0  0  0.099864  0  1.048623  0  0  0.103308  0  1.046186  0  0  0.112409  0.097192  0  1.050798  0
H  H15  1  0.79970120  0.58232961  0.72120006  1  0  0.091206  0  0.982929  0  0  0.099797  0  1.048834  0  0  0.103287  0  1.046347  0  0  0.112428  0.097125  0  1.051013  0
H  H16  1  0.71502086  0.41120443  0.70564078  1  0  0.095039  0  0.97615  0  0  0.104006  0  1.039631  0  0  0.107127  0  1.037513  0  0  0.111507  0.101575  0  1.04156  0
H  H17  1  0.78499996  0.08884161  0.20560659  1  0  0.095122  0  0.976444  0  0  0.104075  0  1.039917  0  0  0.107201  0  1.037788  0  0  0.111447  0.101645  0  1.041842  0
H  H18  1  0.28497047  0.58883873  0.29438412  1  0  0.095077  0  0.976254  0  0  0.104054  0  1.039697  0  0  0.107172  0  1.037577  0  0  0.111492  0.10162  0  1.04163  0
H  H19  1  0.21501502  0.91116040  0.79437926  1  0  0.094981  0  0.976086  0  0  0.103898  0  1.039662  0  0  0.10702  0  1.037541  0  0  0.111421  0.10146  0  1.041592  0
H  H20  1  0.72726022  0.24854095  0.80662555  1  0  0.098663  0  0.945546  0  0  0.108922  0  1.003864  0  0  0.112591  0  1.001435  0  0  0.108947  0.106459  0  1.005314  0
H  H21  1  0.77276049  0.25150030  0.30658000  1  0  0.098524  0  0.945852  0  0  0.108772  0  1.004148  0  0  0.112446  0  1.00172  0  0  0.108862  0.106312  0  1.005593  0
H  H22  1  0.27274648  0.75150270  0.19340493  1  0  0.098585  0  0.945609  0  0  0.108819  0  1.003945  0  0  0.112489  0  1.001513  0  0  0.108941  0.106356  0  1.005399  0
H  H23  1  0.22723180  0.74849929  0.69339678  1  0  0.098544  0  0.945776  0  0  0.108806  0  1.004088  0  0  0.112474  0  1.001655  0  0  0.108857  0.106343  0  1.005541  0
H  H24  1  0.14921015  0.38770438  0.95786085  1  0  0.083599  0  0.981006  0  0  0.088501  0  1.055676  0  0  0.092151  0  1.053325  0  0  0.107256  0.085859  0  1.057589  0
H  H25  1  0.35081268  0.11230877  0.45787486  1  0  0.083617  0  0.981068  0  0  0.088581  0  1.05564  0  0  0.092233  0  1.053285  0  0  0.107323  0.085941  0  1.057564  0
H  H26  1  0.85083364  0.61228486  0.04218288  1  0  0.083761  0  0.981293  0  0  0.088673  0  1.055874  0  0  0.092323  0  1.053521  0  0  0.107332  0.085987  0  1.057834  0
H  H27  1  0.64916634  0.88769637  0.54216887  1  0  0.083804  0  0.980847  0  0  0.088715  0  1.055469  0  0  0.092368  0  1.053116  0  0  0.107345  0.08602  0  1.057435  0
H  H28  1  0.75892975  0.39741243  0.03763691  1  0  0.106573  0  0.947171  0  0  0.114514  0  1.009348  0  0  0.117951  0  1.007589  0  0  0.105445  0.11214  0  1.01055  0
H  H29  1  0.74107207  0.10257115  0.53762029  1  0  0.106627  0  0.947174  0  0  0.114568  0  1.009333  0  0  0.118004  0  1.007577  0  0  0.1055  0.112191  0  1.010524  0
H  H30  1  0.24110803  0.60257320  0.96242635  1  0  0.106781  0  0.947184  0  0  0.114702  0  1.009352  0  0  0.118136  0  1.0076  0  0  0.105609  0.112328  0  1.010538  0
H  H31  1  0.25888065  0.89743488  0.46244507  1  0  0.106617  0  0.947187  0  0  0.114546  0  1.009367  0  0  0.117982  0  1.007616  0  0  0.105557  0.112171  0  1.010558  0
H  H32  1  0.63074107  0.61452281  0.13242208  1  0  0.101914  0  0.955346  0  0  0.109571  0  1.019824  0  0  0.113002  0  1.018203  0  0  0.113166  0.107037  0  1.021174  0
H  H33  1  0.86925329  0.88544447  0.63243612  1  0  0.101774  0  0.955197  0  0  0.109493  0  1.01966  0  0  0.112879  0  1.01809  0  0  0.113143  0.106957  0  1.021007  0
H  H34  1  0.36924614  0.38545951  0.86755260  1  0  0.101709  0  0.955308  0  0  0.109452  0  1.019712  0  0  0.112835  0  1.018143  0  0  0.113143  0.106934  0  1.021043  0
H  H35  1  0.13075755  0.11455655  0.36756577  1  0  0.101758  0  0.955313  0  0  0.109468  0  1.019781  0  0  0.112849  0  1.018216  0  0  0.113169  0.106936  0  1.021135  0
H  H36  1  0.47973008  0.59837220  0.85152473  1  0  0.101726  0  0.956762  0  0  0.110924  0  1.018179  0  0  0.115024  0  1.01494  0  0  0.10974  0.107856  0  1.020767  0
H  H37  1  0.02024370  0.90165341  0.35151862  1  0  0.101733  0  0.956622  0  0  0.110828  0  1.018131  0  0  0.114923  0  1.0149  0  0  0.109716  0.107771  0  1.020704  0
H  H38  1  0.52026375  0.40161546  0.14844787  1  0  0.101567  0  0.956476  0  0  0.11077  0  1.017957  0  0  0.114863  0  1.014728  0  0  0.109627  0.107702  0  1.020542  0
H  H39  1  0.97972843  0.09835922  0.64846513  1  0  0.101683  0  0.956623  0  0  0.110914  0  1.018011  0  0  0.115009  0  1.014783  0  0  0.109694  0.10785  0  1.020593  0
H  H40  1  0.00726829  0.73235868  0.20872596  1  0  0.425919  0  0.831194  0  0  0.40959  0  0.883855  0  0  0.417391  0  0.872365  0  0  0.325623  0.404257  0  0.891692  0
H  H41  1  0.49272817  0.76765953  0.70872905  1  0  0.425728  0  0.831527  0  0  0.409441  0  0.884074  0  0  0.417239  0  0.872586  0  0  0.325522  0.404113  0  0.891901  0
H  H42  1  0.99272529  0.26766916  0.79126546  1  0  0.425775  0  0.831606  0  0  0.409536  0  0.883979  0  0  0.417324  0  0.872507  0  0  0.325542  0.404209  0  0.891805  0
H  H43  1  0.50726264  0.23231948  0.29124843  1  0  0.42577  0  0.831487  0  0  0.409498  0  0.883986  0  0  0.417282  0  0.872519  0  0  0.325554  0.404177  0  0.891805  0
H  H44  1  0.91114947  0.72453672  0.29296012  1  0  0.448243  0  0.838482  0  0  0.419029  0  0.898011  0  0  0.429226  0  0.882933  0  0  0.30422  0.411809  0  0.908688  0
H  H45  1  0.58884519  0.77546279  0.79295707  1  0  0.448358  0  0.838298  0  0  0.419117  0  0.897872  0  0  0.429317  0  0.882788  0  0  0.304261  0.41189  0  0.908563  0
H  H46  1  0.08885471  0.27546153  0.70704595  1  0  0.44835  0  0.838284  0  0  0.419122  0  0.897844  0  0  0.429324  0  0.882754  0  0  0.304246  0.411896  0  0.908533  0
H  H47  1  0.41113600  0.22454584  0.20703785  1  0  0.448118  0  0.838636  0  0  0.4189  0  0.898174  0  0  0.429096  0  0.883094  0  0  0.304158  0.411686  0  0.908844  0
C  C48  1  0.49960289  0.33755633  0.68747246  1  0  -0.080964  0  3.77228  0  0  -0.059939  0  4.006412  0  0  -0.068694  0  4.029529  0  0  -0.009984  -0.05416  0  3.990826  0
C  C49  1  0.00040501  0.16245663  0.18745671  1  0  -0.081211  0  3.772731  0  0  -0.060129  0  4.006767  0  0  -0.068879  0  4.029901  0  0  -0.010175  -0.054345  0  3.991165  0
C  C50  1  0.50038687  0.66244147  0.31251896  1  0  -0.081091  0  3.772572  0  0  -0.060151  0  4.006878  0  0  -0.068901  0  4.030021  0  0  -0.010074  -0.054378  0  3.99127  0
C  C51  1  0.99958560  0.83754632  0.81253332  1  0  -0.081316  0  3.772829  0  0  -0.060125  0  4.006818  0  0  -0.068889  0  4.029932  0  0  -0.010138  -0.054335  0  3.991207  0
C  C52  1  0.52268695  0.06765190  0.86579982  1  0  0.734354  0  3.837599  0  0  0.682595  0  4.126332  0  0  0.720279  0  4.113573  0  0  0.25271  0.656786  0  4.134446  0
C  C53  1  0.97734608  0.43235152  0.36578117  1  0  0.734486  0  3.838167  0  0  0.682795  0  4.126706  0  0  0.72048  0  4.113934  0  0  0.252779  0.656993  0  4.134826  0
C  C54  1  0.47732781  0.93236037  0.13421183  1  0  0.734281  0  3.83774  0  0  0.682398  0  4.126686  0  0  0.720085  0  4.113927  0  0  0.252599  0.656598  0  4.134792  0
C  C55  1  0.02266613  0.56764527  0.63420328  1  0  0.734468  0  3.837526  0  0  0.682613  0  4.126442  0  0  0.720294  0  4.113674  0  0  0.252591  0.656808  0  4.134564  0
C  C56  1  0.38292387  0.24361175  0.70561974  1  0  -0.058441  0  3.719371  0  0  -0.081387  0  3.96883  0  0  -0.081508  0  3.988909  0  0  -0.071515  -0.081109  0  3.955056  0
C  C57  1  0.11709579  0.25638035  0.20560657  1  0  -0.05795  0  3.71959  0  0  -0.08093  0  3.969001  0  0  -0.081068  0  3.989086  0  0  -0.071305  -0.080651  0  3.955247  0
C  C58  1  0.61706851  0.75636902  0.29437238  1  0  -0.058369  0  3.719629  0  0  -0.081245  0  3.969051  0  0  -0.081412  0  3.989107  0  0  -0.071427  -0.080955  0  3.955277  0
C  C59  1  0.88289913  0.74361590  0.79438346  1  0  -0.058182  0  3.719502  0  0  -0.081207  0  3.968922  0  0  -0.081333  0  3.989006  0  0  -0.07143  -0.080931  0  3.955175  0
C  C60  1  0.94739566  0.37807170  0.99696798  1  0  -0.059854  0  3.737421  0  0  -0.037641  0  3.96798  0  0  -0.044143  0  3.99076  0  0  -0.011343  -0.033295  0  3.952396  0
C  C61  1  0.55260058  0.12191604  0.49697250  1  0  -0.059931  0  3.737468  0  0  -0.03761  0  3.967945  0  0  -0.044109  0  3.990725  0  0  -0.011384  -0.03327  0  3.952361  0
C  C62  1  0.05261964  0.62190125  0.00305693  1  0  -0.060092  0  3.73759  0  0  -0.037718  0  3.967993  0  0  -0.044217  0  3.990776  0  0  -0.011413  -0.03337  0  3.952388  0
C  C63  1  0.44736920  0.87808710  0.50306635  1  0  -0.060032  0  3.737793  0  0  -0.03774  0  3.968254  0  0  -0.044247  0  3.991043  0  0  -0.011453  -0.033388  0  3.952637  0
C  C64  1  0.39024959  0.15396860  0.76165906  1  0  -0.066653  0  3.746163  0  0  -0.091803  0  3.997836  0  0  -0.093006  0  4.017642  0  0  -0.072089  -0.09102  0  3.984691  0
C  C65  1  0.10977775  0.34603182  0.26164116  1  0  -0.066463  0  3.745959  0  0  -0.091649  0  3.997656  0  0  -0.092872  0  4.017466  0  0  -0.072011  -0.090861  0  3.984508  0
C  C66  1  0.60976268  0.84602563  0.23833515  1  0  -0.066397  0  3.745554  0  0  -0.091555  0  3.997157  0  0  -0.092738  0  4.017007  0  0  -0.071928  -0.090773  0  3.98401  0
C  C67  1  0.89021610  0.65396952  0.73834539  1  0  -0.066442  0  3.745823  0  0  -0.091593  0  3.997518  0  0  -0.092815  0  4.017329  0  0  -0.072041  -0.090804  0  3.984369  0
C  C68  1  0.56285030  0.61966452  0.99093153  1  0  -0.058468  0  3.743242  0  0  -0.037622  0  3.976048  0  0  -0.043925  0  3.99818  0  0  -0.0087  -0.033289  0  3.961497  0
C  C69  1  0.93714353  0.88032041  0.49093633  1  0  -0.058695  0  3.742861  0  0  -0.037852  0  3.975717  0  0  -0.044167  0  3.997848  0  0  -0.008715  -0.033509  0  3.96116  0
C  C70  1  0.43714673  0.38029417  0.00903758  1  0  -0.05923  0  3.742913  0  0  -0.038145  0  3.975642  0  0  -0.044461  0  3.997761  0  0  -0.008731  -0.033804  0  3.961093  0
C  C71  1  0.06285243  0.11968698  0.50905439  1  0  -0.058791  0  3.743166  0  0  -0.037967  0  3.976121  0  0  -0.044277  0  3.998243  0  0  -0.008753  -0.033625  0  3.961565  0
C  C72  1  0.62453384  0.33929539  0.72213459  1  0  -0.051869  0  3.733498  0  0  -0.07701  0  3.983485  0  0  -0.076875  0  4.003632  0  0  -0.071522  -0.077041  0  3.970065  0
C  C73  1  0.87547245  0.16073586  0.22210118  1  0  -0.05182  0  3.73408  0  0  -0.076973  0  3.983894  0  0  -0.076839  0  4.004041  0  0  -0.071178  -0.07699  0  3.970457  0
C  C74  1  0.37545674  0.66072380  0.27788195  1  0  -0.051935  0  3.733961  0  0  -0.077022  0  3.983822  0  0  -0.076883  0  4.003959  0  0  -0.071459  -0.077052  0  3.970403  0
C  C75  1  0.12451454  0.83925671  0.77788188  1  0  -0.051699  0  3.733703  0  0  -0.076853  0  3.983603  0  0  -0.07672  0  4.003757  0  0  -0.07127  -0.076871  0  3.970158  0
C  C76  1  0.48860113  0.43627431  0.63265855  1  0  0.72258  0  3.862862  0  0  0.670402  0  4.155556  0  0  0.707485  0  4.142643  0  0  0.252631  0.645006  0  4.163778  0
C  C77  1  0.01142051  0.06372925  0.13265177  1  0  0.722626  0  3.862981  0  0  0.670464  0  4.155595  0  0  0.707531  0  4.142716  0  0  0.252685  0.645067  0  4.16381  0
C  C78  1  0.51141145  0.56372079  0.36733148  1  0  0.722699  0  3.862397  0  0  0.670387  0  4.15533  0  0  0.707451  0  4.142444  0  0  0.252708  0.645027  0  4.16351  0
C  C79  1  0.98860175  0.93627727  0.86733826  1  0  0.72274  0  3.862608  0  0  0.670425  0  4.155447  0  0  0.707538  0  4.142503  0  0  0.25264  0.645032  0  4.163654  0
C  C80  1  0.63196594  0.24883731  0.77735510  1  0  -0.057341  0  3.721401  0  0  -0.079216  0  3.967622  0  0  -0.08047  0  3.987232  0  0  -0.074308  -0.0783  0  3.954073  0
C  C81  1  0.86804566  0.25119539  0.27731625  1  0  -0.056974  0  3.721821  0  0  -0.07881  0  3.967943  0  0  -0.080075  0  3.987559  0  0  -0.074261  -0.077899  0  3.954394  0
C  C82  1  0.36802576  0.75117423  0.22266492  1  0  -0.057085  0  3.721583  0  0  -0.07891  0  3.967708  0  0  -0.080164  0  3.987313  0  0  -0.07428  -0.077997  0  3.954166  0
C  C83  1  0.13194194  0.74879892  0.72265844  1  0  -0.057066  0  3.721883  0  0  -0.078904  0  3.967961  0  0  -0.080158  0  3.987569  0  0  -0.074203  -0.077996  0  3.954412  0
C  C84  1  0.51457535  0.15729943  0.79851260  1  0  -0.059813  0  3.752941  0  0  -0.039688  0  3.9849  0  0  -0.046093  0  4.006399  0  0  -0.004307  -0.035492  0  3.970479  0
C  C85  1  0.98544068  0.34271633  0.29848890  1  0  -0.060325  0  3.753385  0  0  -0.04027  0  3.985427  0  0  -0.046665  0  4.006911  0  0  -0.004464  -0.036075  0  3.971012  0
C  C86  1  0.48542163  0.84270543  0.20149208  1  0  -0.060121  0  3.752831  0  0  -0.039996  0  3.984898  0  0  -0.046399  0  4.006382  0  0  -0.004418  -0.035806  0  3.970484  0
C  C87  1  0.01454776  0.65728313  0.70149416  1  0  -0.060139  0  3.753029  0  0  -0.040026  0  3.985094  0  0  -0.046422  0  4.006582  0  0  -0.004409  -0.035835  0  3.970684  0
C  C88  1  0.88928484  0.24836410  0.99393997  1  0  0.651583  0  3.916704  0  0  0.605272  0  4.209527  0  0  0.638544  0  4.20385  0  0  0.211524  0.582688  0  4.212477  0
C  C89  1  0.61069667  0.25164637  0.49394308  1  0  0.651677  0  3.915799  0  0  0.605295  0  4.208688  0  0  0.638573  0  4.203  0  0  0.211492  0.582718  0  4.211642  0
C  C90  1  0.11070036  0.75163697  0.00605703  1  0  0.65151  0  3.915413  0  0  0.605133  0  4.208266  0  0  0.638411  0  4.202589  0  0  0.211426  0.582547  0  4.211219  0
C  C91  1  0.38926494  0.74836335  0.50608252  1  0  0.651723  0  3.916761  0  0  0.605363  0  4.209614  0  0  0.638637  0  4.203925  0  0  0.211648  0.582793  0  4.212555  0
C  C92  1  0.08333329  0.43675993  0.97584594  1  0  -0.075292  0  3.742165  0  0  -0.097875  0  3.990514  0  0  -0.099334  0  4.011662  0  0  -0.078431  -0.09667  0  3.975877  0
C  C93  1  0.41665755  0.06324040  0.47585770  1  0  -0.075293  0  3.74186  0  0  -0.097953  0  3.990183  0  0  -0.099418  0  4.011331  0  0  -0.078576  -0.096753  0  3.975565  0
C  C94  1  0.91668949  0.56323720  0.02419500  1  0  -0.075193  0  3.742448  0  0  -0.097788  0  3.990609  0  0  -0.099251  0  4.011755  0  0  -0.078365  -0.096546  0  3.976007  0
C  C95  1  0.58329932  0.93676661  0.52418324  1  0  -0.075405  0  3.742263  0  0  -0.097959  0  3.990474  0  0  -0.099422  0  4.011627  0  0  -0.078451  -0.096712  0  3.97586  0
C  C96  1  0.86454186  0.44282702  0.02136702  1  0  -0.062113  0  3.706738  0  0  -0.083232  0  3.949794  0  0  -0.084233  0  3.970321  0  0  -0.077756  -0.082236  0  3.935269  0
C  C97  1  0.63546380  0.05717612  0.52136211  1  0  -0.062132  0  3.70712  0  0  -0.083273  0  3.950107  0  0  -0.084278  0  3.970638  0  0  -0.077774  -0.082263  0  3.93556  0
C  C98  1  0.13549989  0.55716729  0.97867532  1  0  -0.061983  0  3.706702  0  0  -0.083099  0  3.949652  0  0  -0.084105  0  3.970187  0  0  -0.077697  -0.082092  0  3.935121  0
C  C99  1  0.36450237  0.94283033  0.47868790  1  0  -0.061919  0  3.70661  0  0  -0.083016  0  3.949611  0  0  -0.084022  0  3.970151  0  0  -0.077655  -0.082012  0  3.935083  0
C  C100  1  0.62939467  0.74746599  0.98279383  1  0  0.666862  0  3.890222  0  0  0.617386  0  4.183109  0  0  0.651244  0  4.17596  0  0  0.220722  0.594525  0  4.187082  0
C  C101  1  0.87062005  0.75252591  0.48279814  1  0  0.666787  0  3.890904  0  0  0.617351  0  4.183737  0  0  0.651215  0  4.176591  0  0  0.220701  0.594483  0  4.18772  0
C  C102  1  0.37063865  0.25250411  0.01718853  1  0  0.667025  0  3.890517  0  0  0.617456  0  4.183473  0  0  0.651314  0  4.176323  0  0  0.220719  0.594597  0  4.187446  0
C  C103  1  0.12938755  0.24747672  0.51719538  1  0  0.666942  0  3.890745  0  0  0.617508  0  4.183613  0  0  0.651367  0  4.17644  0  0  0.220727  0.594641  0  4.187606  0
C  C104  1  0.57402971  0.56378117  0.07446021  1  0  -0.066174  0  3.720088  0  0  -0.087736  0  3.967664  0  0  -0.088945  0  3.988634  0  0  -0.073225  -0.087265  0  3.953973  0
C  C105  1  0.92598448  0.93621550  0.57447203  1  0  -0.065977  0  3.719364  0  0  -0.087628  0  3.967026  0  0  -0.088795  0  3.988021  0  0  -0.073297  -0.087156  0  3.953322  0
C  C106  1  0.42598135  0.43620960  0.92550820  1  0  -0.065639  0  3.718793  0  0  -0.087378  0  3.966378  0  0  -0.088536  0  3.987362  0  0  -0.073213  -0.086919  0  3.952665  0
C  C107  1  0.07401966  0.06379899  0.42552149  1  0  -0.065852  0  3.719385  0  0  -0.087509  0  3.966973  0  0  -0.088671  0  3.987958  0  0  -0.073333  -0.087042  0  3.953292  0
C  C108  1  0.48817200  0.55513835  0.91649881  1  0  -0.066705  0  3.716276  0  0  -0.087286  0  3.960041  0  0  -0.08872  0  3.98025  0  0  -0.075848  -0.086581  0  3.946871  0
C  C109  1  0.01183011  0.94487707  0.41649919  1  0  -0.066549  0  3.715861  0  0  -0.087029  0  3.959632  0  0  -0.088453  0  3.979838  0  0  -0.075717  -0.086345  0  3.946475  0
C  C110  1  0.51184526  0.44486203  0.08347030  1  0  -0.066154  0  3.715809  0  0  -0.086863  0  3.95957  0  0  -0.088286  0  3.979796  0  0  -0.075703  -0.086167  0  3.9464  0
C  C111  1  0.98816533  0.05513971  0.58348526  1  0  -0.066492  0  3.716169  0  0  -0.08711  0  3.959974  0  0  -0.088536  0  3.980182  0  0  -0.075716  -0.086414  0  3.946805  0
O  O112  1  0.63516455  0.05132122  0.87350896  1  0  -0.691203  0  2.016884  0  0  -0.628876  0  2.264375  0  0  -0.658778  0  2.250236  0  0  -0.383726  -0.608125  0  2.273905  0
O  O113  1  0.86486974  0.44868963  0.37350610  1  0  -0.691385  0  2.017259  0  0  -0.628994  0  2.264661  0  0  -0.658893  0  2.25053  0  0  -0.383823  -0.608257  0  2.274196  0
O  O114  1  0.36484650  0.94869948  0.12650130  1  0  -0.691144  0  2.017043  0  0  -0.628738  0  2.264597  0  0  -0.658648  0  2.250465  0  0  -0.383597  -0.607998  0  2.274131  0
O  O115  1  0.13514868  0.55131677  0.62649858  1  0  -0.691113  0  2.0169  0  0  -0.628796  0  2.264434  0  0  -0.658681  0  2.250308  0  0  -0.383592  -0.608063  0  2.273971  0
O  O116  1  0.41801026  0.01455088  0.91269796  1  0  -0.698511  0  2.04526  0  0  -0.634785  0  2.30394  0  0  -0.665248  0  2.290134  0  0  -0.375971  -0.613108  0  2.312673  0
O  O117  1  0.08201436  0.48542818  0.41269037  1  0  -0.698519  0  2.045387  0  0  -0.634902  0  2.304067  0  0  -0.665345  0  2.29027  0  0  -0.376  -0.613217  0  2.312778  0
O  O118  1  0.58199098  0.98544985  0.08729207  1  0  -0.698599  0  2.045165  0  0  -0.634907  0  2.303974  0  0  -0.665369  0  2.290165  0  0  -0.376075  -0.61322  0  2.312702  0
O  O119  1  0.91801496  0.51456317  0.58728571  1  0  -0.698746  0  2.045358  0  0  -0.634946  0  2.303996  0  0  -0.6654  0  2.290195  0  0  -0.376031  -0.61326  0  2.312703  0
O  O120  1  0.71896781  0.79985773  0.04322363  1  0  -0.769244  0  2.042772  0  0  -0.715477  0  2.296271  0  0  -0.742581  0  2.286469  0  0  -0.410536  -0.696362  0  2.302445  0
O  O121  1  0.78103465  0.70013894  0.54322608  1  0  -0.769165  0  2.042879  0  0  -0.715413  0  2.296405  0  0  -0.742482  0  2.286526  0  0  -0.410499  -0.696298  0  2.302579  0
O  O122  1  0.28102978  0.20011894  0.95678035  1  0  -0.769309  0  2.042501  0  0  -0.71547  0  2.295942  0  0  -0.742599  0  2.286181  0  0  -0.410585  -0.696355  0  2.302126  0
O  O123  1  0.21896496  0.29986259  0.45677023  1  0  -0.769248  0  2.043014  0  0  -0.715437  0  2.296382  0  0  -0.74254  0  2.28662  0  0  -0.410542  -0.696353  0  2.302581  0
O  O124  1  0.59726973  0.80515613  0.91855226  1  0  -0.651928  0  1.953395  0  0  -0.593019  0  2.175029  0  0  -0.619372  0  2.164801  0  0  -0.316707  -0.574573  0  2.181421  0
O  O125  1  0.90276490  0.69485087  0.41855530  1  0  -0.651751  0  1.953477  0  0  -0.592903  0  2.175113  0  0  -0.619255  0  2.16489  0  0  -0.316667  -0.574471  0  2.181508  0
O  O126  1  0.40282459  0.19485267  0.08142870  1  0  -0.65171  0  1.953432  0  0  -0.592871  0  2.175131  0  0  -0.619221  0  2.164911  0  0  -0.316623  -0.574439  0  2.181519  0
O  O127  1  0.09725436  0.30516068  0.58143613  1  0  -0.651831  0  1.953568  0  0  -0.593024  0  2.175246  0  0  -0.619363  0  2.165015  0  0  -0.316682  -0.574578  0  2.181641  0
O  O128  1  0.95512501  0.18849262  0.95520418  1  0  -0.780744  0  1.978275  0  0  -0.728785  0  2.225161  0  0  -0.754837  0  2.213909  0  0  -0.404686  -0.710029  0  2.232193  0
O  O129  1  0.54481530  0.31148129  0.45518216  1  0  -0.780689  0  1.977788  0  0  -0.728709  0  2.224642  0  0  -0.754744  0  2.213388  0  0  -0.40461  -0.709987  0  2.231687  0
O  O130  1  0.04479333  0.81148837  0.04478655  1  0  -0.780708  0  1.977488  0  0  -0.728715  0  2.224329  0  0  -0.754762  0  2.213077  0  0  -0.40465  -0.709972  0  2.23136  0
O  O131  1  0.45514232  0.68850608  0.54479880  1  0  -0.780792  0  1.978173  0  0  -0.728838  0  2.225093  0  0  -0.754873  0  2.213844  0  0  -0.404711  -0.710097  0  2.232115  0
O  O132  1  0.37331349  0.44477743  0.62102073  1  0  -0.683635  0  2.044323  0  0  -0.622288  0  2.295256  0  0  -0.650579  0  2.282002  0  0  -0.36062  -0.602697  0  2.304391  0
O  O133  1  0.12670770  0.05522314  0.12101820  1  0  -0.683717  0  2.044793  0  0  -0.622329  0  2.295664  0  0  -0.650634  0  2.282406  0  0  -0.360689  -0.602747  0  2.304822  0
O  O134  1  0.62670318  0.55522122  0.37895536  1  0  -0.683688  0  2.044295  0  0  -0.622239  0  2.295297  0  0  -0.650537  0  2.282051  0  0  -0.360703  -0.602671  0  2.304428  0
O  O135  1  0.87331793  0.94479032  0.87897811  1  0  -0.683572  0  2.044291  0  0  -0.622233  0  2.295351  0  0  -0.650555  0  2.282082  0  0  -0.360609  -0.602636  0  2.30449  0
O  O136  1  0.77409112  0.19737108  0.02886290  1  0  -0.640702  0  1.962449  0  0  -0.588474  0  2.193584  0  0  -0.615505  0  2.186656  0  0  -0.340231  -0.569446  0  2.197563  0
O  O137  1  0.72588904  0.30264721  0.52888321  1  0  -0.640842  0  1.962126  0  0  -0.588575  0  2.193279  0  0  -0.615604  0  2.186346  0  0  -0.340248  -0.569558  0  2.197265  0
O  O138  1  0.22590838  0.80263557  0.97112713  1  0  -0.640714  0  1.96211  0  0  -0.588462  0  2.193271  0  0  -0.615502  0  2.186343  0  0  -0.340185  -0.56944  0  2.197252  0
O  O139  1  0.27408470  0.69736462  0.47115076  1  0  -0.640697  0  1.962658  0  0  -0.588509  0  2.193837  0  0  -0.615527  0  2.186905  0  0  -0.340244  -0.569507  0  2.197831  0
O  O140  1  0.59726085  0.51110255  0.60124656  1  0  -0.787333  0  2.071401  0  0  -0.725665  0  2.333765  0  0  -0.752674  0  2.318228  0  0  -0.415741  -0.706265  0  2.343883  0
O  O141  1  0.90274760  0.98890059  0.10124979  1  0  -0.787388  0  2.071296  0  0  -0.725716  0  2.333597  0  0  -0.752729  0  2.31807  0  0  -0.415752  -0.706283  0  2.343672  0
O  O142  1  0.40275071  0.48889508  0.39875463  1  0  -0.787419  0  2.071338  0  0  -0.725688  0  2.333707  0  0  -0.752692  0  2.31821  0  0  -0.415728  -0.706275  0  2.343728  0
O  O143  1  0.09727466  0.01110592  0.89872769  1  0  -0.787433  0  2.071324  0  0  -0.725704  0  2.333696  0  0  -0.752734  0  2.31815  0  0  -0.415783  -0.706291  0  2.343786  0
O  O144  1  0.92523656  0.74708344  0.22629738  1  0  -0.884588  0  1.728956  0  0  -0.846888  0  1.883003  0  0  -0.861089  0  1.853122  0  0  -0.625119  -0.836819  0  1.903747  0
O  O145  1  0.57473964  0.75290526  0.72629294  1  0  -0.88449  0  1.729119  0  0  -0.846823  0  1.883088  0  0  -0.861015  0  1.853206  0  0  -0.625064  -0.836754  0  1.90383  0
O  O146  1  0.07473001  0.25290507  0.77371218  1  0  -0.88453  0  1.729147  0  0  -0.846928  0  1.882912  0  0  -0.861113  0  1.853054  0  0  -0.625058  -0.836868  0  1.903639  0
O  O147  1  0.42524470  0.24707697  0.27370267  1  0  -0.88427  0  1.72938  0  0  -0.846634  0  1.883282  0  0  -0.860809  0  1.853439  0  0  -0.624979  -0.836583  0  1.903996  0
