# generated using pymatgen
data_ZnH56C60Br4(NO2)4
_symmetry_space_group_name_H-M   'P 1'
_cell_length_a   8.72827209
_cell_length_b   12.86285359
_cell_length_c   15.10915890
_cell_angle_alpha   113.23945722
_cell_angle_beta   97.43651025
_cell_angle_gamma   97.56824722
_symmetry_Int_Tables_number   1
_chemical_formula_structural   ZnH56C60Br4(NO2)4
_chemical_formula_sum   'Zn1 H56 C60 Br4 N4 O8'
_cell_volume   1514.15287695
_cell_formula_units_Z   1
loop_
 _symmetry_equiv_pos_site_id
 _symmetry_equiv_pos_as_xyz
  1  'x, y, z'
loop_
 _atom_site_type_symbol
 _atom_site_label
 _atom_site_symmetry_multiplicity
 _atom_site_fract_x
 _atom_site_fract_y
 _atom_site_fract_z
 _atom_site_occupancy
 _atom_site_hle17_bader_spin_density
 _atom_site_hle17_ddec_charge
 _atom_site_hle17_ddec_spin_density
 _atom_site_hle17_ddec_sum_bond_order
 _atom_site_hle17_magmom
 _atom_site_hse06_10hf_bader_spin_density
 _atom_site_hse06_10hf_ddec_charge
 _atom_site_hse06_10hf_ddec_spin_density
 _atom_site_hse06_10hf_ddec_sum_bond_order
 _atom_site_hse06_10hf_magmom
 _atom_site_hse06_bader_spin_density
 _atom_site_hse06_ddec_charge
 _atom_site_hse06_ddec_spin_density
 _atom_site_hse06_ddec_sum_bond_order
 _atom_site_hse06_magmom
 _atom_site_pbe_bader_spin_density
 _atom_site_pbe_cm5_charge
 _atom_site_pbe_ddec_charge
 _atom_site_pbe_ddec_spin_density
 _atom_site_pbe_ddec_sum_bond_order
 _atom_site_pbe_magmom
Zn  Zn0  1  0.99999775  0.00000133  0.99999948  1  0  0.903957  0  2.023321  0  0  0.699955  0  2.487343  0  0  0.742839  0  2.443121  0  0  0.7108  0.670481  0  2.51727  0
H  H1  1  0.47995080  0.90819152  0.12469609  1  0  0.105513  0  0.982018  0  0  0.117697  0  1.040432  0  0  0.121013  0  1.038519  0  0  0.099497  0.115355  0  1.041844  0
H  H2  1  0.52004855  0.09181064  0.87530598  1  0  0.105512  0  0.982006  0  0  0.117694  0  1.040416  0  0  0.121007  0  1.038506  0  0  0.0995  0.115348  0  1.04183  0
H  H3  1  0.66741582  0.08440301  0.28158104  1  0  0.113556  0  0.954038  0  0  0.125859  0  1.006827  0  0  0.1292  0  1.005411  0  0  0.104106  0.123509  0  1.007859  0
H  H4  1  0.33258120  0.91559915  0.71841888  1  0  0.113551  0  0.95403  0  0  0.125887  0  1.006781  0  0  0.129229  0  1.005364  0  0  0.104108  0.123533  0  1.007815  0
H  H5  1  0.26125994  0.30996247  0.36062946  1  0  0.104446  0  0.986195  0  0  0.113031  0  1.052104  0  0  0.116232  0  1.050432  0  0  0.09534  0.110699  0  1.053417  0
H  H6  1  0.73873430  0.69003796  0.63937034  1  0  0.104435  0  0.986139  0  0  0.112987  0  1.052087  0  0  0.116214  0  1.050389  0  0  0.095344  0.110672  0  1.053379  0
H  H7  1  0.48426120  0.31578881  0.25432624  1  0  0.12189  0  0.972217  0  0  0.129892  0  1.032417  0  0  0.13375  0  1.030415  0  0  0.102445  0.127147  0  1.033893  0
H  H8  1  0.51573441  0.68421250  0.74567064  1  0  0.12192  0  0.972214  0  0  0.129899  0  1.032433  0  0  0.133756  0  1.030433  0  0  0.102478  0.127156  0  1.033902  0
H  H9  1  0.82241132  0.33053558  0.29111492  1  0  0.114707  0  0.95424  0  0  0.118157  0  1.027121  0  0  0.121915  0  1.025047  0  0  0.103748  0.115509  0  1.028645  0
H  H10  1  0.17758522  0.66946054  0.70888358  1  0  0.114706  0  0.954328  0  0  0.118151  0  1.027214  0  0  0.12191  0  1.025137  0  0  0.103746  0.115498  0  1.028741  0
H  H11  1  0.06954688  0.13554599  0.41608812  1  0  0.107867  0  0.962086  0  0  0.113291  0  1.03127  0  0  0.11726  0  1.028501  0  0  0.103072  0.110445  0  1.033352  0
H  H12  1  0.93046261  0.86445533  0.58391109  1  0  0.107953  0  0.962015  0  0  0.113378  0  1.031188  0  0  0.117346  0  1.028418  0  0  0.103124  0.110531  0  1.033264  0
H  H13  1  0.63733375  0.45941004  0.48709105  1  0  0.039669  0  0.948347  0  0  0.054298  0  1.015489  0  0  0.055122  0  1.013704  0  0  0.089786  0.053575  0  1.016896  0
H  H14  1  0.36267067  0.54058522  0.51291170  1  0  0.039696  0  0.948358  0  0  0.054313  0  1.015492  0  0  0.055133  0  1.013704  0  0  0.089795  0.053591  0  1.016898  0
H  H15  1  0.81721848  0.55849812  0.51391483  1  0  0.047724  0  0.965913  0  0  0.056977  0  1.043522  0  0  0.056525  0  1.045254  0  0  0.091916  0.057221  0  1.042433  0
H  H16  1  0.18277601  0.44150318  0.48608659  1  0  0.047675  0  0.96594  0  0  0.056916  0  1.043512  0  0  0.056461  0  1.045239  0  0  0.091905  0.057164  0  1.042424  0
H  H17  1  0.50097236  0.55041540  0.40659105  1  0  0.05524  0  0.987658  0  0  0.067663  0  1.065245  0  0  0.069041  0  1.063813  0  0  0.077874  0.066562  0  1.066343  0
H  H18  1  0.49902883  0.44958936  0.59341137  1  0  0.055204  0  0.987598  0  0  0.067607  0  1.065211  0  0  0.068995  0  1.063774  0  0  0.077862  0.066503  0  1.06631  0
H  H19  1  0.56733439  0.56454590  0.30474788  1  0  0.094596  0  0.965925  0  0  0.110948  0  1.029734  0  0  0.111722  0  1.0301  0  0  0.098725  0.110283  0  1.029592  0
H  H20  1  0.43266820  0.43545540  0.69525612  1  0  0.094559  0  0.965881  0  0  0.110914  0  1.029694  0  0  0.111691  0  1.030055  0  0  0.098702  0.110246  0  1.029545  0
H  H21  1  0.67430141  0.65602887  0.42783031  1  0  0.075673  0  0.945672  0  0  0.091983  0  1.01109  0  0  0.093382  0  1.009952  0  0  0.088856  0.090878  0  1.011987  0
H  H22  1  0.32570117  0.34397244  0.57217237  1  0  0.075707  0  0.945626  0  0  0.092012  0  1.011042  0  0  0.09341  0  1.009907  0  0  0.088878  0.090902  0  1.011946  0
H  H23  1  0.09447231  0.32079830  0.66509767  1  0  0.045733  0  0.95724  0  0  0.051867  0  1.038105  0  0  0.053195  0  1.036433  0  0  0.086547  0.050835  0  1.039404  0
H  H24  1  0.90552727  0.67920473  0.33490471  1  0  0.045709  0  0.957256  0  0  0.051849  0  1.038109  0  0  0.053177  0  1.036436  0  0  0.086558  0.050819  0  1.039406  0
H  H25  1  0.92007615  0.21403934  0.62823902  1  0  0.045092  0  0.920578  0  0  0.058301  0  0.984442  0  0  0.059499  0  0.982714  0  0  0.091966  0.057366  0  0.985766  0
H  H26  1  0.07991856  0.78596282  0.37176140  1  0  0.045078  0  0.920588  0  0  0.058282  0  0.984452  0  0  0.059479  0  0.982722  0  0  0.091982  0.057346  0  0.985776  0
H  H27  1  0.21352010  0.18037627  0.71863968  1  0  0.05921  0  0.963434  0  0  0.073483  0  1.038484  0  0  0.074522  0  1.03778  0  0  0.08383  0.072653  0  1.039055  0
H  H28  1  0.78648521  0.81962678  0.28135650  1  0  0.059181  0  0.963486  0  0  0.073452  0  1.038535  0  0  0.074488  0  1.037834  0  0  0.083822  0.072625  0  1.039099  0
H  H29  1  0.20991693  0.04284171  0.62108436  1  0  0.091646  0  0.928029  0  0  0.11181  0  0.985121  0  0  0.112168  0  0.985289  0  0  0.102745  0.111449  0  0.985096  0
H  H30  1  0.79008720  0.95716136  0.37890910  1  0  0.091656  0  0.928092  0  0  0.111795  0  0.985204  0  0  0.112151  0  0.985373  0  0  0.102721  0.111435  0  0.985184  0
H  H31  1  0.03247413  0.07600605  0.66336784  1  0  0.067734  0  0.940736  0  0  0.085719  0  1.006232  0  0  0.08664  0  1.00562  0  0  0.089601  0.084968  0  1.00674  0
H  H32  1  0.96753398  0.92399441  0.33663231  1  0  0.067768  0  0.940659  0  0  0.085756  0  1.006159  0  0  0.086674  0  1.00555  0  0  0.089608  0.085006  0  1.006669  0
H  H33  1  0.31132874  0.86442350  0.96853588  1  0  0.113779  0  0.973813  0  0  0.119224  0  1.042576  0  0  0.122291  0  1.041822  0  0  0.105875  0.117031  0  1.043206  0
H  H34  1  0.68866895  0.13557262  0.03146138  1  0  0.113792  0  0.973772  0  0  0.119215  0  1.042552  0  0  0.122302  0  1.041774  0  0  0.105863  0.117018  0  1.043189  0
H  H35  1  0.61937931  0.61966325  0.89951372  1  0  0.111693  0  0.956199  0  0  0.117032  0  1.023855  0  0  0.121135  0  1.020788  0  0  0.105613  0.11409  0  1.026161  0
H  H36  1  0.38062024  0.38033547  0.10048456  1  0  0.111736  0  0.956186  0  0  0.117068  0  1.023839  0  0  0.121171  0  1.020771  0  0  0.105619  0.11412  0  1.026161  0
H  H37  1  0.98092751  0.71985121  0.88335136  1  0  0.082213  0  0.934233  0  0  0.094087  0  0.997757  0  0  0.094048  0  0.9989  0  0  0.10851  0.094025  0  0.997085  0
H  H38  1  0.01906948  0.28014664  0.11664577  1  0  0.082219  0  0.934186  0  0  0.094126  0  0.99768  0  0  0.094089  0  0.998818  0  0  0.108518  0.094065  0  0.997009  0
H  H39  1  0.97509395  0.65749448  0.96931358  1  0  0.050764  0  0.965547  0  0  0.058382  0  1.040992  0  0  0.059991  0  1.038494  0  0  0.08648  0.057173  0  1.042852  0
H  H40  1  0.02490583  0.34250510  0.03068500  1  0  0.050766  0  0.965551  0  0  0.058386  0  1.040999  0  0  0.059994  0  1.0385  0  0  0.086494  0.057177  0  1.042861  0
H  H41  1  0.99276186  0.79218504  0.13630153  1  0  0.070209  0  0.950587  0  0  0.085649  0  1.020945  0  0  0.086817  0  1.019894  0  0  0.08451  0.084721  0  1.021756  0
H  H42  1  0.00724047  0.20781540  0.86369886  1  0  0.070194  0  0.950589  0  0  0.08564  0  1.020943  0  0  0.086809  0  1.019892  0  0  0.084501  0.084709  0  1.02176  0
H  H43  1  0.10406675  0.93515724  0.17218687  1  0  0.096152  0  0.952399  0  0  0.111049  0  1.018626  0  0  0.111261  0  1.019511  0  0  0.101833  0.11075  0  1.01817  0
H  H44  1  0.89593393  0.06484149  0.82780884  1  0  0.096147  0  0.952368  0  0  0.111048  0  1.018602  0  0  0.111259  0  1.019488  0  0  0.101812  0.11076  0  1.018128  0
H  H45  1  0.20128651  0.81484417  0.13798339  1  0  0.066448  0  0.966015  0  0  0.085046  0  1.0336  0  0  0.0854  0  1.033486  0  0  0.088022  0.084673  0  1.033774  0
H  H46  1  0.79871417  0.18515456  0.86201232  1  0  0.066534  0  0.966034  0  0  0.085122  0  1.033623  0  0  0.085476  0  1.033511  0  0  0.088046  0.084745  0  1.0338  0
H  H47  1  0.38789303  0.40126249  0.92534819  1  0  0.057087  0  0.935151  0  0  0.069362  0  1.00347  0  0  0.07005  0  1.002891  0  0  0.09539  0.068784  0  1.003993  0
H  H48  1  0.61210929  0.59873796  0.07465087  1  0  0.05707  0  0.935121  0  0  0.069347  0  1.003452  0  0  0.070032  0  1.00287  0  0  0.095389  0.068774  0  1.00397  0
H  H49  1  0.32281087  0.36892039  0.79948065  1  0  0.037393  0  0.963024  0  0  0.048531  0  1.038408  0  0  0.049099  0  1.037211  0  0  0.089586  0.047996  0  1.039384  0
H  H50  1  0.67719007  0.63107919  0.20051933  1  0  0.037399  0  0.963021  0  0  0.048547  0  1.038403  0  0  0.049113  0  1.037205  0  0  0.089592  0.048016  0  1.039375  0
H  H51  1  0.58267993  0.27952071  0.87613133  1  0  0.067412  0  0.971745  0  0  0.080947  0  1.046992  0  0  0.080926  0  1.048542  0  0  0.087308  0.080863  0  1.046016  0
H  H52  1  0.41732058  0.72048578  0.12387229  1  0  0.067419  0  0.971727  0  0  0.08095  0  1.046969  0  0  0.080929  0  1.04852  0  0  0.087309  0.080865  0  1.045991  0
H  H53  1  0.71768326  0.31904954  0.80877799  1  0  0.079962  0  0.959572  0  0  0.095037  0  1.029788  0  0  0.095989  0  1.028598  0  0  0.089829  0.094244  0  1.030739  0
H  H54  1  0.28231702  0.68095176  0.19122585  1  0  0.079935  0  0.959569  0  0  0.095031  0  1.029755  0  0  0.095982  0  1.028565  0  0  0.089839  0.094228  0  1.030715  0
H  H55  1  0.51602021  0.25306766  0.75004302  1  0  0.069627  0  0.933199  0  0  0.089688  0  0.993919  0  0  0.09044  0  0.9932  0  0  0.090618  0.089042  0  0.994518  0
H  H56  1  0.48398398  0.74693105  0.24996023  1  0  0.069603  0  0.933157  0  0  0.089647  0  0.9939  0  0  0.090399  0  0.993181  0  0  0.090573  0.088997  0  0.994501  0
C  C57  1  0.68000083  0.92847518  0.04788113  1  0  0.204847  0  3.794146  0  0  0.190598  0  4.048466  0  0  0.197375  0  4.070692  0  0  0.090581  0.186171  0  4.033292  0
C  C58  1  0.32000174  0.07152612  0.95212023  1  0  0.204847  0  3.794187  0  0  0.190594  0  4.048512  0  0  0.197372  0  4.070735  0  0  0.090581  0.186166  0  4.033341  0
C  C59  1  0.59689796  0.95249958  0.12865294  1  0  -0.169302  0  3.740945  0  0  -0.187069  0  3.990234  0  0  -0.189537  0  4.008888  0  0  -0.10775  -0.18532  0  3.977466  0
C  C60  1  0.40310137  0.04749826  0.87134833  1  0  -0.169296  0  3.741031  0  0  -0.187048  0  3.990327  0  0  -0.189515  0  4.00898  0  0  -0.107729  -0.1853  0  3.977559  0
C  C61  1  0.69222280  0.04219776  0.20858632  1  0  -0.161422  0  3.738662  0  0  -0.176772  0  3.985563  0  0  -0.179258  0  4.004638  0  0  -0.10336  -0.175013  0  3.972469  0
C  C62  1  0.30777654  0.95780440  0.79141576  1  0  -0.161442  0  3.738688  0  0  -0.176826  0  3.985596  0  0  -0.179311  0  4.004667  0  0  -0.103378  -0.175062  0  3.972494  0
C  C63  1  0.83685885  0.07052092  0.17829561  1  0  0.195986  0  3.815672  0  0  0.182838  0  4.068471  0  0  0.188928  0  4.092239  0  0  0.088128  0.178898  0  4.052226  0
C  C64  1  0.16313771  0.92947952  0.82170501  1  0  0.196053  0  3.815636  0  0  0.182907  0  4.068442  0  0  0.188998  0  4.092208  0  0  0.088181  0.17897  0  4.052187  0
C  C65  1  0.97170985  0.15117147  0.24195894  1  0  -0.092319  0  3.70724  0  0  -0.078079  0  3.946439  0  0  -0.082478  0  3.970374  0  0  -0.002002  -0.075391  0  3.930404  0
C  C66  1  0.02829039  0.84882553  0.75803946  1  0  -0.092401  0  3.707268  0  0  -0.078154  0  3.94647  0  0  -0.082558  0  3.970407  0  0  -0.002  -0.075474  0  3.930434  0
C  C67  1  0.11971253  0.17119641  0.21751540  1  0  0.18696  0  3.834171  0  0  0.172533  0  4.091013  0  0  0.179237  0  4.113127  0  0  0.08257  0.168159  0  4.075916  0
C  C68  1  0.88028262  0.82880317  0.78248218  1  0  0.186882  0  3.834056  0  0  0.172466  0  4.090889  0  0  0.179166  0  4.113008  0  0  0.082522  0.168102  0  4.075782  0
C  C69  1  0.25488357  0.25755477  0.28326483  1  0  -0.173865  0  3.757261  0  0  -0.192517  0  4.009273  0  0  -0.194829  0  4.027395  0  0  -0.113087  -0.190818  0  3.996917  0
C  C70  1  0.74510744  0.74244652  0.71673568  1  0  -0.173819  0  3.757256  0  0  -0.192422  0  4.009253  0  0  -0.194761  0  4.027362  0  0  -0.113086  -0.190743  0  3.996885  0
C  C71  1  0.36771131  0.26055802  0.22888311  1  0  -0.161463  0  3.712633  0  0  -0.17693  0  3.959323  0  0  -0.179189  0  3.977022  0  0  -0.105719  -0.175285  0  3.947186  0
C  C72  1  0.63228224  0.73944413  0.77111722  1  0  -0.161558  0  3.712766  0  0  -0.177011  0  3.959445  0  0  -0.179274  0  3.977156  0  0  -0.105812  -0.175371  0  3.94731  0
C  C73  1  0.30207677  0.17535848  0.12924091  1  0  0.205301  0  3.785029  0  0  0.19107  0  4.038141  0  0  0.19771  0  4.060791  0  0  0.090322  0.18674  0  4.022679  0
C  C74  1  0.69791722  0.82464109  0.87075725  1  0  0.205412  0  3.784841  0  0  0.191215  0  4.037901  0  0  0.19785  0  4.060553  0  0  0.090471  0.18688  0  4.022439  0
C  C75  1  0.62253413  0.84258135  0.95134194  1  0  -0.082645  0  3.679144  0  0  -0.06877  0  3.916057  0  0  -0.073005  0  3.93986  0  0  0.002417  -0.066201  0  3.900132  0
C  C76  1  0.37746497  0.15741996  0.04865850  1  0  -0.082604  0  3.679272  0  0  -0.068716  0  3.916174  0  0  -0.072951  0  3.939976  0  0  0.002404  -0.06616  0  3.900261  0
C  C77  1  0.94966357  0.22493031  0.34238454  1  0  0.074022  0  3.826606  0  0  0.090421  0  4.06273  0  0  0.091126  0  4.087854  0  0  -0.009477  0.090028  0  4.045654  0
C  C78  1  0.05033528  0.77507014  0.65761360  1  0  0.074199  0  3.826656  0  0  0.090582  0  4.062793  0  0  0.091281  0  4.087939  0  0  -0.009452  0.090186  0  4.045716  0
C  C79  1  0.86526295  0.31326237  0.35396097  1  0  -0.151501  0  3.697829  0  0  -0.186492  0  3.958191  0  0  -0.189155  0  3.976637  0  0  -0.09281  -0.184721  0  3.945783  0
C  C80  1  0.13473940  0.68673375  0.64604126  1  0  -0.151527  0  3.69779  0  0  -0.186514  0  3.958138  0  0  -0.189177  0  3.976581  0  0  -0.092777  -0.184729  0  3.945698  0
C  C81  1  0.83381084  0.38039576  0.44553636  1  0  0.036985  0  3.765859  0  0  0.050162  0  4.009388  0  0  0.049977  0  4.032741  0  0  -0.018673  0.050255  0  3.993666  0
C  C82  1  0.16619311  0.61960642  0.55446340  1  0  0.036911  0  3.76599  0  0  0.050109  0  4.00945  0  0  0.049917  0  4.032798  0  0  -0.018749  0.050211  0  3.993722  0
C  C83  1  0.88736222  0.35571003  0.52519127  1  0  -0.010698  0  3.659376  0  0  -0.005327  0  3.921291  0  0  -0.004726  0  3.943886  0  0  -0.019875  -0.0059  0  3.906182  0
C  C84  1  0.11263548  0.64428609  0.47480864  1  0  -0.010611  0  3.659143  0  0  -0.005265  0  3.921096  0  0  -0.004656  0  3.943686  0  0  -0.019804  -0.005838  0  3.905982  0
C  C85  1  0.97258064  0.26834453  0.51628637  1  0  0.034975  0  3.766888  0  0  0.047728  0  4.010537  0  0  0.047763  0  4.0341  0  0  -0.020636  0.047677  0  3.994664  0
C  C86  1  0.02742100  0.73165765  0.48371257  1  0  0.03503  0  3.766672  0  0  0.047762  0  4.01037  0  0  0.047787  0  4.033927  0  0  -0.020629  0.047706  0  3.994497  0
C  C87  1  0.00434896  0.20420200  0.42383052  1  0  -0.161837  0  3.716947  0  0  -0.195619  0  3.975377  0  0  -0.199275  0  3.995199  0  0  -0.095339  -0.193174  0  3.962051  0
C  C88  1  0.99565707  0.79579500  0.57617095  1  0  -0.162055  0  3.717178  0  0  -0.195841  0  3.97565  0  0  -0.199489  0  3.995461  0  0  -0.095424  -0.193387  0  3.962311  0
C  C89  1  0.74409772  0.47563937  0.45813037  1  0  0.047439  0  3.712594  0  0  -0.011189  0  3.970764  0  0  -0.004354  0  3.97696  0  0  -0.072318  -0.015695  0  3.96641  0
C  C90  1  0.25590439  0.52436021  0.54187169  1  0  0.047422  0  3.712774  0  0  -0.011146  0  3.970859  0  0  -0.004292  0  3.977027  0  0  -0.072337  -0.015668  0  3.966519  0
C  C91  1  0.60667741  0.56867805  0.37806514  1  0  -0.087205  0  3.675705  0  0  -0.174109  0  3.933881  0  0  -0.169158  0  3.938345  0  0  -0.152873  -0.17719  0  3.930749  0
C  C92  1  0.39331801  0.43132237  0.62193738  1  0  -0.08712  0  3.675448  0  0  -0.174002  0  3.933644  0  0  -0.169061  0  3.938101  0  0  -0.152834  -0.177075  0  3.930499  0
C  C93  1  0.02507477  0.24165436  0.60249771  1  0  0.047261  0  3.718803  0  0  -0.010489  0  3.979496  0  0  -0.003921  0  3.985538  0  0  -0.071454  -0.014853  0  3.975257  0
C  C94  1  0.97492548  0.75834695  0.39750281  1  0  0.047417  0  3.718762  0  0  -0.010337  0  3.979389  0  0  -0.003762  0  3.985427  0  0  -0.071384  -0.014697  0  3.97515  0
C  C95  1  0.14373009  0.11179021  0.64878284  1  0  -0.074161  0  3.708273  0  0  -0.167496  0  3.97613  0  0  -0.161876  0  3.980647  0  0  -0.145758  -0.171107  0  3.972906  0
C  C96  1  0.85627454  0.88821024  0.35121573  1  0  -0.074224  0  3.70842  0  0  -0.167584  0  3.976307  0  0  -0.161954  0  3.980812  0  0  -0.145742  -0.171192  0  3.973074  0
C  C97  1  0.48147786  0.75347391  0.93519696  1  0  0.077973  0  3.807014  0  0  0.093089  0  4.04273  0  0  0.093798  0  4.067652  0  0  -0.005587  0.092672  0  4.025782  0
C  C98  1  0.51852032  0.24652393  0.06480555  1  0  0.077948  0  3.807028  0  0  0.093063  0  4.042743  0  0  0.093769  0  4.067676  0  0  -0.005611  0.092652  0  4.025789  0
C  C99  1  0.33224744  0.77707662  0.94833837  1  0  -0.148234  0  3.690572  0  0  -0.179102  0  3.944344  0  0  -0.182374  0  3.964277  0  0  -0.090618  -0.176878  0  3.930986  0
C  C100  1  0.66775281  0.22292037  0.05166136  1  0  -0.14825  0  3.690479  0  0  -0.179086  0  3.944287  0  0  -0.182374  0  3.964203  0  0  -0.090599  -0.176865  0  3.930913  0
C  C101  1  0.20532235  0.68978415  0.93547111  1  0  0.018702  0  3.756487  0  0  0.032034  0  4.00245  0  0  0.031416  0  4.026104  0  0  -0.023718  0.032389  0  3.986574  0
C  C102  1  0.79467812  0.31021370  0.06452760  1  0  0.018815  0  3.756424  0  0  0.032092  0  4.002456  0  0  0.031479  0  4.026104  0  0  -0.023677  0.032479  0  3.986537  0
C  C103  1  0.23191480  0.57718920  0.90708503  1  0  0.005103  0  3.647882  0  0  0.007594  0  3.912487  0  0  0.008913  0  3.934492  0  0  -0.016988  0.006566  0  3.897768  0
C  C104  1  0.76808384  0.42281038  0.09291677  1  0  0.005024  0  3.647985  0  0  0.007565  0  3.912601  0  0  0.008879  0  3.934607  0  0  -0.017021  0.006525  0  3.897877  0
C  C105  1  0.38021515  0.55036521  0.89417109  1  0  0.035765  0  3.768478  0  0  0.049145  0  4.011519  0  0  0.049093  0  4.034361  0  0  -0.019144  0.049143  0  3.996128  0
C  C106  1  0.61978720  0.44963523  0.10583127  1  0  0.035821  0  3.768496  0  0  0.04913  0  4.01164  0  0  0.049076  0  4.034478  0  0  -0.019159  0.049124  0  3.996254  0
C  C107  1  0.50352548  0.63973490  0.90875479  1  0  -0.148789  0  3.70513  0  0  -0.180943  0  3.959615  0  0  -0.183923  0  3.978282  0  0  -0.089506  -0.178971  0  3.947137  0
C  C108  1  0.49647803  0.36026554  0.09124898  1  0  -0.14885  0  3.705085  0  0  -0.180963  0  3.959574  0  0  -0.183943  0  3.978241  0  0  -0.089456  -0.178983  0  3.947099  0
C  C109  1  0.04638166  0.72073933  0.95102555  1  0  0.049323  0  3.637213  0  0  -0.010222  0  3.891755  0  0  -0.002831  0  3.89661  0  0  -0.06915  -0.015145  0  3.88839  0
C  C110  1  0.95361326  0.27925938  0.04897238  1  0  0.049297  0  3.63721  0  0  -0.010284  0  3.891819  0  0  -0.002882  0  3.896643  0  0  -0.069188  -0.01522  0  3.888454  0
C  C111  1  0.09134870  0.84376666  0.12317418  1  0  -0.075781  0  3.651338  0  0  -0.167772  0  3.907618  0  0  -0.161695  0  3.911974  0  0  -0.14977  -0.171659  0  3.904635  0
C  C112  1  0.90865107  0.15623293  0.87682308  1  0  -0.075806  0  3.651256  0  0  -0.167792  0  3.90752  0  0  -0.161717  0  3.911878  0  0  -0.14975  -0.171682  0  3.904521  0
C  C113  1  0.40845913  0.42979031  0.86683786  1  0  0.044117  0  3.713619  0  0  -0.015889  0  3.974274  0  0  -0.009018  0  3.979967  0  0  -0.072128  -0.020411  0  3.970205  0
C  C114  1  0.59154182  0.57020927  0.13316213  1  0  0.044108  0  3.713597  0  0  -0.015903  0  3.974331  0  0  -0.009019  0  3.98001  0  0  -0.072129  -0.020431  0  3.970265  0
C  C115  1  0.59580327  0.31312933  0.82004078  1  0  -0.086161  0  3.703169  0  0  -0.177924  0  3.968342  0  0  -0.172016  0  3.972472  0  0  -0.150449  -0.181723  0  3.96542  0
C  C116  1  0.40419676  0.68687111  0.17996076  1  0  -0.086123  0  3.703017  0  0  -0.177863  0  3.968187  0  0  -0.171953  0  3.972318  0  0  -0.150406  -0.181648  0  3.965262  0
Br  Br117  1  0.84089890  0.44387679  0.65046268  1  0  -0.053824  0  1.337605  0  0  -0.039261  0  1.598727  0  0  -0.045043  0  1.592442  0  0  0.067529  -0.035139  0  1.603197  0
Br  Br118  1  0.15909737  0.55610984  0.34953192  1  0  -0.053889  0  1.337451  0  0  -0.039325  0  1.598593  0  0  -0.045108  0  1.592303  0  0  0.06748  -0.035201  0  1.603062  0
Br  Br119  1  0.06281436  0.45244299  0.88331911  1  0  -0.084372  0  1.407623  0  0  -0.071279  0  1.692719  0  0  -0.076545  0  1.683055  0  0  0.057708  -0.067564  0  1.699566  0
Br  Br120  1  0.93718470  0.54754968  0.11667642  1  0  -0.084367  0  1.407707  0  0  -0.071267  0  1.692784  0  0  -0.076535  0  1.683124  0  0  0.057712  -0.067551  0  1.699629  0
N  N121  1  0.82494469  0.00178778  0.08032244  1  0  -0.457655  0  3.182978  0  0  -0.382706  0  3.462693  0  0  -0.402288  0  3.475038  0  0  -0.365069  -0.369385  0  3.454085  0
N  N122  1  0.17505257  0.99821525  0.91967911  1  0  -0.457641  0  3.182859  0  0  -0.382708  0  3.462604  0  0  -0.402288  0  3.474945  0  0  -0.365076  -0.369382  0  3.45399  0
N  N123  1  0.15394376  0.11965934  0.12539896  1  0  -0.461197  0  3.181517  0  0  -0.386254  0  3.462946  0  0  -0.406337  0  3.475952  0  0  -0.365862  -0.372524  0  3.453744  0
N  N124  1  0.84604839  0.88034196  0.87459965  1  0  -0.461127  0  3.181217  0  0  -0.386252  0  3.462733  0  0  -0.406298  0  3.475674  0  0  -0.365893  -0.372517  0  3.453518  0
O  O125  1  0.70027390  0.48328050  0.36754435  1  0  -0.261951  0  2.285549  0  0  -0.185864  0  2.531675  0  0  -0.201327  0  2.534644  0  0  -0.233426  -0.174923  0  2.529168  0
O  O126  1  0.29972451  0.51672253  0.63245663  1  0  -0.261977  0  2.285638  0  0  -0.185903  0  2.531734  0  0  -0.201367  0  2.534697  0  0  -0.23342  -0.174953  0  2.529218  0
O  O127  1  0.11431559  0.15329440  0.57512410  1  0  -0.267156  0  2.286622  0  0  -0.190583  0  2.52975  0  0  -0.205301  0  2.530368  0  0  -0.238333  -0.180138  0  2.52884  0
O  O128  1  0.88568880  0.84670519  0.42487416  1  0  -0.267205  0  2.286705  0  0  -0.190549  0  2.529779  0  0  -0.205267  0  2.530395  0  0  -0.238401  -0.180114  0  2.528876  0
O  O129  1  0.05996654  0.83491972  0.02513297  1  0  -0.273721  0  2.376555  0  0  -0.183834  0  2.629017  0  0  -0.201067  0  2.63078  0  0  -0.222494  -0.171745  0  2.627459  0
O  O130  1  0.94003162  0.16507813  0.97486624  1  0  -0.2738  0  2.376454  0  0  -0.183885  0  2.628888  0  0  -0.201126  0  2.630663  0  0  -0.222513  -0.171797  0  2.627334  0
O  O131  1  0.56498337  0.42657958  0.85121844  1  0  -0.264556  0  2.306816  0  0  -0.189772  0  2.556677  0  0  -0.204936  0  2.558087  0  0  -0.234943  -0.178974  0  2.555165  0
O  O132  1  0.43501755  0.57342001  0.14877890  1  0  -0.264552  0  2.306755  0  0  -0.189784  0  2.556634  0  0  -0.204956  0  2.558044  0  0  -0.234969  -0.178989  0  2.555123  0
