# generated using pymatgen
data_NiH18C20(N4O3)2
_symmetry_space_group_name_H-M   'P 1'
_cell_length_a   8.21528052
_cell_length_b   8.45746733
_cell_length_c   9.68887035
_cell_angle_alpha   85.66121986
_cell_angle_beta   76.22713920
_cell_angle_gamma   61.90262328
_symmetry_Int_Tables_number   1
_chemical_formula_structural   NiH18C20(N4O3)2
_chemical_formula_sum   'Ni1 H18 C20 N8 O6'
_cell_volume   576.25333194
_cell_formula_units_Z   1
loop_
 _symmetry_equiv_pos_site_id
 _symmetry_equiv_pos_as_xyz
  1  'x, y, z'
loop_
 _atom_site_type_symbol
 _atom_site_label
 _atom_site_symmetry_multiplicity
 _atom_site_fract_x
 _atom_site_fract_y
 _atom_site_fract_z
 _atom_site_occupancy
 _atom_site_hle17_ddec_charge
 _atom_site_hle17_ddec_spin_density
 _atom_site_hle17_ddec_sum_bond_order
 _atom_site_hle17_magmom
 _atom_site_hse06_10hf_ddec_charge
 _atom_site_hse06_10hf_ddec_spin_density
 _atom_site_hse06_10hf_ddec_sum_bond_order
 _atom_site_hse06_10hf_magmom
 _atom_site_hse06_ddec_charge
 _atom_site_hse06_ddec_spin_density
 _atom_site_hse06_ddec_sum_bond_order
 _atom_site_hse06_magmom
 _atom_site_pbe_cm5_charge
 _atom_site_pbe_ddec_charge
 _atom_site_pbe_ddec_spin_density
 _atom_site_pbe_ddec_sum_bond_order
 _atom_site_pbe_magmom
Ni  Ni0  1  0.99999816  0.99999866  0.00000150  1  1.024745  -1.838518  2.185509  -1.574  1.02902  -1.847172  2.599568  -1.653  1.089841  -1.894329  2.535738  -1.725  0.754868  0.985746  -1.804805  2.643694  -1.588
H  H1  1  0.07938420  0.57805134  0.81528107  1  0.068644  0.000128  0.943433  0.0  0.080945  8.7e-05  1.010192  0.0  0.080852  8.8e-05  1.010809  0.0  0.105133  0.080995  8.2e-05  1.009964  0.0
H  H2  1  0.92061695  0.42194908  0.18472087  1  0.068606  0.000128  0.943374  0.0  0.080912  8.7e-05  1.010143  0.0  0.080818  8.8e-05  1.010761  0.0  0.105118  0.080959  8.2e-05  1.00992  0.0
H  H3  1  0.10088354  0.36482993  0.77274501  1  0.064529  0.000162  0.938084  0.0  0.079048  9.3e-05  0.998699  0.0  0.078779  0.0001  0.999272  0.0  0.104417  0.079361  8.8e-05  0.998155  0.0
H  H4  1  0.89911511  0.63517046  0.22725434  1  0.064533  0.000162  0.938067  0.0  0.079038  9.2e-05  0.998702  0.0  0.078769  0.0001  0.999273  0.0  0.10442  0.079351  8.8e-05  0.998157  0.0
H  H5  1  0.23952564  0.37780128  0.52296217  1  0.084873  2e-05  0.961698  0.0  0.095389  2.8e-05  1.0331  0.0  0.096001  2.2e-05  1.034136  0.0  0.094377  0.094951  3.2e-05  1.032397  0.0
H  H6  1  0.76047751  0.62219509  0.47703656  1  0.084905  2e-05  0.96168  0.0  0.09541  2.8e-05  1.033081  0.0  0.096023  2.3e-05  1.03412  0.0  0.094383  0.09497  3.2e-05  1.032376  0.0
H  H7  1  0.33377848  0.60916206  0.43292144  1  0.041894  -3.3e-05  0.928209  0.0  0.058538  -5e-06  0.991837  0.0  0.058371  3e-06  0.991735  0.0  0.095819  0.058686  -2.1e-05  0.991865  0.0
H  H8  1  0.66622525  0.39083567  0.56707914  1  0.041899  -3.3e-05  0.928225  0.0  0.058545  -5e-06  0.991852  0.0  0.058378  3e-06  0.991749  0.0  0.095818  0.058694  -2.1e-05  0.991875  0.0
H  H9  1  0.37202107  0.40167957  0.63191192  1  0.089902  -1.1e-05  0.936092  0.0  0.105558  -1e-06  0.99882  0.0  0.105913  -2e-06  0.999707  0.0  0.09806  0.105377  -2e-06  0.99807  0.0
H  H10  1  0.62797882  0.59832084  0.36808924  1  0.089917  -1e-05  0.936091  0.0  0.105569  -1e-06  0.998806  0.0  0.105927  -2e-06  0.999695  0.0  0.098064  0.105389  -2e-06  0.998057  0.0
H  H11  1  0.08260456  0.70400940  0.48658082  1  0.041876  -2.2e-05  0.935111  0.0  0.052001  2e-06  1.005777  0.0  0.053309  4e-06  1.004017  0.0  0.089783  0.051134  -1.1e-05  1.006882  0.0
H  H12  1  0.91739793  0.29598831  0.51341795  1  0.041905  -2.3e-05  0.935148  0.0  0.052032  2e-06  1.005799  0.0  0.053339  4e-06  1.004039  0.0  0.089785  0.051159  -1.1e-05  1.006901  0.0
H  H13  1  0.98017559  0.11886176  0.25337499  1  0.415571  0.000435  0.891422  0.001  0.3846  -0.000234  0.955771  0.0  0.396289  -8.8e-05  0.939228  0.0  0.289181  0.376184  -0.000361  0.96757  0.0
H  H14  1  0.01982431  0.88113864  0.74662514  1  0.415554  0.000435  0.891441  0.001  0.384582  -0.000234  0.95579  0.0  0.396272  -8.9e-05  0.939247  0.0  0.28916  0.376165  -0.000361  0.967592  0.0
H  H15  1  0.19798628  0.96438293  0.18590118  1  0.415937  0.000654  0.877073  0.001  0.386963  -0.000125  0.945042  0.0  0.396576  3.6e-05  0.931338  0.0  0.293552  0.380109  -0.000281  0.954741  0.0
H  H16  1  0.80201296  0.03561878  0.81409589  1  0.415909  0.000655  0.877104  0.001  0.386936  -0.000125  0.945075  0.0  0.396549  3.5e-05  0.931371  0.0  0.293544  0.380079  -0.000281  0.95478  0.0
H  H17  1  0.24305083  0.85319090  0.56773167  1  0.365525  3.3e-05  0.938417  0.0  0.335246  3e-05  1.019666  0.0  0.345432  3e-05  1.004766  0.0  0.290633  0.32807  2.8e-05  1.030161  0.0
H  H18  1  0.75694906  0.14680950  0.43226950  1  0.365513  3.3e-05  0.938432  0.0  0.335234  3e-05  1.019684  0.0  0.34542  3e-05  1.004784  0.0  0.290623  0.32806  2.8e-05  1.030176  0.0
C  C19  1  0.40737980  0.90651728  0.81243202  1  0.362199  0.02886  3.782271  0.014  0.344803  0.008306  4.051262  0.0  0.363577  0.009992  4.066688  0.002  0.212493  0.331674  0.00746  4.041307  -0.002
C  C20  1  0.59262576  0.09348183  0.18757222  1  0.362177  0.028872  3.782258  0.014  0.344799  0.008309  4.051244  0.0  0.363574  0.009998  4.066664  0.002  0.212521  0.331666  0.007464  4.041302  -0.002
C  C21  1  0.65508374  0.91982429  0.62611084  1  0.345259  0.001624  3.817039  0.001  0.316859  0.00049  4.101892  0.0  0.33293  0.000504  4.117035  0.0  0.198872  0.306032  0.000521  4.091975  0.0
C  C22  1  0.34491100  0.08018145  0.37388790  1  0.345195  0.001618  3.817114  0.001  0.316822  0.000491  4.101951  0.0  0.332892  0.000502  4.11709  0.0  0.198842  0.305997  0.000521  4.092023  0.0
C  C23  1  0.73734708  0.67364830  0.78856414  1  0.33438  0.010179  3.797485  0.006  0.292359  0.004491  4.074187  0.003  0.319139  0.004303  4.080427  0.003  0.135507  0.274527  0.004934  4.069687  0.003
C  C24  1  0.26265347  0.32635079  0.21143905  1  0.334368  0.010182  3.797397  0.006  0.292354  0.004493  4.074148  0.003  0.319135  0.004297  4.080389  0.002  0.135494  0.2745  0.004935  4.069665  0.003
C  C25  1  0.59964554  0.83341583  0.74376085  1  -0.238279  -0.0018  3.942673  -0.005  -0.225254  -0.000335  4.199699  -0.002  -0.241548  -0.000179  4.214741  -0.002  -0.030838  -0.214675  -0.000584  4.190149  -0.002
C  C26  1  0.40035703  0.16657918  0.25623603  1  -0.238252  -0.001802  3.942588  -0.005  -0.225248  -0.000337  4.199647  -0.002  -0.241535  -0.000174  4.214667  -0.002  -0.030897  -0.21467  -0.000584  4.190115  -0.002
C  C27  1  0.08253978  0.49530782  0.73172845  1  0.105786  0.000492  3.540291  0.0  0.041583  0.000251  3.808611  0.0  0.051049  0.000272  3.813085  0.0  -0.062805  0.035108  0.000235  3.805589  0.0
C  C28  1  0.91745886  0.50469260  0.26827401  1  0.10579  0.000493  3.540211  0.0  0.041626  0.000253  3.808534  0.0  0.051095  0.000272  3.813011  0.0  -0.062818  0.035151  0.000235  3.805504  0.0
C  C29  1  0.23613364  0.46938974  0.59930361  1  -0.17718  2e-06  3.68158  0.0  -0.220099  3e-05  3.949105  0.0  -0.222164  2.5e-05  3.960427  0.0  -0.171497  -0.218469  2.7e-05  3.941146  0.0
C  C30  1  0.76386500  0.53061067  0.40069781  1  -0.177223  2e-06  3.681621  0.0  -0.220105  2.9e-05  3.949083  0.0  -0.222181  2.6e-05  3.960418  0.0  -0.171483  -0.21848  2.7e-05  3.941127  0.0
C  C31  1  0.21401472  0.64130554  0.52565085  1  0.15543  0.000117  3.631699  0.0  0.091902  1.9e-05  3.914781  0.0  0.09984  1.6e-05  3.920463  0.0  -0.079892  0.086394  1.8e-05  3.910794  0.0
C  C32  1  0.78598643  0.35869486  0.47434903  1  0.155385  0.000118  3.631807  0.0  0.091846  1.9e-05  3.914885  0.0  0.099788  1.6e-05  3.920567  0.0  -0.079918  0.086342  1.8e-05  3.910888  0.0
C  C33  1  0.70620245  0.59881907  0.92264887  1  -0.259094  -0.000558  3.96447  -0.004  -0.241974  0.000371  4.215779  -0.002  -0.258701  0.000397  4.232461  -0.002  -0.040582  -0.231099  0.000289  4.205419  -0.002
C  C34  1  0.29379743  0.40118136  0.07735539  1  -0.259078  -0.000559  3.964425  -0.004  -0.241907  0.000371  4.215692  -0.002  -0.258637  0.000398  4.232379  -0.002  -0.040559  -0.231033  0.000289  4.205338  -0.002
C  C35  1  0.80339370  0.41395397  0.94040850  1  0.345308  0.034081  3.812305  0.017  0.328655  0.011381  4.081067  0.002  0.347705  0.012874  4.095639  0.004  0.206892  0.315078  0.010822  4.07223  0.001
C  C36  1  0.19660811  0.58604509  0.05959134  1  0.345289  0.034096  3.812228  0.017  0.328622  0.011382  4.080989  0.002  0.347673  0.012874  4.095559  0.004  0.206853  0.315044  0.010823  4.072152  0.001
C  C37  1  0.56751044  0.70125974  0.04206592  1  0.313287  0.001946  3.828213  0.001  0.296573  0.000946  4.094789  0.0  0.309073  0.000872  4.114902  0.0  0.185321  0.288318  0.001055  4.081462  0.0
C  C38  1  0.43248761  0.29873932  0.95793468  1  0.31327  0.001948  3.828315  0.001  0.296544  0.000946  4.094892  0.0  0.309044  0.000873  4.115005  0.0  0.18532  0.288296  0.001055  4.081552  0.0
N  N39  1  0.24832616  0.96121572  0.87116253  1  -0.428868  -0.051605  2.934172  -0.078  -0.411622  -0.033913  3.220032  -0.052  -0.432548  -0.028659  3.224189  -0.045  -0.327581  -0.397682  -0.039059  3.217741  -0.058
N  N40  1  0.75167383  0.03878195  0.12883365  1  -0.428826  -0.051612  2.934254  -0.078  -0.411581  -0.033915  3.220114  -0.052  -0.432507  -0.028663  3.224267  -0.045  -0.327568  -0.397635  -0.039061  3.217829  -0.058
N  N41  1  0.70266507  0.98984595  0.52778813  1  -0.436288  0.000165  2.669652  0.0  -0.401481  0.000423  2.901754  0.0  -0.415104  0.000399  2.909536  0.0  -0.305033  -0.392585  0.000425  2.896702  0.0
N  N42  1  0.29733917  0.01015580  0.47221103  1  -0.436226  0.000171  2.669692  0.0  -0.401439  0.000423  2.901807  0.0  -0.415061  0.0004  2.90959  0.0  -0.304986  -0.392544  0.000425  2.896747  0.0
N  N43  1  0.87892239  0.26010829  0.95797037  1  -0.43535  -0.052787  2.966061  -0.08  -0.416771  -0.034189  3.256081  -0.052  -0.437092  -0.029376  3.258835  -0.046  -0.33144  -0.403493  -0.038863  3.254797  -0.057
N  N44  1  0.12107500  0.73989212  0.04203234  1  -0.435345  -0.052795  2.965965  -0.08  -0.416766  -0.03419  3.255994  -0.052  -0.437087  -0.029377  3.258745  -0.046  -0.331398  -0.403483  -0.038864  3.254704  -0.057
N  N45  1  0.45626331  0.78123036  0.14503464  1  -0.439711  0.000727  2.660353  0.0  -0.411352  0.000651  2.891995  0.0  -0.423667  0.000711  2.90398  0.0  -0.309039  -0.403393  0.000556  2.883982  0.0
N  N46  1  0.54372833  0.21877405  0.85496688  1  -0.439711  0.000724  2.660511  0.0  -0.411348  0.000651  2.892146  0.0  -0.423662  0.00071  2.904131  0.0  -0.309064  -0.403391  0.000556  2.884126  0.0
O  O47  1  0.08443273  0.06769842  0.16442954  1  -0.806815  -0.053981  1.976674  -0.091  -0.789008  -0.035595  2.187805  -0.062  -0.820575  -0.025754  2.157643  -0.047  -0.564175  -0.763894  -0.045028  2.207732  -0.074
O  O48  1  0.91556718  0.93230196  0.83556853  1  -0.806778  -0.053978  1.976755  -0.091  -0.788959  -0.035593  2.187867  -0.062  -0.820525  -0.025753  2.157706  -0.047  -0.564139  -0.76384  -0.045025  2.207795  -0.074
O  O49  1  0.90013540  0.59180310  0.69051353  1  -0.273798  0.001202  2.337475  0.001  -0.187843  0.000783  2.57015  0.001  -0.209354  0.000732  2.573137  0.001  -0.15089  -0.173076  0.000867  2.567862  0.001
O  O50  1  0.09986309  0.40820267  0.30948651  1  -0.273781  0.001202  2.337419  0.001  -0.187925  0.000782  2.570154  0.001  -0.209442  0.000732  2.573147  0.001  -0.150874  -0.173117  0.000867  2.567839  0.001
O  O51  1  0.21146454  0.76309634  0.62303343  1  -0.567389  -0.000781  2.109451  -0.002  -0.500128  -0.000398  2.327426  -0.001  -0.519003  -0.000158  2.314216  0.0  -0.403702  -0.486516  -0.000829  2.336211  -0.002
O  O52  1  0.78853602  0.23690271  0.37696563  1  -0.567365  -0.000781  2.109446  -0.002  -0.500107  -0.000398  2.327424  -0.001  -0.518982  -0.000158  2.314214  0.0  -0.403679  -0.486494  -0.000829  2.336208  -0.002
