# generated using pymatgen
data_ZnH11C12N3O2
_symmetry_space_group_name_H-M   'P 1'
_cell_length_a   9.51902250
_cell_length_b   9.77607013
_cell_length_c   20.22360000
_cell_angle_alpha   101.61790262
_cell_angle_beta   103.07222970
_cell_angle_gamma   90.11158960
_symmetry_Int_Tables_number   1
_chemical_formula_structural   ZnH11C12N3O2
_chemical_formula_sum   'Zn4 H44 C48 N12 O8'
_cell_volume   1793.42598568
_cell_formula_units_Z   4
loop_
 _symmetry_equiv_pos_site_id
 _symmetry_equiv_pos_as_xyz
  1  'x, y, z'
loop_
 _atom_site_type_symbol
 _atom_site_label
 _atom_site_symmetry_multiplicity
 _atom_site_fract_x
 _atom_site_fract_y
 _atom_site_fract_z
 _atom_site_occupancy
 _atom_site_hle17_bader_spin_density
 _atom_site_hle17_ddec_charge
 _atom_site_hle17_ddec_spin_density
 _atom_site_hle17_ddec_sum_bond_order
 _atom_site_hle17_magmom
 _atom_site_hse06_10hf_bader_spin_density
 _atom_site_hse06_10hf_ddec_charge
 _atom_site_hse06_10hf_ddec_spin_density
 _atom_site_hse06_10hf_ddec_sum_bond_order
 _atom_site_hse06_10hf_magmom
 _atom_site_hse06_bader_spin_density
 _atom_site_hse06_ddec_charge
 _atom_site_hse06_ddec_spin_density
 _atom_site_hse06_ddec_sum_bond_order
 _atom_site_hse06_magmom
 _atom_site_pbe_bader_charge
 _atom_site_pbe_bader_spin_density
 _atom_site_pbe_cm5_charge
 _atom_site_pbe_ddec_charge
 _atom_site_pbe_ddec_spin_density
 _atom_site_pbe_ddec_sum_bond_order
 _atom_site_pbe_magmom
Zn  Zn0  1  0.52604827  0.08691425  0.42922904  1  0  0.937654  0  1.955477  0  0  0.73782  0  2.444378  0  0  0.779968  0  2.396478  0  1.227413  0  0.719373  0.708652  0  2.477258  0
Zn  Zn1  1  0.09461026  0.41132028  0.56904165  1  0  0.937293  0  1.962943  0  0  0.737818  0  2.452617  0  0  0.779837  0  2.404533  0  1.227163  0  0.720605  0.708787  0  2.485577  0
Zn  Zn2  1  0.47394930  0.91308474  0.57076857  1  0  0.937677  0  1.955464  0  0  0.737848  0  2.444367  0  0  0.779996  0  2.396463  0  1.227405  0  0.719371  0.708677  0  2.477249  0
Zn  Zn3  1  0.90538499  0.58867557  0.43095443  1  0  0.937317  0  1.962897  0  0  0.737877  0  2.452529  0  0  0.779904  0  2.404426  0  1.227033  0  0.720632  0.70882  0  2.485539  0
H  H4  1  0.42165196  0.15725786  0.22052549  1  0  0.093755  0  0.957495  0  0  0.104769  0  1.016728  0  0  0.107914  0  1.014566  0  0.080147  0  0.101368  0.102469  0  1.018355  0
H  H5  1  0.19976091  0.34299989  0.77709929  1  0  0.093326  0  0.958955  0  0  0.1041  0  1.018594  0  0  0.107292  0  1.016326  0  0.057542  0  0.101594  0.101803  0  1.020251  0
H  H6  1  0.57834690  0.84274531  0.77947514  1  0  0.093683  0  0.957499  0  0  0.104701  0  1.016739  0  0  0.107847  0  1.014577  0  0.08017  0  0.10135  0.10242  0  1.018347  0
H  H7  1  0.80023872  0.65699700  0.22290378  1  0  0.093376  0  0.959001  0  0  0.104136  0  1.018624  0  0  0.107329  0  1.016355  0  0.057743  0  0.101634  0.10184  0  1.020284  0
H  H8  1  0.07854190  0.87730962  0.22606653  1  0  0.101146  0  0.947197  0  0  0.108463  0  1.010312  0  0  0.112036  0  1.008016  0  0.106335  0  0.102492  0.105907  0  1.011955  0
H  H9  1  0.85187493  0.62219115  0.77455379  1  0  0.100729  0  0.948748  0  0  0.108292  0  1.011511  0  0  0.111864  0  1.009214  0  0.105746  0  0.102637  0.105727  0  1.013164  0
H  H10  1  0.92145044  0.12269250  0.77392984  1  0  0.101071  0  0.947247  0  0  0.108448  0  1.010308  0  0  0.112023  0  1.008011  0  0.106351  0  0.102486  0.105892  0  1.011949  0
H  H11  1  0.14813446  0.37780679  0.22544696  1  0  0.10066  0  0.948865  0  0  0.108234  0  1.011611  0  0  0.111804  0  1.009317  0  0.10557  0  0.102591  0.105669  0  1.013269  0
H  H12  1  0.96173543  0.88260453  0.10442965  1  0  0.082539  0  0.9679  0  0  0.092918  0  1.030478  0  0  0.095533  0  1.029588  0  0.068144  0  0.095841  0.091053  0  1.031204  0
H  H13  1  0.85701760  0.61714510  0.89693348  1  0  0.08358  0  0.967242  0  0  0.09372  0  1.029962  0  0  0.096279  0  1.029125  0  0.05639  0  0.09644  0.091879  0  1.030713  0
H  H14  1  0.03827223  0.11740178  0.89556480  1  0  0.08261  0  0.967892  0  0  0.092986  0  1.030463  0  0  0.0956  0  1.029573  0  0.068123  0  0.095915  0.091122  0  1.031186  0
H  H15  1  0.14299043  0.38286852  0.10306964  1  0  0.083527  0  0.967207  0  0  0.093674  0  1.029928  0  0  0.096231  0  1.029095  0  0.056438  0  0.096433  0.091842  0  1.030635  0
H  H16  1  0.30681619  0.16370502  0.09807057  1  0  0.084247  0  0.945921  0  0  0.096338  0  1.002567  0  0  0.099526  0  1.001458  0  0.051858  0  0.097977  0.094059  0  1.003454  0
H  H17  1  0.20751542  0.33702639  0.90017704  1  0  0.084479  0  0.946688  0  0  0.096638  0  1.003148  0  0  0.099818  0  1.002027  0  0.044016  0  0.098203  0.094346  0  1.004099  0
H  H18  1  0.69319244  0.83629920  0.90192774  1  0  0.084307  0  0.945974  0  0  0.096379  0  1.002626  0  0  0.099566  0  1.001518  0  0.051686  0  0.097995  0.094102  0  1.003511  0
H  H19  1  0.79248878  0.66297573  0.09982702  1  0  0.084464  0  0.946692  0  0  0.096655  0  1.003131  0  0  0.099831  0  1.002017  0  0.044163  0  0.098228  0.094376  0  1.00404  0
H  H20  1  0.12463041  0.09875773  0.99843443  1  0  0.078721  0  0.955021  0  0  0.091637  0  1.016166  0  0  0.094537  0  1.014047  0  0.021065  0  0.096824  0.089572  0  1.017702  0
H  H21  1  0.12540422  0.40098246  0.00046123  1  0  0.07967  0  0.95712  0  0  0.092537  0  1.017963  0  0  0.095448  0  1.015806  0  0.033134  0  0.097224  0.090448  0  1.019577  0
H  H22  1  0.87536452  0.90123185  0.00156644  1  0  0.078899  0  0.955083  0  0  0.091825  0  1.01617  0  0  0.094727  0  1.01405  0  0.0209  0  0.096895  0.089761  0  1.017705  0
H  H23  1  0.87460446  0.59902280  0.99954065  1  0  0.079714  0  0.957136  0  0  0.092553  0  1.018018  0  0  0.095464  0  1.01586  0  0.033091  0  0.097207  0.090473  0  1.019585  0
H  H24  1  0.15528482  0.06692974  0.62951386  1  0  0.134611  0  0.923891  0  0  0.156985  0  0.977686  0  0  0.15871  0  0.977546  0  0.060912  0  0.105117  0.155757  0  0.977788  0
H  H25  1  0.52867138  0.43354445  0.37163661  1  0  0.134218  0  0.924955  0  0  0.156042  0  0.97961  0  0  0.157769  0  0.979464  0  0.057193  0  0.104682  0.154825  0  0.979703  0
H  H26  1  0.84471610  0.93307134  0.37048728  1  0  0.134594  0  0.923892  0  0  0.156969  0  0.977686  0  0  0.158693  0  0.977547  0  0.0609  0  0.105108  0.155741  0  0.977789  0
H  H27  1  0.47131881  0.56645767  0.62836646  1  0  0.134209  0  0.92487  0  0  0.156007  0  0.979555  0  0  0.157732  0  0.979411  0  0.057363  0  0.104689  0.154789  0  0.979648  0
H  H28  1  0.24008823  0.22686120  0.68004820  1  0  0.153969  0  0.962503  0  0  0.170375  0  1.023075  0  0  0.173534  0  1.02077  0  0.1351  0  0.105063  0.168033  0  1.024808  0
H  H29  1  0.56299464  0.27362032  0.32055117  1  0  0.153891  0  0.961725  0  0  0.170466  0  1.022121  0  0  0.173629  0  1.0198  0  0.136134  0  0.105218  0.168112  0  1.023871  0
H  H30  1  0.75991269  0.77313988  0.31995195  1  0  0.153967  0  0.962534  0  0  0.17038  0  1.023093  0  0  0.173538  0  1.02079  0  0.135116  0  0.105065  0.168039  0  1.024824  0
H  H31  1  0.43700229  0.72638703  0.67944917  1  0  0.153836  0  0.961749  0  0  0.170441  0  1.022112  0  0  0.173604  0  1.01979  0  0.136112  0  0.10522  0.168086  0  1.023863  0
H  H32  1  0.34164727  0.07170603  0.67125433  1  0  0.141687  0  0.943205  0  0  0.160266  0  1.001665  0  0  0.162854  0  1.000383  0  0.082788  0  0.104102  0.158356  0  1.002651  0
H  H33  1  0.67311503  0.42878489  0.32879298  1  0  0.143046  0  0.940962  0  0  0.161351  0  0.999342  0  0  0.163887  0  0.998181  0  0.084729  0  0.104656  0.159483  0  1.000232  0
H  H34  1  0.65835488  0.92829818  0.32874725  1  0  0.141735  0  0.943129  0  0  0.16029  0  1.001615  0  0  0.162878  0  1.000332  0  0.082947  0  0.104119  0.15838  0  1.002601  0
H  H35  1  0.32687812  0.57121200  0.67120643  1  0  0.142993  0  0.940987  0  0  0.161287  0  0.999375  0  0  0.163823  0  0.998214  0  0.084629  0  0.104641  0.159409  0  1.000278  0
H  H36  1  0.35641271  0.45475022  0.47070329  1  0  0.127451  0  0.93363  0  0  0.147129  0  0.992969  0  0  0.148646  0  0.993274  0  0.037011  0  0.098147  0.146069  0  0.992724  0
H  H37  1  0.88434368  0.04287682  0.52760833  1  0  0.126287  0  0.936292  0  0  0.146051  0  0.995895  0  0  0.14757  0  0.996232  0  0.031445  0  0.097851  0.145006  0  0.995611  0
H  H38  1  0.64359031  0.54524982  0.52929649  1  0  0.127459  0  0.933695  0  0  0.147134  0  0.993036  0  0  0.148652  0  0.993341  0  0.037057  0  0.098147  0.146075  0  0.99279  0
H  H39  1  0.11565902  0.95711694  0.47238883  1  0  0.126259  0  0.936426  0  0  0.14609  0  0.995961  0  0  0.147608  0  0.996297  0  0.031582  0  0.097862  0.145044  0  0.995676  0
H  H40  1  0.18724908  0.37106059  0.42552768  1  0  0.16409  0  0.95721  0  0  0.180105  0  1.018221  0  0  0.183781  0  1.015049  0  0.149166  0  0.105543  0.177457  0  1.0205  0
H  H41  1  0.76007541  0.12652148  0.57364834  1  0  0.164425  0  0.956339  0  0  0.180189  0  1.017687  0  0  0.18387  0  1.014512  0  0.130404  0  0.105896  0.177542  0  1.019963  0
H  H42  1  0.81275076  0.62894048  0.57447187  1  0  0.164125  0  0.957207  0  0  0.18016  0  1.01819  0  0  0.183837  0  1.015019  0  0.148924  0  0.105565  0.177512  0  1.02047  0
H  H43  1  0.23992934  0.87347019  0.42635032  1  0  0.164359  0  0.956417  0  0  0.180228  0  1.017659  0  0  0.183911  0  1.014484  0  0.130318  0  0.105931  0.177581  0  1.019936  0
H  H44  1  0.34522303  0.30480840  0.40240148  1  0  0.13658  0  0.94937  0  0  0.157462  0  1.006824  0  0  0.159575  0  1.005839  0  0.072979  0  0.104287  0.155844  0  1.007657  0
H  H45  1  0.94039108  0.19297861  0.59575902  1  0  0.135854  0  0.948596  0  0  0.156804  0  1.006332  0  0  0.158895  0  1.005333  0  0.05518  0  0.104167  0.155182  0  1.007197  0
H  H46  1  0.65477891  0.69519163  0.59759868  1  0  0.136546  0  0.94943  0  0  0.157456  0  1.006854  0  0  0.159581  0  1.005853  0  0.073005  0  0.10427  0.155838  0  1.007687  0
H  H47  1  0.05961269  0.80701515  0.40423924  1  0  0.135857  0  0.948617  0  0  0.156816  0  1.006364  0  0  0.158905  0  1.005367  0  0.055218  0  0.104156  0.155191  0  1.00723  0
C  C48  1  0.32446863  0.01343593  0.30499686  1  0  0.62973  0  3.936236  0  0  0.582956  0  4.225062  0  0  0.616566  0  4.218166  0  1.517501  0  0.196765  0.560144  0  4.228998  0
C  C49  1  0.01806856  0.48593830  0.69408660  1  0  0.631193  0  3.938997  0  0  0.585051  0  4.226713  0  0  0.618671  0  4.219763  0  1.533176  0  0.197141  0.562223  0  4.230692  0
C  C50  1  0.67552684  0.98656410  0.69500113  1  0  0.629726  0  3.936341  0  0  0.58295  0  4.225168  0  0  0.616561  0  4.218272  0  1.517549  0  0.196765  0.560137  0  4.229103  0
C  C51  1  0.98192130  0.51405755  0.30591533  1  0  0.631207  0  3.938916  0  0  0.585145  0  4.226554  0  0  0.618763  0  4.219601  0  1.533001  0  0.197158  0.562318  0  4.230538  0
C  C52  1  0.25691867  0.01768105  0.23120496  1  0  -0.065532  0  3.763069  0  0  -0.041718  0  3.992465  0  0  -0.050791  0  4.016903  0  -0.008702  0  -0.02108  -0.035811  0  3.975961  0
C  C53  1  0.02464764  0.48233726  0.76810979  1  0  -0.065664  0  3.766704  0  0  -0.042404  0  3.996587  0  0  -0.051603  0  4.02113  0  -0.01465  0  -0.020965  -0.036387  0  3.979984  0
C  C54  1  0.74308020  0.98232211  0.76879369  1  0  -0.065557  0  3.76298  0  0  -0.041749  0  3.992407  0  0  -0.050827  0  4.016858  0  -0.009075  0  -0.021089  -0.035842  0  3.975907  0
C  C55  1  0.97535538  0.51766277  0.23189494  1  0  -0.065324  0  3.76616  0  0  -0.042193  0  3.996154  0  0  -0.051393  0  4.020695  0  -0.01463  0  -0.020991  -0.03617  0  3.979546  0
C  C56  1  0.32055453  0.09793066  0.19460610  1  0  -0.06941  0  3.771315  0  0  -0.094243  0  4.01978  0  0  -0.09329  0  4.040996  0  -0.019933  0  -0.088676  -0.094588  0  4.005288  0
C  C57  1  0.12500214  0.40241283  0.80382910  1  0  -0.066144  0  3.772247  0  0  -0.090596  0  4.020583  0  0  -0.089614  0  4.041717  0  -0.048384  0  -0.087431  -0.091034  0  4.006242  0
C  C58  1  0.67944650  0.90207251  0.80539229  1  0  -0.069193  0  3.77118  0  0  -0.094021  0  4.019631  0  0  -0.093067  0  4.040851  0  -0.02034  0  -0.088598  -0.094383  0  4.005132  0
C  C59  1  0.87500417  0.59758824  0.19617608  1  0  -0.066356  0  3.772152  0  0  -0.090731  0  4.020479  0  0  -0.089746  0  4.041609  0  -0.048688  0  -0.087493  -0.091141  0  4.006016  0
C  C60  1  0.12693942  0.94040934  0.19750917  1  0  -0.061761  0  3.750892  0  0  -0.084167  0  3.994758  0  0  -0.083477  0  4.015508  0  -0.07174  0  -0.082023  -0.084375  0  3.980585  0
C  C61  1  0.92866370  0.55949085  0.80270139  1  0  -0.061268  0  3.75174  0  0  -0.083941  0  3.995645  0  0  -0.083197  0  4.016327  0  0.010662  0  -0.082022  -0.08422  0  3.981626  0
C  C62  1  0.87306252  0.05959069  0.80249000  1  0  -0.061628  0  3.750771  0  0  -0.084095  0  3.994626  0  0  -0.083405  0  4.015381  0  -0.072196  0  -0.082027  -0.084303  0  3.980448  0
C  C63  1  0.07134374  0.44051127  0.19730302  1  0  -0.061275  0  3.751659  0  0  -0.08391  0  3.995563  0  0  -0.083165  0  4.016245  0  0.010769  0  -0.081926  -0.084159  0  3.981414  0
C  C64  1  0.06229575  0.94397901  0.12921369  1  0  -0.113157  0  3.728921  0  0  -0.128713  0  3.969431  0  0  -0.133698  0  3.992041  0  -0.031517  0  -0.08904  -0.125426  0  3.954053  0
C  C65  1  0.93248265  0.55609371  0.87124577  1  0  -0.114396  0  3.730377  0  0  -0.129581  0  3.970799  0  0  -0.13449  0  3.993356  0  -0.085461  0  -0.089324  -0.12692  0  3.954946  0
C  C66  1  0.93771170  0.05602311  0.87078627  1  0  -0.113315  0  3.728977  0  0  -0.12885  0  3.969488  0  0  -0.133837  0  3.992099  0  -0.031609  0  -0.089115  -0.125563  0  3.954104  0
C  C67  1  0.06752398  0.44391364  0.12875857  1  0  -0.11436  0  3.730472  0  0  -0.129549  0  3.970888  0  0  -0.134464  0  3.993452  0  -0.085526  0  -0.089322  -0.126311  0  3.955523  0
C  C68  1  0.25578832  0.10127762  0.12615673  1  0  -0.125804  0  3.757788  0  0  -0.142798  0  4.005317  0  0  -0.148487  0  4.028122  0  -0.081806  0  -0.092065  -0.13899  0  3.989701  0
C  C69  1  0.12888765  0.39928231  0.87252667  1  0  -0.128927  0  3.763234  0  0  -0.145975  0  4.01076  0  0  -0.151652  0  4.033485  0  -0.094395  0  -0.093806  -0.142746  0  3.994713  0
C  C70  1  0.74421611  0.89872869  0.87384233  1  0  -0.125969  0  3.757981  0  0  -0.142954  0  4.005528  0  0  -0.148645  0  4.028331  0  -0.081022  0  -0.092121  -0.139148  0  3.989916  0
C  C71  1  0.87111871  0.60071981  0.12747713  1  0  -0.128907  0  3.763187  0  0  -0.146012  0  4.010746  0  0  -0.151688  0  4.033465  0  -0.094297  0  -0.093853  -0.142216  0  3.995195  0
C  C72  1  0.12502794  0.02473779  0.09183074  1  0  0.099071  0  3.831831  0  0  0.11765  0  4.061055  0  0  0.119686  0  4.086342  0  0.006965  0  -0.00844  0.116427  0  4.043737  0
C  C73  1  0.03268172  0.47552937  0.90770484  1  0  0.100195  0  3.840169  0  0  0.118709  0  4.068844  0  0  0.120731  0  4.094128  0  0.057637  0  -0.008514  0.119338  0  4.048766  0
C  C74  1  0.87498036  0.97526015  0.90816841  1  0  0.099067  0  3.831863  0  0  0.117642  0  4.061064  0  0  0.119682  0  4.086351  0  0.007432  0  -0.008515  0.116419  0  4.043745  0
C  C75  1  0.96732162  0.52447693  0.09229955  1  0  0.100216  0  3.840019  0  0  0.11874  0  4.068703  0  0  0.120767  0  4.093973  0  0.057948  0  -0.008494  0.117527  0  4.051367  0
C  C76  1  0.06225348  0.03259127  0.02025683  1  0  -0.106314  0  3.763535  0  0  -0.127385  0  4.013909  0  0  -0.129817  0  4.035352  0  0.027398  0  -0.089283  -0.125599  0  3.999062  0
C  C77  1  0.04175796  0.46730157  0.97935047  1  0  -0.107948  0  3.770393  0  0  -0.128982  0  4.020538  0  0  -0.131417  0  4.041914  0  -0.094593  0  -0.089919  -0.127761  0  4.005268  0
C  C78  1  0.93774760  0.96739203  0.97974359  1  0  -0.106615  0  3.763609  0  0  -0.127695  0  4.013976  0  0  -0.13013  0  4.03542  0  -0.077181  0  -0.089265  -0.125907  0  3.999129  0
C  C79  1  0.95824512  0.53269951  0.02065436  1  0  -0.108117  0  3.77028  0  0  -0.129152  0  4.020458  0  0  -0.131587  0  4.04183  0  -0.003686  0  -0.08998  -0.127384  0  4.005772  0
C  C80  1  0.29812419  0.16585477  0.58316612  1  0  0.435521  0  3.716554  0  0  0.41498  0  3.983144  0  0  0.431751  0  3.99776  0  0.984197  0  0.227394  0.403785  0  3.973053  0
C  C81  1  0.71630202  0.33424510  0.41676432  1  0  0.437023  0  3.715794  0  0  0.414314  0  3.985411  0  0  0.431072  0  4.000036  0  0.973478  0  0.227109  0.403151  0  3.975262  0
C  C82  1  0.70187554  0.83414422  0.41683320  1  0  0.435458  0  3.716592  0  0  0.414904  0  3.983196  0  0  0.43167  0  3.997819  0  0.983972  0  0.227364  0.403709  0  3.973104  0
C  C83  1  0.28369000  0.66575074  0.58323537  1  0  0.436931  0  3.716128  0  0  0.414364  0  3.985535  0  0  0.431125  0  4.000157  0  0.973827  0  0.227124  0.403199  0  3.975388  0
C  C84  1  0.25708492  0.13096736  0.64466595  1  0  -0.406412  0  3.68362  0  0  -0.482437  0  3.913844  0  0  -0.487391  0  3.918587  0  -0.085756  0  -0.231654  -0.478783  0  3.910594  0
C  C85  1  0.61496245  0.36947756  0.35577167  1  0  -0.408063  0  3.683496  0  0  -0.482699  0  3.914414  0  0  -0.487639  0  3.919153  0  -0.089176  0  -0.232248  -0.479063  0  3.91114  0
C  C86  1  0.74291492  0.86903372  0.35533409  1  0  -0.40642  0  3.683574  0  0  -0.482417  0  3.913808  0  0  -0.487369  0  3.918554  0  -0.085934  0  -0.231655  -0.478764  0  3.910558  0
C  C87  1  0.38502893  0.63052666  0.64422975  1  0  -0.407941  0  3.683464  0  0  -0.482603  0  3.914295  0  0  -0.487542  0  3.919035  0  -0.089502  0  -0.232281  -0.478959  0  3.911032  0
C  C88  1  0.31666459  0.25967623  0.49718183  1  0  0.431686  0  3.739471  0  0  0.409762  0  4.00717  0  0  0.426324  0  4.022114  0  1.014432  0  0.224807  0.39878  0  3.996723  0
C  C89  1  0.81884894  0.23822789  0.50164736  1  0  0.431877  0  3.742693  0  0  0.411214  0  4.008706  0  0  0.427831  0  4.023569  0  0.999456  0  0.22473  0.400174  0  3.998322  0
C  C90  1  0.68333406  0.74032276  0.50281689  1  0  0.431826  0  3.739398  0  0  0.409864  0  4.007154  0  0  0.426424  0  4.022098  0  1.014514  0  0.224838  0.398882  0  3.996705  0
C  C91  1  0.18115149  0.76176378  0.49834985  1  0  0.432108  0  3.742382  0  0  0.411354  0  4.008541  0  0  0.427984  0  4.023388  0  0.999522  0  0.224903  0.400316  0  3.998151  0
C  C92  1  0.30046610  0.35215305  0.44661011  1  0  -0.409734  0  3.690226  0  0  -0.48691  0  3.92623  0  0  -0.491509  0  3.930833  0  -0.066441  0  -0.236174  -0.483517  0  3.92303  0
C  C93  1  0.85224326  0.14536419  0.55194371  1  0  -0.407628  0  3.689856  0  0  -0.485439  0  3.926012  0  0  -0.490069  0  3.930733  0  -0.017592  0  -0.236483  -0.482024  0  3.92272  0
C  C94  1  0.69953471  0.64784593  0.55338884  1  0  -0.409765  0  3.690337  0  0  -0.486968  0  3.926327  0  0  -0.491577  0  3.930923  0  -0.066243  0  -0.236163  -0.483576  0  3.923124  0
C  C95  1  0.14775949  0.85463061  0.44805405  1  0  -0.407672  0  3.690019  0  0  -0.485613  0  3.926151  0  0  -0.490247  0  3.930867  0  -0.017663  0  -0.236576  -0.482194  0  3.922861  0
N  N96  1  0.40453671  0.15361082  0.49740402  1  0  -0.33067  0  3.214801  0  0  -0.265832  0  3.515811  0  0  -0.283411  0  3.527671  0  -0.805936  0  -0.261337  -0.254153  0  3.507878  0
N  N97  1  0.90601263  0.34547273  0.50197923  1  0  -0.330469  0  3.219442  0  0  -0.265908  0  3.520356  0  0  -0.283487  0  3.532053  0  -0.809844  0  -0.260801  -0.254238  0  3.512559  0
N  N98  1  0.59545973  0.84638712  0.50259387  1  0  -0.330742  0  3.214907  0  0  -0.265886  0  3.515924  0  0  -0.283464  0  3.527782  0  -0.806004  0  -0.261346  -0.254207  0  3.507991  0
N  N99  1  0.09398473  0.65452207  0.49801796  1  0  -0.330555  0  3.219286  0  0  -0.265936  0  3.520199  0  0  -0.283519  0  3.531892  0  -0.809823  0  -0.260834  -0.254266  0  3.5124  0
N  N100  1  0.39277730  0.09405881  0.55199120  1  0  -0.335055  0  3.217801  0  0  -0.270509  0  3.518703  0  0  -0.288068  0  3.53055  0  -0.807219  0  -0.263302  -0.258844  0  3.510811  0
N  N101  1  0.84081596  0.40654922  0.44816810  1  0  -0.335569  0  3.21858  0  0  -0.270293  0  3.520435  0  0  -0.287792  0  3.532208  0  -0.793682  0  -0.263528  -0.258691  0  3.512611  0
N  N102  1  0.60721915  0.90593913  0.44800669  1  0  -0.335055  0  3.217895  0  0  -0.270496  0  3.518776  0  0  -0.288053  0  3.530625  0  -0.807027  0  -0.263327  -0.258831  0  3.510884  0
N  N103  1  0.15917838  0.59344977  0.55183115  1  0  -0.335544  0  3.218669  0  0  -0.270335  0  3.520502  0  0  -0.287835  0  3.532275  0  -0.79389  0  -0.26351  -0.258734  0  3.512678  0
N  N104  1  0.24756773  0.27045948  0.54997132  1  0  -0.525403  0  3.114945  0  0  -0.447927  0  3.398453  0  0  -0.472248  0  3.406411  0  -1.254141  0  -0.353037  -0.431568  0  3.392781  0
N  N105  1  0.69853250  0.22793712  0.44911014  1  0  -0.525975  0  3.114398  0  0  -0.448587  0  3.398794  0  0  -0.472978  0  3.406812  0  -1.242817  0  -0.352094  -0.432188  0  3.393124  0
N  N106  1  0.75243319  0.72954160  0.45002883  1  0  -0.525456  0  3.11503  0  0  -0.447973  0  3.398565  0  0  -0.472296  0  3.40653  0  -1.254142  0  -0.353041  -0.431609  0  3.392887  0
N  N107  1  0.30146691  0.77205560  0.55088706  1  0  -0.525978  0  3.114439  0  0  -0.448621  0  3.398817  0  0  -0.47302  0  3.406836  0  -1.242816  0  -0.352183  -0.43222  0  3.393144  0
O  O108  1  0.44704933  0.08717565  0.33150260  1  0  -0.676777  0  2.091703  0  0  -0.595362  0  2.363121  0  0  -0.625004  0  2.34854  0  -1.178312  0  -0.345695  -0.574532  0  2.372305  0
O  O109  1  0.11277939  0.41071279  0.66674049  1  0  -0.677001  0  2.099933  0  0  -0.595799  0  2.371758  0  0  -0.625371  0  2.357166  0  -1.177608  0  -0.346175  -0.57499  0  2.380866  0
O  O110  1  0.55294830  0.91282439  0.66849512  1  0  -0.67678  0  2.091772  0  0  -0.595377  0  2.363213  0  0  -0.625021  0  2.348635  0  -1.178283  0  -0.345691  -0.574548  0  2.3724  0
O  O111  1  0.88720896  0.58929561  0.33325607  1  0  -0.676944  0  2.099763  0  0  -0.59581  0  2.371606  0  0  -0.625383  0  2.357015  0  -1.177425  0  -0.346147  -0.574996  0  2.380708  0
O  O112  1  0.26636738  0.94473916  0.33807581  1  0  -0.605722  0  1.923097  0  0  -0.560667  0  2.134804  0  0  -0.582771  0  2.125892  0  -1.178695  0  -0.323022  -0.545257  0  2.140449  0
O  O113  1  0.92810407  0.55523423  0.66155861  1  0  -0.60861  0  1.920727  0  0  -0.563931  0  2.132166  0  0  -0.586022  0  2.123177  0  -1.171618  0  -0.32511  -0.548544  0  2.137871  0
O  O114  1  0.73362912  0.05525983  0.66192071  1  0  -0.605747  0  1.923224  0  0  -0.560669  0  2.134923  0  0  -0.582775  0  2.126012  0  -1.17845  0  -0.323009  -0.545258  0  2.140566  0
O  O115  1  0.07186487  0.44475326  0.33844769  1  0  -0.608702  0  1.920876  0  0  -0.564027  0  2.132282  0  0  -0.586116  0  2.123288  0  -1.171805  0  -0.325114  -0.548639  0  2.13799  0
