# generated using pymatgen
data_CdH6C7(NCl)2
_symmetry_space_group_name_H-M   'P 1'
_cell_length_a   7.17018498
_cell_length_b   11.78972472
_cell_length_c   21.18028176
_cell_angle_alpha   89.99973339
_cell_angle_beta   90.00020439
_cell_angle_gamma   90.00019240
_symmetry_Int_Tables_number   1
_chemical_formula_structural   CdH6C7(NCl)2
_chemical_formula_sum   'Cd8 H48 C56 N16 Cl16'
_cell_volume   1790.46467725
_cell_formula_units_Z   8
loop_
 _symmetry_equiv_pos_site_id
 _symmetry_equiv_pos_as_xyz
  1  'x, y, z'
loop_
 _atom_site_type_symbol
 _atom_site_label
 _atom_site_symmetry_multiplicity
 _atom_site_fract_x
 _atom_site_fract_y
 _atom_site_fract_z
 _atom_site_occupancy
 _atom_site_hle17_bader_spin_density
 _atom_site_hle17_ddec_charge
 _atom_site_hle17_ddec_spin_density
 _atom_site_hle17_ddec_sum_bond_order
 _atom_site_hle17_magmom
 _atom_site_hse06_10hf_bader_spin_density
 _atom_site_hse06_10hf_ddec_charge
 _atom_site_hse06_10hf_ddec_spin_density
 _atom_site_hse06_10hf_ddec_sum_bond_order
 _atom_site_hse06_10hf_magmom
 _atom_site_hse06_bader_spin_density
 _atom_site_hse06_ddec_charge
 _atom_site_hse06_ddec_spin_density
 _atom_site_hse06_ddec_sum_bond_order
 _atom_site_hse06_magmom
 _atom_site_pbe_bader_spin_density
 _atom_site_pbe_cm5_charge
 _atom_site_pbe_ddec_charge
 _atom_site_pbe_ddec_spin_density
 _atom_site_pbe_ddec_sum_bond_order
 _atom_site_pbe_magmom
Cd  Cd0  1  0.63380307  0.38217304  0.46032426  1  0  1.026389  0  1.927336  0  0  0.875055  0  2.394818  0  0  0.920101  0  2.351512  0  0  0.602264  0.843172  0  2.424396  0
Cd  Cd1  1  0.36619824  0.11782524  0.96032629  1  0  1.02638  0  1.927309  0  0  0.875028  0  2.39481  0  0  0.920073  0  2.351505  0  0  0.602276  0.843149  0  2.424384  0
Cd  Cd2  1  0.13379903  0.61782525  0.03967533  1  0  1.026396  0  1.92726  0  0  0.875046  0  2.394775  0  0  0.920094  0  2.351471  0  0  0.602283  0.843165  0  2.424341  0
Cd  Cd3  1  0.86619637  0.88217359  0.53967444  1  0  1.026425  0  1.927248  0  0  0.875096  0  2.394713  0  0  0.920141  0  2.351407  0  0  0.602301  0.843216  0  2.424285  0
Cd  Cd4  1  0.36619877  0.61782425  0.53967496  1  0  1.026397  0  1.927223  0  0  0.875053  0  2.394705  0  0  0.920096  0  2.351406  0  0  0.602294  0.843174  0  2.424279  0
Cd  Cd5  1  0.63380221  0.88217375  0.03967529  1  0  1.026413  0  1.927219  0  0  0.875064  0  2.394717  0  0  0.920113  0  2.351414  0  0  0.602276  0.843186  0  2.424288  0
Cd  Cd6  1  0.86619723  0.38217373  0.96032530  1  0  1.026391  0  1.927303  0  0  0.875036  0  2.394816  0  0  0.920079  0  2.35151  0  0  0.602281  0.843157  0  2.424385  0
Cd  Cd7  1  0.13380686  0.11782539  0.46032572  1  0  1.026413  0  1.927294  0  0  0.87507  0  2.394791  0  0  0.920119  0  2.351486  0  0  0.602289  0.843191  0  2.424363  0
H  H8  1  0.93762295  0.43444413  0.29617453  1  0  0.100775  0  0.974268  0  0  0.111019  0  1.035067  0  0  0.113099  0  1.036156  0  0  0.100141  0.109589  0  1.034354  0
H  H9  1  0.06238497  0.06555467  0.79617397  1  0  0.10083  0  0.974212  0  0  0.111059  0  1.035022  0  0  0.113138  0  1.036111  0  0  0.100133  0.109632  0  1.034297  0
H  H10  1  0.43761480  0.56555563  0.20382637  1  0  0.100796  0  0.974232  0  0  0.111051  0  1.035012  0  0  0.11313  0  1.036102  0  0  0.100143  0.109624  0  1.034286  0
H  H11  1  0.56239212  0.93444693  0.70382545  1  0  0.100819  0  0.974314  0  0  0.111056  0  1.035088  0  0  0.113132  0  1.036185  0  0  0.100141  0.10963  0  1.034365  0
H  H12  1  0.06237889  0.56555401  0.70382469  1  0  0.100799  0  0.97428  0  0  0.111015  0  1.0351  0  0  0.113092  0  1.036193  0  0  0.100126  0.10959  0  1.034375  0
H  H13  1  0.93761269  0.93444516  0.20382714  1  0  0.100803  0  0.974258  0  0  0.111029  0  1.035066  0  0  0.113106  0  1.036161  0  0  0.100124  0.109603  0  1.03434  0
H  H14  1  0.56238007  0.43444844  0.79617568  1  0  0.100826  0  0.974286  0  0  0.111034  0  1.035102  0  0  0.113112  0  1.036194  0  0  0.10014  0.109608  0  1.034373  0
H  H15  1  0.43761669  0.06555375  0.29617282  1  0  0.100803  0  0.974266  0  0  0.111037  0  1.035054  0  0  0.11311  0  1.036161  0  0  0.100141  0.109612  0  1.034329  0
H  H16  1  0.86858959  0.53246203  0.19511952  1  0  0.110404  0  0.961313  0  0  0.118988  0  1.024609  0  0  0.122086  0  1.022842  0  0  0.097454  0.116728  0  1.025893  0
H  H17  1  0.13141444  0.96753806  0.69511847  1  0  0.110414  0  0.961319  0  0  0.118993  0  1.024624  0  0  0.122091  0  1.022856  0  0  0.097457  0.11673  0  1.025912  0
H  H18  1  0.36858198  0.46753589  0.30488083  1  0  0.110396  0  0.961337  0  0  0.118977  0  1.024635  0  0  0.122075  0  1.022867  0  0  0.097439  0.116701  0  1.025936  0
H  H19  1  0.63141627  0.03246453  0.80487915  1  0  0.110383  0  0.961413  0  0  0.118965  0  1.02471  0  0  0.122062  0  1.022942  0  0  0.097469  0.1167  0  1.026001  0
H  H20  1  0.13140667  0.46753949  0.80487970  1  0  0.110453  0  0.961279  0  0  0.119025  0  1.024592  0  0  0.122124  0  1.022822  0  0  0.097481  0.116759  0  1.025887  0
H  H21  1  0.86858600  0.03246517  0.30488074  1  0  0.1104  0  0.961338  0  0  0.118975  0  1.024638  0  0  0.122073  0  1.022871  0  0  0.097456  0.116683  0  1.025959  0
H  H22  1  0.63140312  0.53246395  0.69512028  1  0  0.110436  0  0.961313  0  0  0.119018  0  1.024617  0  0  0.122116  0  1.022849  0  0  0.097463  0.116779  0  1.025882  0
H  H23  1  0.36858139  0.96753445  0.19511960  1  0  0.110387  0  0.961398  0  0  0.11897  0  1.024694  0  0  0.122067  0  1.022927  0  0  0.097451  0.116706  0  1.025984  0
H  H24  1  0.70347272  0.71534823  0.40033930  1  0  0.119585  0  0.975069  0  0  0.125967  0  1.041333  0  0  0.129758  0  1.039659  0  0  0.09241  0.123241  0  1.04263  0
H  H25  1  0.29653490  0.78464930  0.90033751  1  0  0.119562  0  0.975099  0  0  0.125946  0  1.041316  0  0  0.129743  0  1.039646  0  0  0.092373  0.123205  0  1.042655  0
H  H26  1  0.20347445  0.28464766  0.09966037  1  0  0.119558  0  0.975074  0  0  0.125958  0  1.041314  0  0  0.129755  0  1.039641  0  0  0.092384  0.123223  0  1.042636  0
H  H27  1  0.79652858  0.21535109  0.59965983  1  0  0.119539  0  0.975096  0  0  0.125943  0  1.041328  0  0  0.129738  0  1.039657  0  0  0.092371  0.123205  0  1.042654  0
H  H28  1  0.29652912  0.28464906  0.59966463  1  0  0.119571  0  0.975106  0  0  0.125948  0  1.041364  0  0  0.129743  0  1.039696  0  0  0.092377  0.123217  0  1.042667  0
H  H29  1  0.70347392  0.21534799  0.09965934  1  0  0.119544  0  0.975093  0  0  0.125949  0  1.041329  0  0  0.129742  0  1.039655  0  0  0.092383  0.123217  0  1.042645  0
H  H30  1  0.79652878  0.71535217  0.90033648  1  0  0.119559  0  0.975084  0  0  0.125938  0  1.041338  0  0  0.129733  0  1.039671  0  0  0.092389  0.123208  0  1.042643  0
H  H31  1  0.20347187  0.78465044  0.40034175  1  0  0.119552  0  0.975051  0  0  0.125931  0  1.041314  0  0  0.12973  0  1.039641  0  0  0.092369  0.123201  0  1.042621  0
H  H32  1  0.63768894  0.81473428  0.29991790  1  0  0.096974  0  0.967882  0  0  0.107083  0  1.029733  0  0  0.108902  0  1.030298  0  0  0.10251  0.105755  0  1.029382  0
H  H33  1  0.36231760  0.68526494  0.79991598  1  0  0.096975  0  0.96791  0  0  0.107095  0  1.029751  0  0  0.108915  0  1.030314  0  0  0.102497  0.105755  0  1.029411  0
H  H34  1  0.13768841  0.18526063  0.20008264  1  0  0.096909  0  0.967891  0  0  0.107052  0  1.029719  0  0  0.108872  0  1.030283  0  0  0.102497  0.105725  0  1.029368  0
H  H35  1  0.86231291  0.31473728  0.70008144  1  0  0.096975  0  0.967924  0  0  0.107104  0  1.029755  0  0  0.108924  0  1.030318  0  0  0.102515  0.105776  0  1.029402  0
H  H36  1  0.36231150  0.18526386  0.70008651  1  0  0.096966  0  0.967915  0  0  0.107101  0  1.029739  0  0  0.108922  0  1.0303  0  0  0.102533  0.105773  0  1.029385  0
H  H37  1  0.63768842  0.31473659  0.20008041  1  0  0.09697  0  0.967902  0  0  0.107087  0  1.029741  0  0  0.108906  0  1.030306  0  0  0.102516  0.105765  0  1.029381  0
H  H38  1  0.86231204  0.81473751  0.79991422  1  0  0.096932  0  0.968  0  0  0.107066  0  1.029831  0  0  0.108886  0  1.030394  0  0  0.102529  0.105739  0  1.029479  0
H  H39  1  0.13768335  0.68526340  0.29992061  1  0  0.09696  0  0.967919  0  0  0.107065  0  1.029774  0  0  0.108884  0  1.03034  0  0  0.102497  0.105734  0  1.029423  0
H  H40  1  0.89090428  0.56984355  0.44791404  1  0  0.313009  0  0.925414  0  0  0.299151  0  0.988213  0  0  0.305975  0  0.98327  0  0  0.272217  0.294235  0  0.991807  0
H  H41  1  0.10909967  0.93015443  0.94791212  1  0  0.312923  0  0.925649  0  0  0.299068  0  0.988438  0  0  0.305892  0  0.983498  0  0  0.272199  0.294151  0  0.992028  0
H  H42  1  0.39089934  0.43015526  0.05208775  1  0  0.312879  0  0.925558  0  0  0.299024  0  0.988357  0  0  0.305847  0  0.983416  0  0  0.272164  0.294109  0  0.991947  0
H  H43  1  0.60909761  0.06984473  0.55208688  1  0  0.312845  0  0.9256  0  0  0.298993  0  0.988394  0  0  0.305818  0  0.983455  0  0  0.272144  0.294078  0  0.991983  0
H  H44  1  0.10910035  0.43015289  0.55208754  1  0  0.312907  0  0.925649  0  0  0.29905  0  0.988429  0  0  0.305874  0  0.98349  0  0  0.272207  0.294134  0  0.992019  0
H  H45  1  0.89090496  0.06984201  0.05208757  1  0  0.312895  0  0.925561  0  0  0.299034  0  0.988371  0  0  0.305857  0  0.983429  0  0  0.272163  0.29412  0  0.991962  0
H  H46  1  0.60909971  0.56984542  0.94791289  1  0  0.312936  0  0.925634  0  0  0.299081  0  0.988409  0  0  0.305905  0  0.983469  0  0  0.272211  0.294166  0  0.991998  0
H  H47  1  0.39090423  0.93015680  0.44791280  1  0  0.312913  0  0.925527  0  0  0.299053  0  0.988335  0  0  0.305874  0  0.983393  0  0  0.272164  0.294137  0  0.991927  0
H  H48  1  0.97344417  0.45734414  0.40935054  1  0  0.313271  0  0.891738  0  0  0.300432  0  0.951563  0  0  0.306429  0  0.947673  0  0  0.28768  0.296097  0  0.954468  0
H  H49  1  0.02656077  0.04265286  0.90935000  1  0  0.313194  0  0.891675  0  0  0.300321  0  0.951562  0  0  0.306319  0  0.947676  0  0  0.287622  0.295983  0  0.954468  0
H  H50  1  0.47344026  0.54265315  0.09064899  1  0  0.313203  0  0.891731  0  0  0.300376  0  0.951543  0  0  0.306374  0  0.947653  0  0  0.287659  0.29604  0  0.954449  0
H  H51  1  0.52656126  0.95734612  0.59064891  1  0  0.313268  0  0.891617  0  0  0.300389  0  0.951511  0  0  0.306387  0  0.947624  0  0  0.287659  0.296052  0  0.954419  0
H  H52  1  0.02655906  0.54265145  0.59064821  1  0  0.313188  0  0.891753  0  0  0.300351  0  0.95158  0  0  0.306349  0  0.947694  0  0  0.287657  0.296016  0  0.954486  0
H  H53  1  0.97344386  0.95734527  0.09064922  1  0  0.313265  0  0.891729  0  0  0.300434  0  0.951529  0  0  0.306432  0  0.947637  0  0  0.287684  0.296098  0  0.954434  0
H  H54  1  0.52655879  0.45734838  0.90935117  1  0  0.313218  0  0.891705  0  0  0.300397  0  0.951504  0  0  0.306394  0  0.947617  0  0  0.287656  0.296059  0  0.954411  0
H  H55  1  0.47344476  0.04265456  0.40935078  1  0  0.313253  0  0.891751  0  0  0.300417  0  0.951566  0  0  0.306415  0  0.947669  0  0  0.287681  0.296081  0  0.954473  0
C  C56  1  0.70682022  0.73706890  0.18421892  1  0  0.321729  0  3.748126  0  0  0.299617  0  4.019704  0  0  0.315644  0  4.035748  0  0  0.208795  0.288664  0  4.009087  0
C  C57  1  0.29317812  0.76292874  0.68421624  1  0  0.321661  0  3.748167  0  0  0.299554  0  4.019739  0  0  0.315582  0  4.035779  0  0  0.208791  0.288604  0  4.00912  0
C  C58  1  0.20682553  0.26293209  0.31578642  1  0  0.321694  0  3.747878  0  0  0.299574  0  4.019464  0  0  0.315603  0  4.035507  0  0  0.208736  0.288622  0  4.008847  0
C  C59  1  0.79317841  0.23706994  0.81578487  1  0  0.321636  0  3.748117  0  0  0.299521  0  4.019693  0  0  0.315547  0  4.035738  0  0  0.208739  0.288568  0  4.009074  0
C  C60  1  0.29317744  0.26292839  0.81578171  1  0  0.321792  0  3.748161  0  0  0.29968  0  4.019732  0  0  0.315714  0  4.035771  0  0  0.208801  0.288726  0  4.009114  0
C  C61  1  0.70681953  0.23707194  0.31578486  1  0  0.321672  0  3.748095  0  0  0.299561  0  4.01967  0  0  0.315584  0  4.035713  0  0  0.20879  0.288609  0  4.009047  0
C  C62  1  0.79317212  0.73707623  0.68421893  1  0  0.321711  0  3.748194  0  0  0.299599  0  4.019764  0  0  0.31563  0  4.035807  0  0  0.208821  0.288646  0  4.009145  0
C  C63  1  0.20682064  0.76292989  0.18421623  1  0  0.321729  0  3.748263  0  0  0.299619  0  4.019842  0  0  0.315638  0  4.035882  0  0  0.208746  0.288666  0  4.009223  0
C  C64  1  0.74837717  0.67982224  0.24114555  1  0  -0.038811  0  3.924883  0  0  -0.016455  0  4.159458  0  0  -0.023618  0  4.181481  0  0  -0.019482  -0.011942  0  4.144808  0
C  C65  1  0.25162317  0.82017746  0.74114220  1  0  -0.038808  0  3.924907  0  0  -0.016467  0  4.159507  0  0  -0.023631  0  4.18153  0  0  -0.019515  -0.011954  0  4.144854  0
C  C66  1  0.24837522  0.32017713  0.25885842  1  0  -0.038817  0  3.924893  0  0  -0.016455  0  4.159477  0  0  -0.023626  0  4.181514  0  0  -0.019487  -0.01194  0  4.144823  0
C  C67  1  0.75162672  0.17982622  0.75885745  1  0  -0.038812  0  3.924843  0  0  -0.016451  0  4.159415  0  0  -0.023611  0  4.181432  0  0  -0.019505  -0.011937  0  4.144764  0
C  C68  1  0.25161630  0.32017929  0.75885602  1  0  -0.038976  0  3.925116  0  0  -0.016597  0  4.159661  0  0  -0.02379  0  4.181744  0  0  -0.01955  -0.012082  0  4.14501  0
C  C69  1  0.74837588  0.17982661  0.25885701  1  0  -0.038749  0  3.924731  0  0  -0.016403  0  4.159323  0  0  -0.023546  0  4.181314  0  0  -0.019473  -0.011885  0  4.144664  0
C  C70  1  0.75161686  0.67982355  0.74114457  1  0  -0.03889  0  3.925043  0  0  -0.016522  0  4.159611  0  0  -0.023699  0  4.181666  0  0  -0.019516  -0.012006  0  4.144965  0
C  C71  1  0.24836815  0.82017785  0.24114507  1  0  -0.038839  0  3.924721  0  0  -0.016494  0  4.159334  0  0  -0.023628  0  4.181304  0  0  -0.01948  -0.011981  0  4.144682  0
C  C72  1  0.82634199  0.56852663  0.35483403  1  0  0.328757  0  3.763831  0  0  0.322787  0  4.008361  0  0  0.33468  0  4.027519  0  0  0.105248  0.314726  0  3.995319  0
C  C73  1  0.17367073  0.93147128  0.85483313  1  0  0.328636  0  3.764145  0  0  0.322657  0  4.008664  0  0  0.334551  0  4.027835  0  0  0.105263  0.314593  0  3.995611  0
C  C74  1  0.32633247  0.43146951  0.14516532  1  0  0.328776  0  3.764166  0  0  0.322837  0  4.008662  0  0  0.334736  0  4.027819  0  0  0.10534  0.314774  0  3.995618  0
C  C75  1  0.67366687  0.06852885  0.64516501  1  0  0.328762  0  3.764134  0  0  0.322796  0  4.008665  0  0  0.334693  0  4.027831  0  0  0.10534  0.314734  0  3.995619  0
C  C76  1  0.17366683  0.43147066  0.64516613  1  0  0.328793  0  3.76397  0  0  0.32294  0  4.008317  0  0  0.334839  0  4.027479  0  0  0.105345  0.314876  0  3.995275  0
C  C77  1  0.82633390  0.06852685  0.14516514  1  0  0.32873  0  3.763914  0  0  0.322813  0  4.008376  0  0  0.334707  0  4.027534  0  0  0.105283  0.314751  0  3.995335  0
C  C78  1  0.67366659  0.56853117  0.85483437  1  0  0.328877  0  3.764052  0  0  0.322983  0  4.008455  0  0  0.334881  0  4.027619  0  0  0.105347  0.314917  0  3.995406  0
C  C79  1  0.32633637  0.93147183  0.35483468  1  0  0.328665  0  3.764026  0  0  0.322725  0  4.00851  0  0  0.334621  0  4.027664  0  0  0.105263  0.314662  0  3.99547  0
C  C80  1  0.87083969  0.51729417  0.29668618  1  0  -0.180884  0  3.722574  0  0  -0.194884  0  3.970707  0  0  -0.202959  0  3.992281  0  0  -0.098746  -0.189617  0  3.956141  0
C  C81  1  0.12916404  0.98270338  0.79668603  1  0  -0.180875  0  3.72258  0  0  -0.194889  0  3.970735  0  0  -0.202964  0  3.992309  0  0  -0.09874  -0.189616  0  3.956163  0
C  C82  1  0.37083665  0.48270461  0.20331323  1  0  -0.180833  0  3.722586  0  0  -0.19486  0  3.97072  0  0  -0.202934  0  3.99229  0  0  -0.098736  -0.189589  0  3.95615  0
C  C83  1  0.62916888  0.01729666  0.70331300  1  0  -0.180893  0  3.722734  0  0  -0.194888  0  3.97088  0  0  -0.202967  0  3.992453  0  0  -0.098711  -0.189619  0  3.956317  0
C  C84  1  0.12916215  0.48270482  0.70331304  1  0  -0.180877  0  3.722673  0  0  -0.194914  0  3.970791  0  0  -0.202988  0  3.992359  0  0  -0.098738  -0.189646  0  3.956229  0
C  C85  1  0.87083780  0.01729476  0.20331366  1  0  -0.180848  0  3.722494  0  0  -0.194854  0  3.970603  0  0  -0.20293  0  3.992178  0  0  -0.098704  -0.189581  0  3.956028  0
C  C86  1  0.62916100  0.51729777  0.79668693  1  0  -0.180938  0  3.722745  0  0  -0.194953  0  3.97088  0  0  -0.203029  0  3.992449  0  0  -0.09876  -0.189681  0  3.956315  0
C  C87  1  0.37083575  0.98270486  0.29668622  1  0  -0.180814  0  3.722618  0  0  -0.194813  0  3.970737  0  0  -0.202887  0  3.992307  0  0  -0.098713  -0.189543  0  3.956174  0
C  C88  1  0.83287538  0.57178673  0.24016087  1  0  -0.063406  0  3.738862  0  0  -0.086747  0  3.986742  0  0  -0.08404  0  4.005389  0  0  -0.077568  -0.088143  0  3.973903  0
C  C89  1  0.16712774  0.92821468  0.74016044  1  0  -0.063435  0  3.738784  0  0  -0.086767  0  3.986664  0  0  -0.084059  0  4.005304  0  0  -0.077578  -0.088159  0  3.973824  0
C  C90  1  0.33287265  0.42821366  0.25983707  1  0  -0.063474  0  3.738989  0  0  -0.086818  0  3.986876  0  0  -0.084108  0  4.005523  0  0  -0.077596  -0.088199  0  3.974045  0
C  C91  1  0.66713488  0.07178883  0.75983864  1  0  -0.063345  0  3.738962  0  0  -0.086692  0  3.986852  0  0  -0.083982  0  4.005495  0  0  -0.077581  -0.088085  0  3.974022  0
C  C92  1  0.16711669  0.42821565  0.75983835  1  0  -0.063422  0  3.738905  0  0  -0.086754  0  3.986778  0  0  -0.084041  0  4.005416  0  0  -0.077564  -0.088147  0  3.973948  0
C  C93  1  0.83287271  0.07178854  0.25983878  1  0  -0.063394  0  3.738742  0  0  -0.086723  0  3.986614  0  0  -0.084017  0  4.005256  0  0  -0.077552  -0.088091  0  3.973795  0
C  C94  1  0.66711246  0.57178702  0.74016167  1  0  -0.063387  0  3.738867  0  0  -0.086731  0  3.986747  0  0  -0.084018  0  4.005385  0  0  -0.077509  -0.088146  0  3.973897  0
C  C95  1  0.33286975  0.92821100  0.24016199  1  0  -0.063419  0  3.739059  0  0  -0.08676  0  3.986945  0  0  -0.084058  0  4.005585  0  0  -0.077586  -0.088153  0  3.974114  0
C  C96  1  0.73992471  0.67573006  0.35546179  1  0  -0.15774  0  3.684869  0  0  -0.174293  0  3.932794  0  0  -0.181998  0  3.952841  0  0  -0.092378  -0.16935  0  3.919518  0
C  C97  1  0.26008801  0.82426530  0.85545938  1  0  -0.157738  0  3.685125  0  0  -0.17419  0  3.932886  0  0  -0.181911  0  3.952952  0  0  -0.092302  -0.169241  0  3.919586  0
C  C98  1  0.23992017  0.32426506  0.14453935  1  0  -0.157821  0  3.685071  0  0  -0.174402  0  3.932992  0  0  -0.182122  0  3.953051  0  0  -0.092408  -0.169459  0  3.919709  0
C  C99  1  0.76008195  0.17573501  0.64453745  1  0  -0.157733  0  3.684922  0  0  -0.1743  0  3.93285  0  0  -0.182019  0  3.952912  0  0  -0.092395  -0.169358  0  3.919563  0
C  C100  1  0.26007852  0.32426553  0.64454026  1  0  -0.157807  0  3.6851  0  0  -0.174371  0  3.932952  0  0  -0.182091  0  3.953013  0  0  -0.092391  -0.169424  0  3.919667  0
C  C101  1  0.73992359  0.17573283  0.14453653  1  0  -0.157752  0  3.684825  0  0  -0.174363  0  3.932778  0  0  -0.182072  0  3.95283  0  0  -0.092404  -0.169419  0  3.919498  0
C  C102  1  0.76007888  0.67573562  0.85546034  1  0  -0.157823  0  3.685075  0  0  -0.174363  0  3.932908  0  0  -0.182088  0  3.952973  0  0  -0.092413  -0.169409  0  3.919619  0
C  C103  1  0.23991989  0.82426737  0.35546413  1  0  -0.157725  0  3.684832  0  0  -0.174274  0  3.932726  0  0  -0.181994  0  3.95279  0  0  -0.092385  -0.16933  0  3.919446  0
C  C104  1  0.70213893  0.73110305  0.29932599  1  0  -0.053885  0  3.727527  0  0  -0.076281  0  3.971503  0  0  -0.073686  0  3.99186  0  0  -0.073485  -0.07764  0  3.95754  0
C  C105  1  0.29786761  0.76889532  0.79932188  1  0  -0.053868  0  3.727747  0  0  -0.076311  0  3.971739  0  0  -0.073715  0  3.992095  0  0  -0.073484  -0.077658  0  3.957774  0
C  C106  1  0.20213886  0.26889369  0.20067557  1  0  -0.053742  0  3.727522  0  0  -0.076163  0  3.971521  0  0  -0.073563  0  3.991882  0  0  -0.073439  -0.077522  0  3.957558  0
C  C107  1  0.79786246  0.23110676  0.70067499  1  0  -0.053896  0  3.727519  0  0  -0.076308  0  3.971516  0  0  -0.073711  0  3.991872  0  0  -0.073478  -0.077665  0  3.957549  0
C  C108  1  0.29786012  0.26889509  0.70067653  1  0  -0.053814  0  3.727792  0  0  -0.076254  0  3.971794  0  0  -0.073651  0  3.99215  0  0  -0.073488  -0.077613  0  3.957824  0
C  C109  1  0.70213702  0.23110536  0.20067356  1  0  -0.053892  0  3.727404  0  0  -0.076287  0  3.971403  0  0  -0.073698  0  3.991758  0  0  -0.073486  -0.077648  0  3.957433  0
C  C110  1  0.79785600  0.73110869  0.79932412  1  0  -0.053772  0  3.727816  0  0  -0.076214  0  3.971814  0  0  -0.073611  0  3.99217  0  0  -0.073484  -0.077575  0  3.957846  0
C  C111  1  0.20213380  0.76889477  0.29932753  1  0  -0.053844  0  3.727292  0  0  -0.076235  0  3.971284  0  0  -0.073646  0  3.991638  0  0  -0.073449  -0.077589  0  3.957318  0
N  N112  1  0.66851008  0.78634925  0.13823597  1  0  -0.440338  0  2.813493  0  0  -0.396281  0  3.086912  0  0  -0.41365  0  3.09627  0  0  -0.326382  -0.384661  0  3.080737  0
N  N113  1  0.33148498  0.71365047  0.63823205  1  0  -0.440255  0  2.81344  0  0  -0.39618  0  3.086819  0  0  -0.41355  0  3.096178  0  0  -0.32637  -0.384556  0  3.080641  0
N  N114  1  0.16850724  0.21364741  0.36176933  1  0  -0.440337  0  2.813238  0  0  -0.396272  0  3.086651  0  0  -0.413639  0  3.096004  0  0  -0.326363  -0.38465  0  3.080474  0
N  N115  1  0.83148883  0.28635338  0.86176770  1  0  -0.440278  0  2.813465  0  0  -0.396219  0  3.086882  0  0  -0.41359  0  3.096243  0  0  -0.32637  -0.384597  0  3.080702  0
N  N116  1  0.33148758  0.21365313  0.86176749  1  0  -0.440342  0  2.813525  0  0  -0.396289  0  3.086953  0  0  -0.41366  0  3.096306  0  0  -0.326383  -0.384666  0  3.080775  0
N  N117  1  0.66850710  0.28635530  0.36176811  1  0  -0.44028  0  2.81343  0  0  -0.396214  0  3.086841  0  0  -0.413586  0  3.096203  0  0  -0.326367  -0.38459  0  3.080658  0
N  N118  1  0.83148205  0.78634902  0.63823178  1  0  -0.440363  0  2.813561  0  0  -0.3963  0  3.086976  0  0  -0.413671  0  3.09633  0  0  -0.326447  -0.384678  0  3.080797  0
N  N119  1  0.16850186  0.71364560  0.13823482  1  0  -0.440332  0  2.813575  0  0  -0.396258  0  3.08697  0  0  -0.413627  0  3.096331  0  0  -0.32633  -0.384636  0  3.08079  0
N  N120  1  0.86467169  0.51334024  0.41184659  1  0  -0.661191  0  3.164158  0  0  -0.60877  0  3.39199  0  0  -0.630928  0  3.391545  0  0  -0.598205  -0.593035  0  3.392042  0
N  N121  1  0.13533326  0.98665635  0.91184456  1  0  -0.660952  0  3.164332  0  0  -0.608466  0  3.392134  0  0  -0.630611  0  3.39166  0  0  -0.598125  -0.592739  0  3.392205  0
N  N122  1  0.36466884  0.48665683  0.08815517  1  0  -0.66094  0  3.164342  0  0  -0.608522  0  3.392164  0  0  -0.63069  0  3.391739  0  0  -0.598117  -0.592785  0  3.392204  0
N  N123  1  0.63533407  0.01334201  0.58815354  1  0  -0.661018  0  3.164249  0  0  -0.608544  0  3.392094  0  0  -0.63069  0  3.39162  0  0  -0.598125  -0.592808  0  3.392139  0
N  N124  1  0.13532596  0.48665451  0.58815404  1  0  -0.660956  0  3.164314  0  0  -0.608554  0  3.392091  0  0  -0.630699  0  3.391616  0  0  -0.598184  -0.592817  0  3.392136  0
N  N125  1  0.86466997  0.01333924  0.08815372  1  0  -0.661063  0  3.164333  0  0  -0.608638  0  3.392122  0  0  -0.630803  0  3.391692  0  0  -0.598158  -0.592902  0  3.392169  0
N  N126  1  0.63533021  0.51334555  0.91184594  1  0  -0.661098  0  3.164402  0  0  -0.608664  0  3.392144  0  0  -0.630805  0  3.391662  0  0  -0.598187  -0.592941  0  3.392225  0
N  N127  1  0.36467196  0.98665952  0.41184615  1  0  -0.66103  0  3.164307  0  0  -0.6086  0  3.392099  0  0  -0.630779  0  3.391709  0  0  -0.598143  -0.592864  0  3.392149  0
Cl  Cl128  1  0.35507822  0.50752781  0.42892444  1  0  -0.569222  0  0.965046  0  0  -0.503693  0  1.237511  0  0  -0.52385  0  1.218602  0  0  -0.305372  -0.489129  0  1.250375  0
Cl  Cl129  1  0.64492831  0.99247372  0.92892489  1  0  -0.569224  0  0.965038  0  0  -0.503698  0  1.237502  0  0  -0.523861  0  1.218599  0  0  -0.305382  -0.489131  0  1.250368  0
Cl  Cl130  1  0.85507592  0.49247263  0.07107305  1  0  -0.569229  0  0.965097  0  0  -0.503696  0  1.237558  0  0  -0.523854  0  1.21865  0  0  -0.305392  -0.489134  0  1.250423  0
Cl  Cl131  1  0.14492681  0.00752635  0.57107322  1  0  -0.569226  0  0.965054  0  0  -0.503701  0  1.237524  0  0  -0.523861  0  1.218615  0  0  -0.305391  -0.48914  0  1.250391  0
Cl  Cl132  1  0.64492641  0.49247287  0.57107289  1  0  -0.569229  0  0.965052  0  0  -0.503694  0  1.237502  0  0  -0.523857  0  1.2186  0  0  -0.305385  -0.489131  0  1.250373  0
Cl  Cl133  1  0.35507492  0.00752781  0.07107291  1  0  -0.569217  0  0.965072  0  0  -0.503679  0  1.237529  0  0  -0.523837  0  1.218621  0  0  -0.305374  -0.489115  0  1.250395  0
Cl  Cl134  1  0.14492313  0.50752720  0.92892522  1  0  -0.569206  0  0.965029  0  0  -0.503684  0  1.237496  0  0  -0.523846  0  1.218592  0  0  -0.305381  -0.489117  0  1.25036  0
Cl  Cl135  1  0.85507364  0.99247433  0.42892506  1  0  -0.569232  0  0.965016  0  0  -0.503708  0  1.237487  0  0  -0.523864  0  1.218581  0  0  -0.30539  -0.489142  0  1.250345  0
Cl  Cl136  1  0.45489527  0.20715673  0.50006228  1  0  -0.56543  0  1.091977  0  0  -0.502739  0  1.388593  0  0  -0.521982  0  1.367076  0  0  -0.277134  -0.488743  0  1.403355  0
Cl  Cl137  1  0.54510251  0.29284539  0.00005991  1  0  -0.565421  0  1.091985  0  0  -0.502721  0  1.388577  0  0  -0.521964  0  1.367059  0  0  -0.277125  -0.48872  0  1.40334  0
Cl  Cl138  1  0.95489504  0.79284143  0.99993619  1  0  -0.565427  0  1.091937  0  0  -0.502756  0  1.388582  0  0  -0.522003  0  1.367066  0  0  -0.277129  -0.488756  0  1.403347  0
Cl  Cl139  1  0.04510528  0.70715527  0.49993722  1  0  -0.565438  0  1.09194  0  0  -0.502733  0  1.388544  0  0  -0.521979  0  1.367029  0  0  -0.277117  -0.488735  0  1.403308  0
Cl  Cl140  1  0.54510657  0.79284225  0.49993599  1  0  -0.565445  0  1.091969  0  0  -0.502761  0  1.388607  0  0  -0.522002  0  1.367089  0  0  -0.277122  -0.488763  0  1.40337  0
Cl  Cl141  1  0.45489515  0.70715614  0.99993742  1  0  -0.565438  0  1.091966  0  0  -0.502742  0  1.388567  0  0  -0.521989  0  1.367052  0  0  -0.277127  -0.488738  0  1.40333  0
Cl  Cl142  1  0.04510541  0.20715586  0.00006019  1  0  -0.565436  0  1.091994  0  0  -0.502721  0  1.388571  0  0  -0.521965  0  1.367054  0  0  -0.277127  -0.48872  0  1.403336  0
Cl  Cl143  1  0.95489656  0.29284287  0.50006105  1  0  -0.565453  0  1.09201  0  0  -0.502732  0  1.388561  0  0  -0.521977  0  1.367045  0  0  -0.277122  -0.488735  0  1.403325  0
