# generated using pymatgen
data_H10Pb(C2O)5
_symmetry_space_group_name_H-M   'P 1'
_cell_length_a   8.00789041
_cell_length_b   9.92712185
_cell_length_c   18.28935037
_cell_angle_alpha   90.00292121
_cell_angle_beta   89.99787313
_cell_angle_gamma   106.64316977
_symmetry_Int_Tables_number   1
_chemical_formula_structural   H10Pb(C2O)5
_chemical_formula_sum   'H40 Pb4 C40 O20'
_cell_volume   1393.00856899
_cell_formula_units_Z   4
loop_
 _symmetry_equiv_pos_site_id
 _symmetry_equiv_pos_as_xyz
  1  'x, y, z'
loop_
 _atom_site_type_symbol
 _atom_site_label
 _atom_site_symmetry_multiplicity
 _atom_site_fract_x
 _atom_site_fract_y
 _atom_site_fract_z
 _atom_site_occupancy
 _atom_site_pbe_bader_charge
 _atom_site_pbe_bader_spin_density
 _atom_site_pbe_cm5_charge
 _atom_site_pbe_ddec_charge
 _atom_site_pbe_ddec_spin_density
 _atom_site_pbe_ddec_sum_bond_order
 _atom_site_pbe_magmom
H  H0  1  0.80531588  0.78171708  0.29666815  1  0.103203  0  0.107839  0.110081  0  0.994987  0
H  H1  1  0.69468878  0.71828027  0.79667118  1  0.103282  0  0.107793  0.110003  0  0.995039  0
H  H2  1  0.19467640  0.21827051  0.70333916  1  0.102989  0  0.107796  0.110046  0  0.99506  0
H  H3  1  0.30529469  0.28171119  0.20332903  1  0.103244  0  0.107772  0.109943  0  0.995142  0
H  H4  1  0.72518153  0.70495609  0.16867960  1  0.121726  0  0.103404  0.101259  0  1.070668  0
H  H5  1  0.77483660  0.79503945  0.66868180  1  0.121331  0  0.10344  0.101306  0  1.070702  0
H  H6  1  0.27480692  0.29502722  0.83132935  1  0.121299  0  0.103415  0.101257  0  1.070698  0
H  H7  1  0.22517076  0.20498087  0.33132113  1  0.121628  0  0.103414  0.101243  0  1.070777  0
H  H8  1  0.29688605  0.83459109  0.33024232  1  0.067292  0  0.100386  0.081834  0  1.044818  0
H  H9  1  0.20312450  0.66545280  0.83022842  1  0.066877  0  0.100378  0.081697  0  1.044795  0
H  H10  1  0.70309188  0.16537835  0.66975898  1  0.06745  0  0.100393  0.081838  0  1.044732  0
H  H11  1  0.79686667  0.33455556  0.16976740  1  0.066947  0  0.100316  0.081627  0  1.044777  0
H  H12  1  0.21555081  0.75865790  0.20242383  1  0.088434  0  0.105986  0.106795  0  1.021366  0
H  H13  1  0.28448832  0.74138052  0.70241399  1  0.089061  0  0.105978  0.106779  0  1.021422  0
H  H14  1  0.78442509  0.24129275  0.79758129  1  0.0887  0  0.106013  0.106884  0  1.0214  0
H  H15  1  0.71552826  0.25864947  0.29758676  1  0.08883  0  0.106008  0.10677  0  1.021559  0
H  H16  1  0.92405774  0.30104972  0.90608183  1  0.661769  0  0.29759  0.352313  0  0.994283  0
H  H17  1  0.57590393  0.19891942  0.40608245  1  0.661589  0  0.29749  0.351944  0  0.994425  0
H  H18  1  0.07592501  0.69893132  0.09391783  1  0.661465  0  0.297549  0.352183  0  0.994293  0
H  H19  1  0.42404897  0.80107832  0.59390846  1  0.661697  0  0.297521  0.352219  0  0.994438  0
H  H20  1  0.16932236  0.15113077  0.94220093  1  0.05352  0  0.101442  0.069507  0  0.977422  0
H  H21  1  0.33067751  0.34887682  0.44220592  1  0.053455  0  0.10139  0.069385  0  0.977505  0
H  H22  1  0.83068005  0.84886131  0.05779599  1  0.053583  0  0.101351  0.069355  0  0.977208  0
H  H23  1  0.66932842  0.65116322  0.55779428  1  0.053257  0  0.101341  0.069343  0  0.97725  0
H  H24  1  0.01836165  0.05012885  0.82488496  1  0.056455  0  0.085223  0.121461  0  1.015995  0
H  H25  1  0.48169487  0.44986570  0.32489902  1  0.05694  0  0.085099  0.121241  0  1.016007  0
H  H26  1  0.98168016  0.94985725  0.17510704  1  0.056728  0  0.085176  0.121338  0  1.015914  0
H  H27  1  0.51833722  0.55016999  0.67510446  1  0.056661  0  0.085181  0.121335  0  1.015905  0
H  H28  1  0.96361629  0.13567720  0.98350623  1  0.038472  0  0.095841  0.055733  0  0.98354  0
H  H29  1  0.53635771  0.36428315  0.48351702  1  0.038389  0  0.095825  0.055639  0  0.983674  0
H  H30  1  0.03637388  0.86428329  0.01648139  1  0.038341  0  0.095804  0.055662  0  0.983605  0
H  H31  1  0.46362893  0.63571050  0.51648209  1  0.038384  0  0.095813  0.055622  0  0.983574  0
H  H32  1  0.81193025  0.03363544  0.86666320  1  0.024578  0  0.087569  0.122776  0  1.005377  0
H  H33  1  0.68810687  0.46633708  0.36668527  1  0.024159  0  0.087475  0.122607  0  1.005522  0
H  H34  1  0.18809624  0.96632935  0.13331841  1  0.024355  0  0.08754  0.12269  0  1.005498  0
H  H35  1  0.31190768  0.53367412  0.63332697  1  0.024384  0  0.087507  0.122589  0  1.005545  0
H  H36  1  0.94613047  0.93255251  0.89914703  1  0.035103  0  0.087018  0.120337  0  1.039453  0
H  H37  1  0.55392300  0.56743932  0.39916787  1  0.035149  0  0.087026  0.12028  0  1.039533  0
H  H38  1  0.05391545  0.06743477  0.10084388  1  0.035243  0  0.087022  0.120269  0  1.039522  0
H  H39  1  0.44610582  0.43258171  0.60084053  1  0.035228  0  0.086969  0.12017  0  1.039509  0
Pb  Pb40  1  0.25795038  0.50049127  0.96834322  1  1.440923  0  0.659152  1.113526  0  1.871955  0
Pb  Pb41  1  0.24204045  0.99947188  0.46833142  1  1.44101  0  0.659197  1.113581  0  1.871707  0
Pb  Pb42  1  0.74204018  0.49947859  0.03164605  1  1.440856  0  0.659172  1.113537  0  1.871986  0
Pb  Pb43  1  0.75799685  0.00054424  0.53165784  1  1.440909  0  0.659183  1.113605  0  1.871937  0
C  C44  1  0.46589190  0.72869623  0.17669054  1  -0.051476  0  -0.012437  -0.025749  0  3.955899  0
C  C45  1  0.03409708  0.77128226  0.67667416  1  -0.052429  0  -0.012528  -0.0265  0  3.956238  0
C  C46  1  0.53411170  0.27128757  0.82331458  1  -0.051583  0  -0.012404  -0.025891  0  3.956141  0
C  C47  1  0.96589538  0.22873030  0.32332769  1  -0.051418  0  -0.012461  -0.02626  0  3.95627  0
C  C48  1  0.63153876  0.73423522  0.20380559  1  -0.047584  0  -0.082528  -0.097573  0  3.960637  0
C  C49  1  0.86846845  0.76574623  0.70380435  1  -0.046797  0  -0.082506  -0.09732  0  3.961011  0
C  C50  1  0.36845892  0.26575775  0.79619954  1  -0.047111  0  -0.082525  -0.09755  0  3.960516  0
C  C51  1  0.13152871  0.23426128  0.29620023  1  -0.048064  0  -0.082499  -0.097244  0  3.960801  0
C  C52  1  0.67694081  0.77715861  0.27520583  1  -0.022394  0  -0.076829  -0.081302  0  3.959246  0
C  C53  1  0.82306601  0.72284016  0.77520414  1  -0.022946  0  -0.076851  -0.081405  0  3.959219  0
C  C54  1  0.32305729  0.22284789  0.72479656  1  -0.022408  0  -0.07671  -0.081185  0  3.959297  0
C  C55  1  0.17693176  0.27716529  0.22479660  1  -0.022788  0  -0.076793  -0.081308  0  3.959287  0
C  C56  1  0.55720748  0.81442264  0.32112422  1  0.015759  0  -0.012248  -0.027933  0  3.973394  0
C  C57  1  0.94282305  0.68558798  0.82111680  1  0.01702  0  -0.01236  -0.028024  0  3.973432  0
C  C58  1  0.44278722  0.18559311  0.67887708  1  0.015997  0  -0.012327  -0.028078  0  3.973394  0
C  C59  1  0.05717501  0.31441436  0.17888122  1  0.01698  0  -0.012381  -0.028172  0  3.973555  0
C  C60  1  0.39078776  0.80716631  0.29438806  1  -0.075675  0  -0.081176  -0.088474  0  3.97684  0
C  C61  1  0.10922847  0.69286233  0.79437592  1  -0.075392  0  -0.081159  -0.088316  0  3.976738  0
C  C62  1  0.60920486  0.19282650  0.70561652  1  -0.075739  0  -0.081234  -0.088433  0  3.976412  0
C  C63  1  0.89076766  0.30713371  0.20561991  1  -0.075625  0  -0.081133  -0.088236  0  3.976744  0
C  C64  1  0.34527979  0.76470218  0.22281176  1  -0.038036  0  -0.083145  -0.092418  0  3.961504  0
C  C65  1  0.15474122  0.73530301  0.72279514  1  -0.038525  0  -0.082955  -0.091951  0  3.960818  0
C  C66  1  0.65471780  0.23527830  0.77719609  1  -0.038142  0  -0.08308  -0.092389  0  3.961479  0
C  C67  1  0.84525206  0.26469189  0.27719905  1  -0.038235  0  -0.082977  -0.09202  0  3.961054  0
C  C68  1  0.41912988  0.68290760  0.09937644  1  1.5418  0  0.21661  0.582377  0  4.195253  0
C  C69  1  0.08086582  0.81709280  0.59936767  1  1.541691  0  0.216934  0.58316  0  4.194869  0
C  C70  1  0.58085440  0.31706621  0.90062649  1  1.541112  0  0.216614  0.58251  0  4.19485  0
C  C71  1  0.91912716  0.18294577  0.40063527  1  1.541155  0  0.216633  0.58249  0  4.195132  0
C  C72  1  0.60906161  0.86106505  0.39751534  1  1.536581  0  0.213635  0.562934  0  4.201556  0
C  C73  1  0.89095320  0.63893474  0.89750693  1  1.538364  0  0.213601  0.562982  0  4.201521  0
C  C74  1  0.39093523  0.13894142  0.60248650  1  1.537401  0  0.213564  0.562907  0  4.201536  0
C  C75  1  0.10904836  0.36107084  0.10249436  1  1.538176  0  0.213653  0.563021  0  4.201333  0
C  C76  1  0.03426921  0.15059912  0.93105456  1  0.4063  0  -0.078977  0.125405  0  3.911168  0
C  C77  1  0.46573211  0.34939408  0.43106555  1  0.406448  0  -0.078866  0.125721  0  3.910925  0
C  C78  1  0.96574006  0.84938279  0.06893798  1  0.40643  0  -0.078829  0.125758  0  3.910912  0
C  C79  1  0.53426356  0.65062482  0.56893902  1  0.406714  0  -0.078776  0.125878  0  3.910855  0
C  C80  1  0.94776808  0.03574028  0.87712066  1  -0.079263  0  -0.253278  -0.406718  0  3.962331  0
C  C81  1  0.55227685  0.46425625  0.37714052  1  -0.079317  0  -0.25313  -0.406352  0  3.962198  0
C  C82  1  0.05226550  0.96424347  0.12286587  1  -0.079369  0  -0.253235  -0.406507  0  3.962296  0
C  C83  1  0.44774984  0.53577407  0.62286843  1  -0.079277  0  -0.253197  -0.406336  0  3.962299  0
O  O84  1  0.26709775  0.67723931  0.07539917  1  -1.18337  0  -0.298433  -0.561631  0  2.263443  0
O  O85  1  0.23290747  0.82279790  0.57538643  1  -1.183768  0  -0.298504  -0.561831  0  2.263742  0
O  O86  1  0.73288935  0.32273147  0.92460595  1  -1.182909  0  -0.29848  -0.561645  0  2.263098  0
O  O87  1  0.76707027  0.17722770  0.42460338  1  -1.182963  0  -0.298499  -0.561576  0  2.263452  0
O  O88  1  0.53050194  0.64899712  0.05911393  1  -1.196613  0  -0.300833  -0.600974  0  2.297568  0
O  O89  1  0.96950174  0.85102840  0.55911449  1  -1.196296  0  -0.300921  -0.601226  0  2.297434  0
O  O90  1  0.46949448  0.35099581  0.94088901  1  -1.196641  0  -0.300828  -0.60106  0  2.297406  0
O  O91  1  0.03049555  0.14903631  0.44090102  1  -1.196518  0  -0.300805  -0.600997  0  2.297154  0
O  O92  1  0.76165124  0.86496499  0.41945642  1  -1.138873  0  -0.292033  -0.537215  0  2.182604  0
O  O93  1  0.73835850  0.63502812  0.91945041  1  -1.139551  0  -0.291977  -0.537155  0  2.182664  0
O  O94  1  0.23834294  0.13502474  0.58054761  1  -1.138823  0  -0.291995  -0.537176  0  2.182757  0
O  O95  1  0.26164462  0.36497439  0.08055198  1  -1.139487  0  -0.292012  -0.537182  0  2.182628  0
O  O96  1  0.50200298  0.89764654  0.43971451  1  -1.186451  0  -0.295065  -0.585121  0  2.300882  0
O  O97  1  0.99800509  0.60235859  0.93970333  1  -1.187318  0  -0.295026  -0.585108  0  2.300815  0
O  O98  1  0.49801195  0.10237404  0.56029007  1  -1.187229  0  -0.295057  -0.585113  0  2.300692  0
O  O99  1  0.00200023  0.39764295  0.06029578  1  -1.187287  0  -0.295047  -0.585035  0  2.300711  0
O  O100  1  0.04389163  0.28887045  0.90290231  1  -1.172394  0  -0.394766  -0.521337  0  2.347465  0
O  O101  1  0.45607963  0.21111111  0.40289869  1  -1.172204  0  -0.39465  -0.520961  0  2.347254  0
O  O102  1  0.95609301  0.71110857  0.09709515  1  -1.17215  0  -0.394759  -0.521296  0  2.347372  0
O  O103  1  0.54388321  0.78890671  0.59709386  1  -1.172386  0  -0.394815  -0.521465  0  2.347419  0
