# generated using pymatgen
data_ZnH6(C3O)4
_symmetry_space_group_name_H-M   'P 1'
_cell_length_a   4.83265288
_cell_length_b   12.92844018
_cell_length_c   16.82902406
_cell_angle_alpha   111.22079674
_cell_angle_beta   89.99984819
_cell_angle_gamma   89.99985606
_symmetry_Int_Tables_number   1
_chemical_formula_structural   ZnH6(C3O)4
_chemical_formula_sum   'Zn4 H24 C48 O16'
_cell_volume   980.15838359
_cell_formula_units_Z   4
loop_
 _symmetry_equiv_pos_site_id
 _symmetry_equiv_pos_as_xyz
  1  'x, y, z'
loop_
 _atom_site_type_symbol
 _atom_site_label
 _atom_site_symmetry_multiplicity
 _atom_site_fract_x
 _atom_site_fract_y
 _atom_site_fract_z
 _atom_site_occupancy
 _atom_site_hle17_bader_spin_density
 _atom_site_hle17_ddec_charge
 _atom_site_hle17_ddec_spin_density
 _atom_site_hle17_ddec_sum_bond_order
 _atom_site_hle17_magmom
 _atom_site_hse06_10hf_bader_spin_density
 _atom_site_hse06_10hf_ddec_charge
 _atom_site_hse06_10hf_ddec_spin_density
 _atom_site_hse06_10hf_ddec_sum_bond_order
 _atom_site_hse06_10hf_magmom
 _atom_site_hse06_bader_spin_density
 _atom_site_hse06_ddec_charge
 _atom_site_hse06_ddec_spin_density
 _atom_site_hse06_ddec_sum_bond_order
 _atom_site_hse06_magmom
 _atom_site_pbe_bader_spin_density
 _atom_site_pbe_cm5_charge
 _atom_site_pbe_ddec_charge
 _atom_site_pbe_ddec_spin_density
 _atom_site_pbe_ddec_sum_bond_order
 _atom_site_pbe_magmom
Zn  Zn0  1  0.28570516  0.92674164  0.05400154  1  0  1.191832  0  1.722559  0  0  1.015556  0  2.211977  0  0  1.067195  0  2.143374  0  0  0.711441  0.979108  0  2.259488  0
Zn  Zn1  1  0.78570904  0.57325688  0.94599622  1  0  1.191751  0  1.722565  0  0  1.015487  0  2.212001  0  0  1.067129  0  2.143398  0  0  0.711402  0.979042  0  2.259515  0
Zn  Zn2  1  0.71429651  0.07325853  0.94599791  1  0  1.191671  0  1.722931  0  0  1.015416  0  2.21241  0  0  1.067056  0  2.143807  0  0  0.711357  0.978993  0  2.259928  0
Zn  Zn3  1  0.21429884  0.42674246  0.05400360  1  0  1.191725  0  1.722792  0  0  1.015469  0  2.212256  0  0  1.067112  0  2.14365  0  0  0.711383  0.97905  0  2.259769  0
H  H4  1  0.84706796  0.56544993  0.23957059  1  0  0.099458  0  0.966203  0  0  0.108933  0  1.028655  0  0  0.111448  0  1.028172  0  0  0.103167  0.107096  0  1.029129  0
H  H5  1  0.34707180  0.93454598  0.76042877  1  0  0.099456  0  0.966147  0  0  0.108904  0  1.028629  0  0  0.111417  0  1.02815  0  0  0.103156  0.107064  0  1.029102  0
H  H6  1  0.15292750  0.43454942  0.76042804  1  0  0.099453  0  0.966192  0  0  0.108932  0  1.028639  0  0  0.111446  0  1.028158  0  0  0.103167  0.107093  0  1.029111  0
H  H7  1  0.65292367  0.06545418  0.23957128  1  0  0.099512  0  0.966172  0  0  0.108963  0  1.028641  0  0  0.111475  0  1.028165  0  0  0.103195  0.107126  0  1.029118  0
H  H8  1  0.81677701  0.72511087  0.37337230  1  0  0.082135  0  0.971315  0  0  0.092921  0  1.033761  0  0  0.094923  0  1.034422  0  0  0.096297  0.0915  0  1.033373  0
H  H9  1  0.31677697  0.77488594  0.62662555  1  0  0.082138  0  0.971328  0  0  0.092928  0  1.033772  0  0  0.09493  0  1.034434  0  0  0.096299  0.091503  0  1.033387  0
H  H10  1  0.18322466  0.27488929  0.62662834  1  0  0.082156  0  0.971285  0  0  0.092935  0  1.033738  0  0  0.094938  0  1.034397  0  0  0.096296  0.091513  0  1.033353  0
H  H11  1  0.68322263  0.22511425  0.37337272  1  0  0.082128  0  0.971365  0  0  0.09291  0  1.033822  0  0  0.094911  0  1.034483  0  0  0.096315  0.091486  0  1.03344  0
H  H12  1  0.52144799  0.71707526  0.49315751  1  0  0.081133  0  0.977395  0  0  0.091784  0  1.042727  0  0  0.094077  0  1.042256  0  0  0.096261  0.090146  0  1.043073  0
H  H13  1  0.02145111  0.78292447  0.50684198  1  0  0.081132  0  0.977379  0  0  0.091794  0  1.042696  0  0  0.09409  0  1.042226  0  0  0.096257  0.090154  0  1.043045  0
H  H14  1  0.47855161  0.28292325  0.50684207  1  0  0.081171  0  0.977262  0  0  0.091848  0  1.042566  0  0  0.094146  0  1.042097  0  0  0.096281  0.090207  0  1.042921  0
H  H15  1  0.97855056  0.21707736  0.49315736  1  0  0.081152  0  0.9773  0  0  0.091826  0  1.042612  0  0  0.094118  0  1.04214  0  0  0.096283  0.090186  0  1.042967  0
H  H16  1  0.25580780  0.54578346  0.47649150  1  0  0.087399  0  0.954112  0  0  0.100404  0  1.013062  0  0  0.103308  0  1.012053  0  0  0.098324  0.098297  0  1.013903  0
H  H17  1  0.75581316  0.95421840  0.52350901  1  0  0.08739  0  0.954186  0  0  0.10039  0  1.013139  0  0  0.103293  0  1.012129  0  0  0.098318  0.098281  0  1.013977  0
H  H18  1  0.74418560  0.45421672  0.52350736  1  0  0.087405  0  0.954116  0  0  0.100413  0  1.013065  0  0  0.103316  0  1.012058  0  0  0.098346  0.098309  0  1.013909  0
H  H19  1  0.24418437  0.04578342  0.47649151  1  0  0.087419  0  0.954157  0  0  0.100423  0  1.013104  0  0  0.103326  0  1.012094  0  0  0.098334  0.098316  0  1.013948  0
H  H20  1  0.12763287  0.35300396  0.39048735  1  0  0.087891  0  0.9582  0  0  0.100167  0  1.020358  0  0  0.102874  0  1.019452  0  0  0.098493  0.09822  0  1.021096  0
H  H21  1  0.62763946  0.14699881  0.60951591  1  0  0.087897  0  0.95811  0  0  0.100173  0  1.020276  0  0  0.102879  0  1.019371  0  0  0.098476  0.098241  0  1.020996  0
H  H22  1  0.87236466  0.64699455  0.60951164  1  0  0.087903  0  0.958141  0  0  0.100178  0  1.020307  0  0  0.102886  0  1.019399  0  0  0.0985  0.098235  0  1.021048  0
H  H23  1  0.37235601  0.85300301  0.39048579  1  0  0.087899  0  0.958123  0  0  0.100178  0  1.020279  0  0  0.102884  0  1.019375  0  0  0.098483  0.098245  0  1.021005  0
H  H24  1  0.17478000  0.18813253  0.25718218  1  0  0.098332  0  0.972615  0  0  0.106883  0  1.037078  0  0  0.109401  0  1.036875  0  0  0.101536  0.10507  0  1.037296  0
H  H25  1  0.67478629  0.31186933  0.74282198  1  0  0.09838  0  0.972632  0  0  0.106892  0  1.037121  0  0  0.109411  0  1.036918  0  0  0.101524  0.105083  0  1.037336  0
H  H26  1  0.82522788  0.81186765  0.74281727  1  0  0.098326  0  0.972586  0  0  0.106837  0  1.037086  0  0  0.109355  0  1.036887  0  0  0.101558  0.105026  0  1.037306  0
H  H27  1  0.32521538  0.68813165  0.25718009  1  0  0.098393  0  0.972585  0  0  0.106881  0  1.0371  0  0  0.1094  0  1.036897  0  0  0.101544  0.105073  0  1.037326  0
C  C28  1  0.46844552  0.16679740  0.11799862  1  0  0.697007  0  3.855197  0  0  0.642049  0  4.145021  0  0  0.678933  0  4.135363  0  0  0.231943  0.616889  0  4.150958  0
C  C29  1  0.96845242  0.33320070  0.88200426  1  0  0.696758  0  3.855107  0  0  0.641787  0  4.145001  0  0  0.67867  0  4.135346  0  0  0.231806  0.616631  0  4.150933  0
C  C30  1  0.53152718  0.83319608  0.88200547  1  0  0.697261  0  3.855099  0  0  0.642272  0  4.144972  0  0  0.679154  0  4.135316  0  0  0.232036  0.617122  0  4.15088  0
C  C31  1  0.03152856  0.66680615  0.11799233  1  0  0.697247  0  3.855144  0  0  0.642223  0  4.145109  0  0  0.679108  0  4.135448  0  0  0.231964  0.617067  0  4.151032  0
C  C32  1  0.73856555  0.37950938  0.12941968  1  0  0.702279  0  3.865887  0  0  0.645157  0  4.163979  0  0  0.681733  0  4.15376  0  0  0.229373  0.620163  0  4.170236  0
C  C33  1  0.23856629  0.12048742  0.87058122  1  0  0.702362  0  3.865816  0  0  0.645132  0  4.164072  0  0  0.681684  0  4.153899  0  0  0.229327  0.620135  0  4.170324  0
C  C34  1  0.26143612  0.62049077  0.87058214  1  0  0.702222  0  3.866216  0  0  0.645111  0  4.164294  0  0  0.681689  0  4.154081  0  0  0.229285  0.620105  0  4.170547  0
C  C35  1  0.76142918  0.87951108  0.12941895  1  0  0.702204  0  3.866097  0  0  0.645054  0  4.164239  0  0  0.68161  0  4.154063  0  0  0.229274  0.620028  0  4.170498  0
C  C36  1  0.44702800  0.26883101  0.19618361  1  0  -0.070448  0  3.722225  0  0  -0.058573  0  3.959419  0  0  -0.0657  0  3.97924  0  0  -0.012327  -0.053967  0  3.946247  0
C  C37  1  0.94703425  0.23116712  0.80381870  1  0  -0.070282  0  3.721882  0  0  -0.058425  0  3.959083  0  0  -0.065526  0  3.978883  0  0  -0.012309  -0.053833  0  3.94592  0
C  C38  1  0.55298194  0.73116998  0.80381667  1  0  -0.07039  0  3.72227  0  0  -0.058497  0  3.959446  0  0  -0.065617  0  3.979268  0  0  -0.012329  -0.053895  0  3.946254  0
C  C39  1  0.05297363  0.76883137  0.19618206  1  0  -0.070445  0  3.722186  0  0  -0.058566  0  3.959402  0  0  -0.065673  0  3.97921  0  0  -0.012333  -0.053981  0  3.946203  0
C  C40  1  0.58209632  0.36624464  0.20235012  1  0  -0.071958  0  3.655154  0  0  -0.066425  0  3.890544  0  0  -0.067804  0  3.90718  0  0  0.006152  -0.065602  0  3.879559  0
C  C41  1  0.08209973  0.13375240  0.79765037  1  0  -0.072091  0  3.655079  0  0  -0.066451  0  3.890458  0  0  -0.067857  0  3.907138  0  0  0.006142  -0.065606  0  3.879453  0
C  C42  1  0.41790742  0.63375469  0.79765028  1  0  -0.07221  0  3.655169  0  0  -0.066685  0  3.890572  0  0  -0.068075  0  3.907221  0  0  0.006077  -0.065848  0  3.879558  0
C  C43  1  0.91789987  0.86624776  0.20235027  1  0  -0.072104  0  3.655141  0  0  -0.066488  0  3.890503  0  0  -0.067898  0  3.907186  0  0  0.006113  -0.06559  0  3.879412  0
C  C44  1  0.56824403  0.46117354  0.27940031  1  0  0.040111  0  3.730559  0  0  0.0519  0  3.954789  0  0  0.050523  0  3.978526  0  0  0.000585  0.052727  0  3.93888  0
C  C45  1  0.06824674  0.03882435  0.72059984  1  0  0.040233  0  3.730529  0  0  0.051974  0  3.954823  0  0  0.050614  0  3.978563  0  0  0.000604  0.052792  0  3.938908  0
C  C46  1  0.43175350  0.53882746  0.72059938  1  0  0.04016  0  3.730628  0  0  0.051932  0  3.954835  0  0  0.050555  0  3.978575  0  0  0.000562  0.052758  0  3.938909  0
C  C47  1  0.93174872  0.96117581  0.27940021  1  0  0.040218  0  3.730599  0  0  0.051939  0  3.954884  0  0  0.05058  0  3.978619  0  0  0.000587  0.052743  0  3.938953  0
C  C48  1  0.71572372  0.56063734  0.29069529  1  0  -0.094511  0  3.709076  0  0  -0.11534  0  3.956292  0  0  -0.11665  0  3.976429  0  0  -0.084598  -0.114356  0  3.942712  0
C  C49  1  0.21572802  0.93935961  0.70930445  1  0  -0.094592  0  3.709129  0  0  -0.115389  0  3.95637  0  0  -0.116698  0  3.976503  0  0  -0.08466  -0.1144  0  3.942779  0
C  C50  1  0.28427381  0.43936283  0.70930475  1  0  -0.094537  0  3.709064  0  0  -0.115367  0  3.956284  0  0  -0.116676  0  3.976421  0  0  -0.084629  -0.114377  0  3.942697  0
C  C51  1  0.78426745  0.06063973  0.29069537  1  0  -0.094632  0  3.709218  0  0  -0.11543  0  3.956465  0  0  -0.116741  0  3.976599  0  0  -0.084682  -0.114451  0  3.942892  0
C  C52  1  0.69965115  0.65020838  0.36635054  1  0  -0.075595  0  3.789359  0  0  -0.08682  0  4.038569  0  0  -0.089654  0  4.060718  0  0  -0.094441  -0.084912  0  4.023489  0
C  C53  1  0.19965055  0.84978942  0.63364886  1  0  -0.075558  0  3.78952  0  0  -0.086775  0  4.038697  0  0  -0.08961  0  4.060845  0  0  -0.094376  -0.084867  0  4.023611  0
C  C54  1  0.30035052  0.34979096  0.63364927  1  0  -0.075612  0  3.789322  0  0  -0.086835  0  4.03854  0  0  -0.089668  0  4.060689  0  0  -0.094415  -0.084941  0  4.023477  0
C  C55  1  0.80034699  0.15021075  0.36635060  1  0  -0.075557  0  3.789477  0  0  -0.086781  0  4.038685  0  0  -0.089613  0  4.060833  0  0  -0.09443  -0.084877  0  4.023612  0
C  C56  1  0.53228314  0.64543568  0.43381820  1  0  -0.07906  0  3.797289  0  0  -0.094585  0  4.048227  0  0  -0.095877  0  4.069885  0  0  -0.096447  -0.093479  0  4.033319  0
C  C57  1  0.03228522  0.85456403  0.56618186  1  0  -0.079054  0  3.797343  0  0  -0.094587  0  4.048273  0  0  -0.095882  0  4.069933  0  0  -0.096453  -0.093482  0  4.033362  0
C  C58  1  0.46771439  0.35456532  0.56618149  1  0  -0.079094  0  3.797321  0  0  -0.09464  0  4.048257  0  0  -0.095939  0  4.06992  0  0  -0.096492  -0.09354  0  4.033367  0
C  C59  1  0.96771231  0.14543780  0.43381866  1  0  -0.079073  0  3.797196  0  0  -0.094615  0  4.048148  0  0  -0.095906  0  4.069803  0  0  -0.096465  -0.093513  0  4.033249  0
C  C60  1  0.38478481  0.55048253  0.42468402  1  0  -0.119114  0  3.761047  0  0  -0.13631  0  4.007237  0  0  -0.13994  0  4.029364  0  0  -0.09109  -0.133799  0  3.992133  0
C  C61  1  0.88478764  0.94951748  0.57531646  1  0  -0.119095  0  3.76117  0  0  -0.136281  0  4.007365  0  0  -0.139906  0  4.029494  0  0  -0.091095  -0.13377  0  3.992253  0
C  C62  1  0.61520652  0.44951764  0.57531543  1  0  -0.119071  0  3.761163  0  0  -0.136289  0  4.007342  0  0  -0.139921  0  4.029472  0  0  -0.091086  -0.133784  0  3.992251  0
C  C63  1  0.11520783  0.05048352  0.42468382  1  0  -0.119083  0  3.761099  0  0  -0.136292  0  4.007288  0  0  -0.139918  0  4.029416  0  0  -0.0911  -0.133786  0  3.992189  0
C  C64  1  0.40057805  0.45603149  0.34832040  1  0  0.068143  0  3.787851  0  0  0.081901  0  4.015471  0  0  0.08285  0  4.039977  0  0  -0.003499  0.081358  0  3.998842  0
C  C65  1  0.90058078  0.04396839  0.65168066  1  0  0.068079  0  3.787735  0  0  0.081821  0  4.015422  0  0  0.082759  0  4.039935  0  0  -0.003485  0.08128  0  3.998796  0
C  C66  1  0.59941534  0.54396868  0.65167906  1  0  0.068092  0  3.787852  0  0  0.08191  0  4.015392  0  0  0.082866  0  4.039891  0  0  -0.003495  0.081364  0  3.99877  0
C  C67  1  0.09941054  0.95603260  0.34832021  1  0  0.068033  0  3.787729  0  0  0.081839  0  4.015338  0  0  0.082781  0  4.039844  0  0  -0.003476  0.081299  0  3.99871  0
C  C68  1  0.25722445  0.35634715  0.33839750  1  0  -0.117867  0  3.750537  0  0  -0.138969  0  4.006481  0  0  -0.142261  0  4.026829  0  0  -0.090072  -0.136811  0  3.992732  0
C  C69  1  0.75723057  0.14365460  0.66160538  1  0  -0.11786  0  3.750579  0  0  -0.138954  0  4.006537  0  0  -0.142242  0  4.026885  0  0  -0.090095  -0.136811  0  3.992788  0
C  C70  1  0.74277101  0.64365551  0.66160325  1  0  -0.117883  0  3.75075  0  0  -0.139007  0  4.006683  0  0  -0.142301  0  4.027031  0  0  -0.090096  -0.136864  0  3.992955  0
C  C71  1  0.24276490  0.85634556  0.33839526  1  0  -0.117836  0  3.75071  0  0  -0.138947  0  4.006643  0  0  -0.142236  0  4.02699  0  0  -0.090107  -0.136816  0  3.99291  0
C  C72  1  0.28256937  0.26502594  0.26481621  1  0  -0.05219  0  3.73999  0  0  -0.079659  0  3.997703  0  0  -0.079003  0  4.017226  0  0  -0.082871  -0.079952  0  3.984465  0
C  C73  1  0.78257831  0.23497411  0.73518617  1  0  -0.052403  0  3.740059  0  0  -0.079818  0  3.997749  0  0  -0.079166  0  4.017265  0  0  -0.082906  -0.080112  0  3.984524  0
C  C74  1  0.71742817  0.73497092  0.73518171  1  0  -0.052103  0  3.740256  0  0  -0.079536  0  3.997958  0  0  -0.078883  0  4.017481  0  0  -0.082836  -0.079832  0  3.984727  0
C  C75  1  0.21741922  0.76502853  0.26481577  1  0  -0.05225  0  3.740249  0  0  -0.079661  0  3.997958  0  0  -0.079008  0  4.017476  0  0  -0.082829  -0.079966  0  3.984752  0
O  O76  1  0.30444686  0.08768684  0.11265713  1  0  -0.649397  0  2.114129  0  0  -0.578037  0  2.402837  0  0  -0.606114  0  2.382643  0  0  -0.310456  -0.558537  0  2.4162  0
O  O77  1  0.80445318  0.41231235  0.88734440  1  0  -0.649198  0  2.114088  0  0  -0.577901  0  2.40288  0  0  -0.605982  0  2.38269  0  0  -0.310401  -0.558399  0  2.416238  0
O  O78  1  0.69555688  0.91232417  0.88734004  1  0  -0.649615  0  2.113519  0  0  -0.578284  0  2.402273  0  0  -0.606371  0  2.382084  0  0  -0.310593  -0.558794  0  2.415633  0
O  O79  1  0.19556504  0.58767950  0.11265567  1  0  -0.649528  0  2.113423  0  0  -0.578196  0  2.402204  0  0  -0.606285  0  2.382012  0  0  -0.310534  -0.558708  0  2.415571  0
O  O80  1  0.65306695  0.16679665  0.06379083  1  0  -0.63669  0  2.12146  0  0  -0.557877  0  2.401011  0  0  -0.587409  0  2.382111  0  0  -0.301411  -0.537415  0  2.413475  0
O  O81  1  0.15307185  0.33320194  0.93621064  1  0  -0.636575  0  2.12133  0  0  -0.557767  0  2.400931  0  0  -0.587302  0  2.382037  0  0  -0.301321  -0.537304  0  2.413392  0
O  O82  1  0.34695542  0.83320188  0.93620638  1  0  -0.636731  0  2.122006  0  0  -0.557866  0  2.401553  0  0  -0.587382  0  2.382643  0  0  -0.301387  -0.537415  0  2.414007  0
O  O83  1  0.84695051  0.66679820  0.06379178  1  0  -0.636747  0  2.122063  0  0  -0.55791  0  2.401692  0  0  -0.587432  0  2.382785  0  0  -0.301387  -0.537453  0  2.41415  0
O  O84  1  0.61280045  0.40301421  0.07153194  1  0  -0.645569  0  2.047876  0  0  -0.573318  0  2.327163  0  0  -0.603142  0  2.308431  0  0  -0.308927  -0.552396  0  2.339444  0
O  O85  1  0.11280080  0.09698278  0.92846911  1  0  -0.645505  0  2.048006  0  0  -0.573274  0  2.327399  0  0  -0.603085  0  2.308678  0  0  -0.308893  -0.552347  0  2.339679  0
O  O86  1  0.38720536  0.59698595  0.92846870  1  0  -0.645534  0  2.048216  0  0  -0.573256  0  2.327456  0  0  -0.603081  0  2.308727  0  0  -0.308881  -0.55234  0  2.339739  0
O  O87  1  0.88720087  0.90301405  0.07153178  1  0  -0.645481  0  2.047952  0  0  -0.573317  0  2.327357  0  0  -0.60313  0  2.308637  0  0  -0.3089  -0.552399  0  2.339646  0
O  O88  1  0.00069338  0.37691717  0.13375216  1  0  -0.623272  0  2.088542  0  0  -0.55166  0  2.359808  0  0  -0.583633  0  2.348027  0  0  -0.297356  -0.529248  0  2.367149  0
O  O89  1  0.50069355  0.12308166  0.86624830  1  0  -0.623287  0  2.088478  0  0  -0.551625  0  2.359771  0  0  -0.583585  0  2.348004  0  0  -0.29731  -0.529217  0  2.367125  0
O  O90  1  0.99931657  0.62308217  0.86624766  1  0  -0.62316  0  2.08858  0  0  -0.551587  0  2.359871  0  0  -0.583558  0  2.348094  0  0  -0.297269  -0.529184  0  2.367211  0
O  O91  1  0.49931019  0.87691933  0.13375317  1  0  -0.623199  0  2.088641  0  0  -0.55155  0  2.359892  0  0  -0.583512  0  2.348126  0  0  -0.297276  -0.529144  0  2.367235  0
