# generated using pymatgen
data_CuH12C8SN6O5
_symmetry_space_group_name_H-M   'P 1'
_cell_length_a   5.19970214
_cell_length_b   6.36179630
_cell_length_c   19.84069551
_cell_angle_alpha   91.36561664
_cell_angle_beta   85.74653801
_cell_angle_gamma   91.43062358
_symmetry_Int_Tables_number   1
_chemical_formula_structural   CuH12C8SN6O5
_chemical_formula_sum   'Cu2 H24 C16 S2 N12 O10'
_cell_volume   654.14844310
_cell_formula_units_Z   2
loop_
 _symmetry_equiv_pos_site_id
 _symmetry_equiv_pos_as_xyz
  1  'x, y, z'
loop_
 _atom_site_type_symbol
 _atom_site_label
 _atom_site_symmetry_multiplicity
 _atom_site_fract_x
 _atom_site_fract_y
 _atom_site_fract_z
 _atom_site_occupancy
 _atom_site_hle17_ddec_charge
 _atom_site_hle17_ddec_spin_density
 _atom_site_hle17_ddec_sum_bond_order
 _atom_site_hle17_magmom
 _atom_site_hse06_10hf_ddec_charge
 _atom_site_hse06_10hf_ddec_spin_density
 _atom_site_hse06_10hf_ddec_sum_bond_order
 _atom_site_hse06_10hf_magmom
 _atom_site_hse06_ddec_charge
 _atom_site_hse06_ddec_spin_density
 _atom_site_hse06_ddec_sum_bond_order
 _atom_site_hse06_magmom
 _atom_site_pbe_cm5_charge
 _atom_site_pbe_ddec_charge
 _atom_site_pbe_ddec_spin_density
 _atom_site_pbe_ddec_sum_bond_order
 _atom_site_pbe_magmom
Cu  Cu0  1  0.79449576  0.86004142  0.74978826  1  0.943717  0.715733  1.643775  0.508  0.938629  0.814404  2.014044  0.64  1.028127  0.892675  1.95552  0.732  0.739545  0.877968  0.756717  2.061178  0.579
Cu  Cu1  1  0.20579261  0.13973837  0.25015025  1  0.943992  -0.715754  1.643714  -0.508  0.93886  -0.814443  2.014052  -0.64  1.045115  -0.892748  1.925656  -0.732  0.739485  0.87814  -0.756753  2.061257  -0.579
H  H2  1  0.43521091  0.70538235  0.48055583  1  0.079476  0.001157  0.924364  0.002  0.089783  0.000421  0.983936  0.001  0.091274  0.000173  0.981712  0.0  0.119342  0.088792  0.000713  0.985519  0.001
H  H3  1  0.55586896  0.29851497  0.96885365  1  0.072571  -0.000792  0.932722  -0.001  0.083567  -0.000293  0.991454  0.0  0.085242  -0.000123  0.989327  0.0  0.116154  0.082377  -0.000485  0.993006  -0.001
H  H4  1  0.56226321  0.29527977  0.51964292  1  0.07935  -0.001154  0.923934  -0.002  0.089678  -0.000421  0.983566  -0.001  0.091157  -0.000173  0.981369  0.0  0.119211  0.088642  -0.000712  0.985185  -0.001
H  H5  1  0.44535096  0.70194690  0.03123414  1  0.072476  0.000791  0.932412  0.001  0.083451  0.000292  0.991255  0.0  0.085125  0.000123  0.989136  0.0  0.116344  0.08226  0.000485  0.992784  0.001
H  H6  1  0.20518863  0.54862614  0.58744140  1  0.133418  -1e-06  0.928742  0.0  0.144866  0.000228  0.98041  0.0  0.148539  0.000185  0.98041  0.0  0.113833  0.142128  0.00023  0.980805  0.0
H  H7  1  0.79046389  0.44030860  0.06947783  1  0.125912  -2.5e-05  0.933762  0.0  0.138098  -0.000201  0.985708  0.0  0.141765  -0.000161  0.985709  0.0  0.111219  0.135365  -0.000213  0.986105  0.0
H  H8  1  0.79352403  0.45139180  0.41281035  1  0.133226  0.0  0.928633  0.0  0.144641  -0.000228  0.980345  0.0  0.14834  -0.000184  0.980266  0.0  0.113743  0.14191  -0.000229  0.980734  0.0
H  H9  1  0.21057506  0.55970977  0.93068564  1  0.126147  2.5e-05  0.933826  0.0  0.138364  0.000201  0.985592  0.0  0.141991  0.00016  0.985668  0.0  0.11133  0.135595  0.000212  0.986038  0.0
H  H10  1  0.40248539  0.62877950  0.69535593  1  0.082244  0.001916  0.950536  0.003  0.0865  0.001322  1.022834  0.002  0.086913  0.000815  1.019897  0.001  0.119841  0.085956  0.001743  1.024889  0.003
H  H11  1  0.58089368  0.36651422  0.18367546  1  0.084124  -0.001383  0.972372  -0.002  0.089505  -0.000995  1.042738  -0.002  0.09061  -0.000599  1.039356  -0.001  0.118193  0.088153  -0.001332  1.04593  -0.002
H  H12  1  0.59763293  0.37049618  0.30475740  1  0.082334  -0.001912  0.950951  -0.003  0.086418  -0.00132  1.023405  -0.002  0.086614  -0.000812  1.021103  -0.001  0.119961  0.085831  -0.001742  1.025586  -0.003
H  H13  1  0.41987817  0.63329380  0.81643539  1  0.083786  0.001375  0.97286  0.002  0.089193  0.000989  1.043317  0.002  0.090648  0.000597  1.039118  0.001  0.117967  0.087819  0.001326  1.046494  0.002
H  H14  1  0.08126298  0.10019219  0.63726743  1  0.345634  -0.000109  0.924779  0.0  0.321415  -8.8e-05  0.996665  0.0  0.32886  -9.8e-05  0.990656  0.0  0.298552  0.316109  -7.3e-05  1.000942  0.0
H  H15  1  0.92397965  0.88912263  0.14269689  1  0.347762  3.7e-05  0.911128  0.0  0.324909  2.3e-05  0.980253  0.0  0.332359  3.5e-05  0.974327  0.0  0.301703  0.31943  9e-06  0.984737  0.0
H  H16  1  0.91803293  0.89947757  0.36263724  1  0.345938  0.000111  0.923332  0.0  0.321664  8.7e-05  0.995466  0.0  0.328913  9.8e-05  0.989913  0.0  0.298375  0.316385  7.2e-05  0.999717  0.0
H  H17  1  0.07693496  0.11072654  0.85718477  1  0.347617  -3.8e-05  0.911643  0.0  0.32474  -2.3e-05  0.980785  0.0  0.332274  -3.4e-05  0.974655  0.0  0.301562  0.319258  -9e-06  0.985284  0.0
H  H18  1  0.08436975  0.09119871  0.54907940  1  0.315651  -0.000474  0.94923  0.0  0.289262  -0.000312  1.029446  0.0  0.298551  -0.000173  1.021962  0.0  0.291298  0.282748  -0.000473  1.034512  0.0
H  H19  1  0.90863534  0.90354437  0.05369301  1  0.320923  0.000403  0.939988  0.0  0.292459  0.000271  1.023715  0.0  0.301646  0.000158  1.016108  0.0  0.292492  0.286048  0.000395  1.02886  0.0
H  H20  1  0.91391048  0.90917318  0.45083955  1  0.315562  0.000479  0.949335  0.0  0.289063  0.000312  1.029847  0.0  0.298362  0.000173  1.022316  0.0  0.291277  0.282543  0.000473  1.034916  0.0
H  H21  1  0.09240728  0.09669660  0.94619351  1  0.320677  -0.000405  0.93934  0.0  0.292732  -0.000271  1.02246  0.0  0.301895  -0.000158  1.014898  0.0  0.292597  0.286325  -0.000395  1.027609  0.0
H  H22  1  0.77680784  0.43375247  0.73872640  1  0.428187  0.001149  0.847598  0.001  0.407657  0.001449  0.909427  0.002  0.419665  0.00105  0.891922  0.001  0.303105  0.398904  0.001741  0.922215  0.002
H  H23  1  0.22334865  0.56610594  0.26130428  1  0.428496  -0.001147  0.846878  -0.001  0.407891  -0.001447  0.909016  -0.002  0.419918  -0.001049  0.891511  -0.001  0.303243  0.399138  -0.001739  0.921804  -0.002
H  H24  1  0.04141878  0.48921270  0.76582816  1  0.432609  0.000416  0.866773  0.001  0.407097  0.000777  0.921942  0.002  0.419299  0.000578  0.904543  0.001  0.295294  0.398304  0.00092  0.934441  0.002
H  H25  1  0.95913104  0.51057773  0.23401926  1  0.432235  -0.000414  0.867212  -0.001  0.406759  -0.000775  0.922225  -0.002  0.418926  -0.000576  0.904916  -0.001  0.295518  0.397986  -0.000918  0.934696  -0.002
C  C26  1  0.37494881  0.65134596  0.58851973  1  -0.215981  0.009658  3.733975  0.011  -0.232612  0.004132  4.001716  0.005  -0.247766  0.003148  4.021184  0.004  -0.106724  -0.223017  0.004963  3.988956  0.006
C  C27  1  0.61600389  0.34278347  0.07532154  1  -0.221903  -0.008162  3.747809  -0.009  -0.237527  -0.003457  4.015171  -0.004  -0.252195  -0.002702  4.033973  -0.003  -0.110806  -0.228266  -0.004088  4.002817  -0.005
C  C28  1  0.62377347  0.34869415  0.41166842  1  -0.21521  -0.009639  3.732439  -0.011  -0.231867  -0.004121  4.000076  -0.005  -0.246936  -0.003143  4.019387  -0.004  -0.106283  -0.222284  -0.004952  3.987324  -0.006
C  C29  1  0.38501589  0.65727718  0.92478722  1  -0.222608  0.008112  3.747994  0.009  -0.238152  0.003447  4.015337  0.004  -0.252865  0.002692  4.034273  0.003  -0.11067  -0.228869  0.004075  4.003007  0.005
C  C30  1  0.50168782  0.73731072  0.53085459  1  0.19829  -0.006078  3.751454  -0.006  0.161675  -0.001844  4.018136  -0.002  0.178697  -0.00207  4.029203  -0.002  0.066137  0.150231  -0.001594  4.010532  -0.002
C  C31  1  0.48650062  0.26406331  0.02080356  1  0.196111  0.005117  3.771211  0.005  0.159112  0.001551  4.038464  0.002  0.175322  0.001749  4.049995  0.002  0.062162  0.148417  0.001343  4.030437  0.001
C  C32  1  0.49635791  0.26309373  0.46929910  1  0.199009  0.006101  3.750846  0.006  0.162273  0.001845  4.017516  0.002  0.179317  0.002068  4.028424  0.002  0.066067  0.150872  0.001595  4.009917  0.002
C  C33  1  0.51457124  0.73623785  0.97925690  1  0.196979  -0.0051  3.770116  -0.005  0.159813  -0.001551  4.037294  -0.002  0.175993  -0.001746  4.048925  -0.002  0.06201  0.149145  -0.001343  4.029252  -0.001
C  C34  1  0.48473614  0.69741015  0.64877847  1  0.217997  -0.004639  3.694253  -0.005  0.178791  -0.000244  3.963692  -0.001  0.196003  -0.001247  3.979308  -0.002  0.059893  0.167952  0.000515  3.952898  0.0
C  C35  1  0.50187456  0.29774667  0.13878971  1  0.206288  0.004737  3.708259  0.005  0.166799  0.000656  3.974396  0.001  0.183778  0.00147  3.990336  0.002  0.05633  0.155607  -3e-06  3.964945  0.001
C  C36  1  0.51476862  0.30220892  0.35133107  1  0.21778  0.004628  3.694379  0.005  0.178566  0.000247  3.963611  0.001  0.195282  0.001248  3.981116  0.002  0.05999  0.167714  -0.00051  3.952809  0.0
C  C37  1  0.49898375  0.70221631  0.86128392  1  0.207072  -0.004714  3.707956  -0.005  0.167369  -0.000661  3.974132  -0.001  0.184881  -0.001469  3.987908  -0.002  0.056549  0.156207  -3e-06  3.964678  -0.001
C  C38  1  0.79758106  0.91328193  0.59467437  1  0.636475  -0.001998  3.811049  -0.001  0.596692  0.000639  4.083741  0.001  0.626301  -0.000137  4.090244  0.0  0.351747  0.577023  0.001191  4.078585  0.002
C  C39  1  0.18645768  0.08913054  0.09202912  1  0.633938  0.001497  3.803381  0.001  0.596832  -0.00082  4.070001  -0.001  0.625507  -0.000112  4.077834  0.0  0.351398  0.57777  -0.001324  4.064405  -0.002
C  C40  1  0.20112949  0.08681526  0.40533190  1  0.637268  0.002005  3.808643  0.001  0.59701  -0.00064  4.081527  -0.001  0.626495  0.000137  4.088759  0.0  0.351563  0.577354  -0.001191  4.076386  -0.002
C  C41  1  0.81444731  0.91099211  0.90794359  1  0.633369  -0.001481  3.802144  -0.001  0.596097  0.000823  4.068653  0.001  0.624749  0.000115  4.076029  0.0  0.351028  0.57707  0.001325  4.063023  0.002
S  S42  1  0.35735141  0.16761621  0.74520486  1  1.527529  -0.002879  5.850076  -0.005  1.420912  0.001677  6.39038  -0.001  1.481065  0.001298  6.354429  -0.001  0.550801  1.378987  0.001947  6.412976  -0.001
S  S43  1  0.64306231  0.83218122  0.25460494  1  1.528195  0.002882  5.849416  0.005  1.421642  -0.001676  6.389829  0.001  1.481415  -0.001298  6.356418  0.001  0.550802  1.379732  -0.00195  6.412369  0.001
N  N44  1  0.69245765  0.82617326  0.65317128  1  -0.466709  0.085675  3.200425  0.104  -0.422886  0.055884  3.499658  0.073  -0.463712  0.044819  3.517553  0.063  -0.355566  -0.397361  0.060998  3.488627  0.077
N  N45  1  0.29039731  0.17320616  0.14833513  1  -0.457931  -0.071979  3.181841  -0.088  -0.410134  -0.048281  3.469885  -0.063  -0.451187  -0.038894  3.486232  -0.054  -0.353824  -0.386012  -0.052733  3.459912  -0.066
N  N46  1  0.30706563  0.17346147  0.34683926  1  -0.467064  -0.085379  3.201307  -0.104  -0.422643  -0.05573  3.500015  -0.073  -0.466293  -0.044702  3.518182  -0.062  -0.355472  -0.397115  -0.06082  3.489015  -0.076
N  N47  1  0.71033652  0.82684539  0.85166466  1  -0.458284  0.071734  3.180692  0.087  -0.410124  0.048147  3.468345  0.063  -0.448301  0.038786  3.4845  0.054  -0.353797  -0.386047  0.052593  3.458373  0.066
N  N48  1  0.98847476  0.05612402  0.59518913  1  -0.680793  -0.003907  3.118603  -0.004  -0.649567  -0.001271  3.36732  -0.001  -0.673722  -0.00115  3.362951  -0.001  -0.567887  -0.63273  -0.00144  3.369772  -0.001
N  N49  1  0.99860402  0.94280118  0.09711811  1  -0.676302  0.002848  3.110295  0.003  -0.640373  0.001035  3.352746  0.001  -0.663996  0.000962  3.348355  0.001  -0.564666  -0.62408  0.001127  3.355557  0.001
N  N50  1  0.01023527  0.94397437  0.40477175  1  -0.681355  0.003802  3.116106  0.004  -0.649834  0.001259  3.364518  0.001  -0.674129  0.001144  3.360738  0.001  -0.567859  -0.633029  0.001423  3.366958  0.001
N  N51  1  0.00232358  0.05732306  0.90279689  1  -0.675075  -0.002828  3.108677  -0.003  -0.639644  -0.001029  3.350752  -0.001  -0.663156  -0.000956  3.346255  -0.001  -0.564151  -0.623351  -0.001122  3.35353  -0.001
N  N52  1  0.71166685  0.85990729  0.53324119  1  -0.448006  0.021742  3.041366  0.025  -0.395324  0.008142  3.295079  0.01  -0.41872  0.004785  3.305621  0.006  -0.318673  -0.378918  0.011929  3.287217  0.014
N  N53  1  0.27133477  0.14688019  0.02833949  1  -0.465025  -0.015862  3.049069  -0.018  -0.412463  -0.006407  3.305499  -0.008  -0.435065  -0.004017  3.316288  -0.005  -0.323764  -0.396933  -0.008936  3.297609  -0.01
N  N54  1  0.28636020  0.14056123  0.46681545  1  -0.449136  -0.021694  3.041701  -0.025  -0.396007  -0.008119  3.295131  -0.01  -0.419354  -0.004774  3.305563  -0.006  -0.318549  -0.379606  -0.011896  3.287254  -0.014
N  N55  1  0.72971175  0.85342980  0.97165311  1  -0.465351  0.015785  3.049169  0.018  -0.412276  0.006382  3.30523  0.008  -0.434874  0.004002  3.316165  0.005  -0.323739  -0.39677  0.008901  3.297334  0.01
O  O56  1  0.64177050  0.14820977  0.75923016  1  -0.712637  0.09632  1.992189  0.124  -0.688452  0.058505  2.283803  0.083  -0.727003  0.043  2.267189  0.064  -0.3682  -0.662252  0.068443  2.295605  0.093
O  O57  1  0.35868369  0.85162020  0.24055767  1  -0.713181  -0.096351  1.991696  -0.124  -0.689237  -0.058525  2.283594  -0.083  -0.730614  -0.043001  2.265643  -0.064  -0.368314  -0.663057  -0.068479  2.295474  -0.093
O  O58  1  0.34208394  0.23784045  0.67585515  1  -0.691335  0.002702  1.956142  0.004  -0.636067  0.001826  2.192023  0.003  -0.658182  0.000998  2.177723  0.002  -0.348647  -0.620221  0.002606  2.201183  0.004
O  O59  1  0.75105944  0.67291595  0.20412706  1  -0.716649  -0.023011  1.941425  -0.029  -0.659161  -0.011487  2.170615  -0.016  -0.685651  -0.006457  2.154902  -0.009  -0.351696  -0.639117  -0.016618  2.180291  -0.022
O  O60  1  0.65809190  0.76128561  0.32389357  1  -0.691568  -0.002739  1.955502  -0.004  -0.636363  -0.001841  2.191181  -0.003  -0.658485  -0.001003  2.177087  -0.002  -0.348505  -0.620445  -0.002627  2.200257  -0.004
O  O61  1  0.24977425  0.32737684  0.79558033  1  -0.716493  0.023081  1.942215  0.029  -0.659153  0.011519  2.171715  0.016  -0.685787  0.006472  2.155956  0.009  -0.35138  -0.639097  0.016663  2.181451  0.022
O  O62  1  0.22301473  0.96085469  0.75701924  1  -0.761895  0.00206  2.009095  0.005  -0.731735  -0.001186  2.307579  0.0  -0.758394  -0.00214  2.286137  -0.001  -0.368225  -0.711128  0.000621  2.321192  0.003
O  O63  1  0.77722229  0.03914233  0.24302922  1  -0.761756  -0.002091  2.008999  -0.005  -0.731419  0.001178  2.307171  0.0  -0.761367  0.002153  2.285856  0.001  -0.368108  -0.710815  -0.000637  2.320866  -0.003
O  O64  1  0.90235881  0.55215185  0.74067642  1  -0.814147  0.044664  1.941155  0.057  -0.778959  0.038409  2.152934  0.053  -0.808237  0.031056  2.116873  0.046  -0.581001  -0.758919  0.042679  2.179229  0.057
O  O65  1  0.09786678  0.44769652  0.25927694  1  -0.813974  -0.044605  1.940744  -0.057  -0.778809  -0.03837  2.152921  -0.053  -0.810937  -0.031015  2.11444  -0.046  -0.581157  -0.758755  -0.042637  2.179187  -0.057
