# generated using pymatgen
data_Zr6H30C57(SO24)2
_symmetry_space_group_name_H-M   'P 1'
_cell_length_a   14.72581230
_cell_length_b   14.73018501
_cell_length_c   14.74264984
_cell_angle_alpha   60.31411105
_cell_angle_beta   60.08993731
_cell_angle_gamma   60.11546610
_symmetry_Int_Tables_number   1
_chemical_formula_structural   Zr6H30C57(SO24)2
_chemical_formula_sum   'Zr6 H30 C57 S2 O48'
_cell_volume   2270.09474351
_cell_formula_units_Z   1
loop_
 _symmetry_equiv_pos_site_id
 _symmetry_equiv_pos_as_xyz
  1  'x, y, z'
loop_
 _atom_site_type_symbol
 _atom_site_label
 _atom_site_symmetry_multiplicity
 _atom_site_fract_x
 _atom_site_fract_y
 _atom_site_fract_z
 _atom_site_occupancy
 _atom_site_pbe_bader_charge
 _atom_site_pbe_bader_spin_density
 _atom_site_pbe_cm5_charge
 _atom_site_pbe_ddec_charge
 _atom_site_pbe_ddec_spin_density
 _atom_site_pbe_ddec_sum_bond_order
 _atom_site_pbe_magmom
Zr  Zr0  1  0.88638405  0.88014157  0.61614155  1  2.637015  0  1.633761  2.376701  0  2.760149  0
Zr  Zr1  1  0.12958765  0.11624534  0.38009101  1  2.637994  0  1.628476  2.379733  0  2.726386  0
Zr  Zr2  1  0.12861853  0.87521832  0.61817919  1  2.63552  0  1.627496  2.380222  0  2.716939  0
Zr  Zr3  1  0.88808210  0.11828453  0.37943269  1  2.635629  0  1.635168  2.377098  0  2.759057  0
Zr  Zr4  1  0.12875604  0.87859971  0.37690533  1  2.635559  0  1.628106  2.374907  0  2.747615  0
Zr  Zr5  1  0.88949455  0.11631955  0.61908423  1  2.635122  0  1.633581  2.375393  0  2.753299  0
H  H6  1  0.10441508  0.71422401  0.59036637  1  0.630281  0  0.324192  0.412633  0  0.878648  0
H  H7  1  0.10539355  0.09277439  0.21602821  1  0.577536  0  0.322996  0.409315  0  0.885914  0
H  H8  1  0.10813827  0.08707663  0.59219660  1  0.595016  0  0.329096  0.419967  0  0.859826  0
H  H9  1  0.72549618  0.09334762  0.59158939  1  0.637195  0  0.335188  0.429384  0  0.847706  0
H  H10  1  0.82847663  0.62771461  0.58515548  1  0.11109  0  0.117056  0.124943  0  0.978646  0
H  H11  1  0.17759533  0.55162072  0.39781385  1  0.102921  0  0.106758  0.115958  0  1.028994  0
H  H12  1  0.83331512  0.45351744  0.58755557  1  0.128284  0  0.11896  0.129923  0  0.972094  0
H  H13  1  0.59208158  0.85487611  0.91250007  1  0.089519  0  0.113878  0.121669  0  0.98049  0
H  H14  1  0.60543355  0.13488565  0.92237666  1  0.149267  0  0.11545  0.133005  0  1.00202  0
H  H15  1  0.42408889  0.85455108  0.08442850  1  0.159636  0  0.112656  0.127979  0  1.007294  0
H  H16  1  0.15664255  0.85532205  0.08050877  1  0.100979  0  0.115738  0.125417  0  0.98078  0
H  H17  1  0.85359298  0.13372185  0.09212610  1  0.108011  0  0.118743  0.130541  0  0.980088  0
H  H18  1  0.15456273  0.85286724  0.91215630  1  0.112682  0  0.112271  0.124674  0  0.998605  0
H  H19  1  0.60174668  0.42669004  0.63572253  1  0.094899  0  0.117581  0.126492  0  0.975155  0
H  H20  1  0.61289861  0.42094456  0.34191299  1  0.105461  0  0.115083  0.12786  0  0.984913  0
H  H21  1  0.43237591  0.59652912  0.63090375  1  0.155374  0  0.114268  0.13058  0  1.008482  0
H  H22  1  0.04215343  0.56481650  0.73528131  1  0.076812  0  0.106729  0.108927  0  1.024627  0
H  H23  1  0.10255054  0.38153066  0.72295815  1  0.067977  0  0.108336  0.107762  0  0.990157  0
H  H24  1  0.05252494  0.23056508  0.07181561  1  0.065881  0  0.105283  0.105565  0  1.033354  0
H  H25  1  0.10813710  0.21320055  0.89267102  1  0.068046  0  0.106882  0.103644  0  0.991393  0
H  H26  1  0.60534678  0.12972051  0.33565903  1  0.094713  0  0.117842  0.12664  0  0.972497  0
H  H27  1  0.60841293  0.84350014  0.62983371  1  0.106039  0  0.112988  0.12376  0  0.991687  0
H  H28  1  0.43669309  0.12443331  0.33902280  1  0.168257  0  0.116187  0.133731  0  1.018884  0
H  H29  1  0.22561183  0.40147826  0.26482421  1  0.603674  0  0.351941  0.390505  0  0.841893  0
H  H30  1  0.32610261  0.25654025  0.01934974  1  0.593645  0  0.332376  0.36455  0  0.884281  0
H  H31  1  0.90161522  0.23361237  0.77849552  1  0.628942  0  0.325746  0.36588  0  0.902638  0
H  H32  1  0.37119385  0.48560650  0.38930688  1  0.601312  0  0.335264  0.367562  0  0.877865  0
H  H33  1  0.32810702  0.90828419  0.74261084  1  0.629379  0  0.336326  0.367571  0  0.876481  0
H  H34  1  0.93327021  0.66005577  0.20574499  1  0.675043  0  0.319921  0.393802  0  0.931912  0
H  H35  1  0.72733014  0.71971799  0.16415078  1  0.678914  0  0.325937  0.39896  0  0.91987  0
C  C36  1  0.00298080  0.70029865  0.49067071  1  1.54774  0  0.237145  0.638323  0  4.106978  0
C  C37  1  0.31554388  0.99690643  0.19591710  1  1.522246  0  0.236095  0.635557  0  4.104438  0
C  C38  1  0.00970096  0.30039924  0.50131601  1  1.569816  0  0.2362  0.639839  0  4.118296  0
C  C39  1  0.70647868  0.99697905  0.80393246  1  1.532343  0  0.239443  0.644149  0  4.097005  0
C  C40  1  0.99056288  0.70556169  0.81130123  1  1.641401  0  0.235237  0.638127  0  4.168134  0
C  C41  1  0.71072482  0.99384565  0.48845382  1  1.53145  0  0.239903  0.6429  0  4.097629  0
C  C42  1  0.99444121  0.31284530  0.20863868  1  1.627645  0  0.233133  0.637112  0  4.172528  0
C  C43  1  0.32089602  0.98759981  0.49176245  1  1.558397  0  0.238477  0.639482  0  4.095806  0
C  C44  1  0.31830609  0.69709776  0.49200868  1  1.542668  0  0.238668  0.639496  0  4.098416  0
C  C45  1  0.00854202  0.99051717  0.80549487  1  1.560819  0  0.233241  0.635893  0  4.129451  0
C  C46  1  0.71171227  0.30746003  0.49515680  1  1.562253  0  0.2382  0.643452  0  4.10289  0
C  C47  1  0.00617479  0.99790519  0.19480649  1  1.549338  0  0.237167  0.635318  0  4.10338  0
C  C48  1  0.00874455  0.40298440  0.49917370  1  0.017705  0  -0.009691  -0.05593  0  3.953534  0
C  C49  1  0.00278783  0.59925918  0.49038043  1  -0.111774  0  -0.010639  -0.023516  0  3.967143  0
C  C50  1  0.10727491  0.42851477  0.44684412  1  -0.066081  0  -0.011558  -0.070118  0  3.994627  0
C  C51  1  0.90545306  0.57213210  0.54544057  1  0.041874  0  -0.071924  -0.081686  0  3.941707  0
C  C52  1  0.10302536  0.52853404  0.43976452  1  0.030206  0  -0.080986  -0.125697  0  3.948519  0
C  C53  1  0.90837893  0.47517520  0.54786814  1  -0.007929  0  -0.071401  -0.074271  0  3.942139  0
C  C54  1  0.41694280  0.99823611  0.09537664  1  0.017921  0  -0.012504  -0.067605  0  3.952158  0
C  C55  1  0.60629414  0.99678782  0.90593817  1  0.006612  0  -0.009141  -0.025326  0  3.956111  0
C  C56  1  0.46775859  0.07822869  0.05007938  1  -0.047642  0  -0.00619  -0.06671  0  3.970879  0
C  C57  1  0.55604340  0.91722574  0.95132349  1  -0.008556  0  -0.075368  -0.078588  0  3.947892  0
C  C58  1  0.56306500  0.07614993  0.95600033  1  -0.002306  0  -0.071056  -0.10595  0  3.908069  0
C  C59  1  0.46243061  0.91763375  0.04589037  1  -0.06465  0  -0.074753  -0.076279  0  3.943618  0
C  C60  1  0.00581255  0.99435374  0.90593141  1  -0.039932  0  -0.012926  -0.06651  0  3.953395  0
C  C61  1  0.00635169  0.99637662  0.09415919  1  -0.037524  0  -0.0115  -0.030986  0  3.965698  0
C  C62  1  0.91934997  0.07461118  0.95612682  1  -0.008981  0  -0.002579  -0.053632  0  3.942283  0
C  C63  1  0.09149181  0.91624835  0.04449477  1  -0.040461  0  -0.07692  -0.086797  0  3.954983  0
C  C64  1  0.92063739  0.07406324  0.05064225  1  0.00186  0  -0.068815  -0.104353  0  3.921887  0
C  C65  1  0.09048607  0.91536369  0.95130745  1  0.017493  0  -0.079743  -0.085184  0  3.963568  0
C  C66  1  0.42477169  0.60170469  0.48642666  1  -0.003569  0  -0.008577  -0.058764  0  3.933974  0
C  C67  1  0.61509981  0.41270651  0.49047137  1  -0.021487  0  -0.008453  -0.02308  0  3.96449  0
C  C68  1  0.47705031  0.55401531  0.40239010  1  -0.08366  0  -0.009432  -0.071129  0  3.993392  0
C  C69  1  0.56605696  0.46270130  0.57111105  1  -0.009735  0  -0.069367  -0.07602  0  3.926841  0
C  C70  1  0.57168112  0.45969258  0.40541320  1  -0.026022  0  -0.078916  -0.123075  0  3.950886  0
C  C71  1  0.47145063  0.55657799  0.56884711  1  0.028637  0  -0.068371  -0.067209  0  3.923718  0
C  C72  1  0.97818317  0.61079225  0.92027411  1  0.129285  0  0.016491  -0.026255  0  3.852611  0
C  C73  1  0.01711764  0.50420819  0.91078838  1  -0.036729  0  0.008771  0.068618  0  3.926922  0
C  C74  1  0.93227796  0.62203640  0.02373024  1  -0.182871  0  -0.013979  -0.144097  0  3.929167  0
C  C75  1  0.04900285  0.49156644  0.80837027  1  0.008764  0  -0.079983  -0.114004  0  3.937424  0
C  C76  1  0.08131078  0.38895270  0.80180840  1  -0.021221  0  -0.077639  -0.063573  0  3.996029  0
C  C77  1  0.98241282  0.42045172  0.11246261  1  -0.01841  0  0.013388  -0.03282  0  3.867367  0
C  C78  1  0.93467154  0.52510692  0.12152437  1  -0.113419  0  -0.015418  -0.145167  0  3.936797  0
C  C79  1  0.01962547  0.40820921  0.00768067  1  0.016475  0  0.007306  0.068052  0  3.935515  0
C  C80  1  0.05485960  0.30350529  0.99784707  1  0.002505  0  -0.083879  -0.121879  0  3.951746  0
C  C81  1  0.08455789  0.29405218  0.89739038  1  -0.060165  0  -0.080093  -0.065982  0  4.007204  0
C  C82  1  0.42576867  0.98339378  0.48811791  1  0.015418  0  -0.007679  -0.060597  0  3.931529  0
C  C83  1  0.61459399  0.98843423  0.48434575  1  0.061063  0  -0.010419  -0.028871  0  3.974574  0
C  C84  1  0.47496365  0.90178803  0.56996341  1  -0.086118  0  -0.009553  -0.072086  0  3.994217  0
C  C85  1  0.56805680  0.06672937  0.40096107  1  -0.020504  0  -0.066763  -0.072823  0  3.916905  0
C  C86  1  0.56936991  0.90505642  0.56714962  1  -0.071397  0  -0.079122  -0.124317  0  3.95642  0
C  C87  1  0.47400578  0.06407129  0.40308681  1  0.019961  0  -0.061779  -0.049726  0  3.90287  0
C  C88  1  0.22039020  0.34407927  0.41557633  1  1.549454  0  0.232587  0.585707  0  4.141102  0
C  C89  1  0.42901792  0.16458032  0.10023344  1  1.540072  0  0.236959  0.591672  0  4.112735  0
C  C90  1  0.81714577  0.15795003  0.92384701  1  1.574178  0  0.236382  0.588188  0  4.10624  0
C  C91  1  0.43860888  0.59911201  0.30614341  1  1.551067  0  0.235469  0.59064  0  4.120632  0
C  C92  1  0.43488497  0.80719566  0.66123189  1  1.558642  0  0.235366  0.593306  0  4.119619  0
S  S93  1  0.87086816  0.53449330  0.25887555  1  3.137682  0  0.555985  1.158468  0  5.981598  0
S  S94  1  0.86627204  0.76070931  0.03079103  1  3.122786  0  0.561321  1.162155  0  5.969431  0
O  O95  1  0.92609554  0.73877588  0.56857617  1  -1.182382  0  -0.35282  -0.616739  0  2.282746  0
O  O96  1  0.27355280  0.07524684  0.23511965  1  -1.171766  0  -0.351573  -0.619179  0  2.337674  0
O  O97  1  0.08707022  0.26071406  0.42431123  1  -1.191245  0  -0.348781  -0.61983  0  2.319224  0
O  O98  1  0.74268915  0.92266013  0.76167791  1  -1.172357  0  -0.355031  -0.62006  0  2.29558  0
O  O99  1  0.07591904  0.73245264  0.77072148  1  -1.170646  0  -0.336006  -0.597674  0  2.245208  0
O  O100  1  0.74828035  0.07278123  0.41428180  1  -1.181664  0  -0.354468  -0.616721  0  2.277362  0
O  O101  1  0.92262243  0.26898434  0.24295170  1  -1.167687  0  -0.352041  -0.609942  0  2.316484  0
O  O102  1  0.27880864  0.91303706  0.57097471  1  -1.177725  0  -0.349368  -0.619439  0  2.323648  0
O  O103  1  0.27638144  0.73431642  0.41735072  1  -1.172704  0  -0.345995  -0.614281  0  2.309059  0
O  O104  1  0.93236121  0.06751103  0.76498319  1  -1.185484  0  -0.351429  -0.625343  0  2.38119  0
O  O105  1  0.75035807  0.26688787  0.57295643  1  -1.174176  0  -0.352653  -0.616027  0  2.278956  0
O  O106  1  0.08306561  0.92089854  0.23433217  1  -1.174252  0  -0.353683  -0.614421  0  2.286338  0
O  O107  1  0.08713087  0.91455521  0.76531636  1  -1.180695  0  -0.349264  -0.608636  0  2.296864  0
O  O108  1  0.74618891  0.26394004  0.42240757  1  -1.173514  0  -0.356303  -0.617609  0  2.303863  0
O  O109  1  0.93055534  0.07668964  0.23270681  1  -1.179266  0  -0.351666  -0.614163  0  2.279692  0
O  O110  1  0.27481793  0.73286680  0.57282657  1  -1.172061  0  -0.351337  -0.606251  0  2.281867  0
O  O111  1  0.91930903  0.74026578  0.76670231  1  -1.168872  0  -0.350073  -0.610091  0  2.302354  0
O  O112  1  0.27866580  0.06651295  0.41791135  1  -1.171623  0  -0.348153  -0.595058  0  2.300097  0
O  O113  1  0.07879233  0.27227495  0.23693253  1  -1.164868  0  -0.336783  -0.601387  0  2.257182  0
O  O114  1  0.74742549  0.91985127  0.56802369  1  -1.182426  0  -0.359162  -0.61982  0  2.301793  0
O  O115  1  0.74728176  0.07317905  0.76428514  1  -1.171103  0  -0.355256  -0.611651  0  2.287425  0
O  O116  1  0.08188412  0.73768480  0.41558857  1  -1.17758  0  -0.353263  -0.610275  0  2.28035  0
O  O117  1  0.27598822  0.92010483  0.23489296  1  -1.175388  0  -0.34782  -0.602461  0  2.283639  0
O  O118  1  0.93413163  0.25996004  0.58011510  1  -1.184813  0  -0.348364  -0.616352  0  2.299045  0
O  O119  1  0.80607052  0.06619048  0.56474097  1  -1.262544  0  -0.699853  -1.077567  0  2.377607  0
O  O120  1  0.07872619  0.06145442  0.56657717  1  -1.220987  0  -0.695172  -1.070693  0  2.374295  0
O  O121  1  0.07567832  0.06746142  0.29622749  1  -1.213709  0  -0.696176  -1.0729  0  2.382098  0
O  O122  1  0.07478996  0.79450608  0.56552075  1  -1.263532  0  -0.693107  -1.074351  0  2.364661  0
O  O123  1  0.15873158  0.94649899  0.44845791  1  -1.196349  0  -0.788682  -1.147634  0  2.128439  0
O  O124  1  0.95932240  0.94895918  0.44695556  1  -1.202168  0  -0.792094  -1.151742  0  2.128844  0
O  O125  1  0.95990436  0.14672148  0.44981211  1  -1.195832  0  -0.788874  -1.135926  0  2.110154  0
O  O126  1  0.95924545  0.94705668  0.64661990  1  -1.19721  0  -0.788607  -1.13362  0  2.114451  0
O  O127  1  0.27564996  0.35129373  0.30811334  1  -1.078533  0  -0.31372  -0.446959  0  2.234933  0
O  O128  1  0.26505438  0.27601449  0.48536104  1  -1.122631  0  -0.293412  -0.472262  0  2.041167  0
O  O129  1  0.35213091  0.26341146  0.06425696  1  -1.092402  0  -0.343231  -0.482589  0  2.210274  0
O  O130  1  0.46879492  0.15349497  0.16132253  1  -1.091458  0  -0.254473  -0.420727  0  2.115741  0
O  O131  1  0.82676332  0.24955938  0.83253311  1  -1.123787  0  -0.34497  -0.488713  0  2.23933  0
O  O132  1  0.72574092  0.15062770  0.98533839  1  -1.10516  0  -0.260117  -0.424851  0  2.077151  0
O  O133  1  0.37801838  0.54506586  0.31779356  1  -1.092542  0  -0.335933  -0.478091  0  2.214229  0
O  O134  1  0.46556848  0.67042173  0.21974028  1  -1.118046  0  -0.266973  -0.436866  0  2.091552  0
O  O135  1  0.35539650  0.82867679  0.75627497  1  -1.130672  0  -0.336915  -0.479996  0  2.229723  0
O  O136  1  0.47720734  0.71350336  0.65794486  1  -1.116886  0  -0.271488  -0.444946  0  2.080479  0
O  O137  1  0.94367806  0.58205594  0.26205686  1  -1.255195  0  -0.345968  -0.519986  0  2.209921  0
O  O138  1  0.88228182  0.42641217  0.34000385  1  -1.294087  0  -0.259779  -0.46095  0  2.243213  0
O  O139  1  0.75889562  0.61421064  0.26826035  1  -1.308388  0  -0.300216  -0.542585  0  2.209182  0
O  O140  1  0.73956946  0.77437481  0.08592674  1  -1.242129  0  -0.332005  -0.497083  0  2.217146  0
O  O141  1  0.88010089  0.84000943  0.92182384  1  -1.291902  0  -0.256057  -0.456466  0  2.24745  0
O  O142  1  0.90377486  0.76467462  0.10319203  1  -1.297809  0  -0.304971  -0.548179  0  2.210505  0
