# generated using pymatgen
data_CoH10C14(NO2)2
_symmetry_space_group_name_H-M   'P 1'
_cell_length_a   7.31501946
_cell_length_b   9.25589722
_cell_length_c   9.48736848
_cell_angle_alpha   99.62189260
_cell_angle_beta   91.35546039
_cell_angle_gamma   110.65044361
_symmetry_Int_Tables_number   1
_chemical_formula_structural   CoH10C14(NO2)2
_chemical_formula_sum   'Co2 H20 C28 N4 O8'
_cell_volume   590.25370593
_cell_formula_units_Z   2
loop_
 _symmetry_equiv_pos_site_id
 _symmetry_equiv_pos_as_xyz
  1  'x, y, z'
loop_
 _atom_site_type_symbol
 _atom_site_label
 _atom_site_symmetry_multiplicity
 _atom_site_fract_x
 _atom_site_fract_y
 _atom_site_fract_z
 _atom_site_occupancy
 _atom_site_hle17_ddec_charge
 _atom_site_hle17_ddec_spin_density
 _atom_site_hle17_ddec_sum_bond_order
 _atom_site_hle17_magmom
 _atom_site_hse06_10hf_ddec_charge
 _atom_site_hse06_10hf_ddec_spin_density
 _atom_site_hse06_10hf_ddec_sum_bond_order
 _atom_site_hse06_10hf_magmom
 _atom_site_hse06_ddec_charge
 _atom_site_hse06_ddec_spin_density
 _atom_site_hse06_ddec_sum_bond_order
 _atom_site_hse06_magmom
 _atom_site_pbe_cm5_charge
 _atom_site_pbe_ddec_charge
 _atom_site_pbe_ddec_spin_density
 _atom_site_pbe_ddec_sum_bond_order
 _atom_site_pbe_magmom
Co  Co0  1  0.68189283  0.95027011  0.90740917  1  1.044213  -2.830034  1.87062  -2.568  1.015939  -2.818885  2.275081  -2.634  1.096806  -2.877652  2.205354  -2.72  0.66514  0.941836  -2.761689  2.341755  -2.548
Co  Co1  1  0.31810922  0.04972875  0.09258965  1  1.044227  2.830034  1.870578  2.568  1.015997  2.818893  2.27506  2.634  1.096818  2.877658  2.205326  2.72  0.665148  0.941816  2.761691  2.34173  2.548
H  H2  1  0.75926989  0.26307965  0.37543755  1  0.093812  -0.000308  0.956901  0.0  0.107703  -0.0003  1.019987  0.0  0.108415  -0.000229  1.020326  0.0  0.110743  0.1075  -0.000375  1.019283  -0.001
H  H3  1  0.24073299  0.73692394  0.62456520  1  0.093865  0.000311  0.956905  0.0  0.107737  0.0003  1.019969  0.0  0.10845  0.000228  1.020307  0.0  0.110749  0.107535  0.000375  1.019264  0.001
H  H4  1  0.99629694  0.25494447  0.39947740  1  0.071119  -0.00019  0.936732  0.0  0.087415  -0.000227  0.999971  0.0  0.086849  -0.000164  1.001659  0.0  0.107434  0.088175  -0.000262  0.998331  0.0
H  H5  1  0.00370486  0.74505678  0.60052601  1  0.071165  0.000193  0.936768  0.0  0.087416  0.000227  1.000002  0.0  0.086848  0.000164  1.001694  0.0  0.107434  0.088178  0.000262  0.998363  0.0
H  H6  1  0.67553511  0.52710465  0.98839879  1  0.112681  -8.3e-05  0.942173  0.0  0.122939  5.4e-05  1.002306  0.0  0.127271  5.8e-05  0.998627  0.0  0.110797  0.119278  2.6e-05  1.005915  0.0
H  H7  1  0.32446751  0.47289540  0.01160234  1  0.112674  8.3e-05  0.942182  0.0  0.122922  -5.4e-05  1.002331  0.0  0.127256  -5.8e-05  0.998653  0.0  0.110787  0.11926  -2.6e-05  1.005944  0.0
H  H8  1  0.78209704  0.98708352  0.24510252  1  0.128296  -5.9e-05  0.976503  0.0  0.135726  -1.2e-05  1.040633  0.0  0.139163  3.5e-05  1.038224  0.0  0.108308  0.133202  -7.9e-05  1.042349  0.0
H  H9  1  0.21790582  0.01292005  0.75489706  1  0.128276  5.9e-05  0.976502  0.0  0.135716  1.2e-05  1.040631  0.0  0.139152  -3.5e-05  1.038222  0.0  0.108304  0.133191  7.9e-05  1.042348  0.0
H  H10  1  0.61426964  0.67493053  0.64316334  1  0.11498  0.000164  0.976942  0.0  0.122847  0.000161  1.041761  0.0  0.126287  0.000165  1.038902  0.0  0.10565  0.120263  0.000129  1.044136  0.0
H  H11  1  0.38572641  0.32506717  0.35683203  1  0.115015  -0.000163  0.976921  0.0  0.122875  -0.000161  1.041737  0.0  0.126316  -0.000165  1.038878  0.0  0.105661  0.120289  -0.000129  1.044115  0.0
H  H12  1  0.80739063  0.26102347  0.75506703  1  0.088541  0.000187  0.95914  0.0  0.097582  4.6e-05  1.025856  0.0  0.098419  3.7e-05  1.024354  0.0  0.135087  0.0969  4.3e-05  1.027  0.0
H  H13  1  0.19260872  0.73897543  0.24493492  1  0.088565  -0.000187  0.959198  0.0  0.097614  -4.6e-05  1.02587  0.0  0.098456  -3.7e-05  1.02437  0.0  0.135117  0.096933  -4.3e-05  1.02702  0.0
H  H14  1  0.82867563  0.46671020  0.59596206  1  0.069834  -7e-06  0.932872  0.0  0.088851  -1e-06  0.99195  0.0  0.088786  1e-06  0.993922  0.0  0.092277  0.089531  4e-06  0.989861  0.0
H  H15  1  0.17132755  0.53329106  0.40404348  1  0.069894  7e-06  0.932825  0.0  0.088897  1e-06  0.991907  0.0  0.088832  -1e-06  0.993881  0.0  0.092278  0.08958  -4e-06  0.989819  0.0
H  H16  1  0.05760031  0.44906676  0.63532653  1  0.071853  -3.4e-05  0.945668  0.0  0.087831  -5e-05  1.011362  0.0  0.088112  -2.7e-05  1.012814  0.0  0.091874  0.087518  -8.6e-05  1.010802  0.0
H  H17  1  0.94240096  0.55093334  0.36467880  1  0.07185  3.4e-05  0.945773  0.0  0.087848  5.1e-05  1.011421  0.0  0.088123  2.7e-05  1.012888  0.0  0.091877  0.087537  8.6e-05  1.010855  0.0
H  H18  1  0.60062454  0.54203676  0.38677356  1  0.089071  4.1e-05  0.978821  0.0  0.101173  2e-05  1.039325  0.0  0.103626  4e-06  1.038616  0.0  0.09773  0.099585  4.2e-05  1.039508  0.0
H  H19  1  0.39937122  0.45796329  0.61322113  1  0.089046  -4.2e-05  0.978823  0.0  0.10116  -2e-05  1.039318  0.0  0.103613  -4e-06  1.038608  0.0  0.097718  0.099571  -4.2e-05  1.039503  0.0
H  H20  1  0.67743034  0.69598941  0.19299529  1  0.082849  0.000104  0.973439  0.0  0.094973  9.1e-05  1.034717  0.0  0.096162  8.5e-05  1.035814  0.0  0.094433  0.093671  0.000124  1.035232  0.0
H  H21  1  0.32257115  0.30401417  0.80700321  1  0.082826  -0.000105  0.973454  0.0  0.094958  -9e-05  1.034708  0.0  0.096141  -8.5e-05  1.035823  0.0  0.094424  0.093651  -0.000123  1.035227  0.0
C  C22  1  0.83334523  0.37739048  0.02778740  1  -0.045385  -0.005123  3.72563  -0.007  -0.031533  -0.003102  3.962634  -0.005  -0.032876  -0.002819  3.978309  -0.004  -0.004188  -0.031987  -0.002773  3.95464  -0.004
C  C23  1  0.16665602  0.62260960  0.97221477  1  -0.04532  0.005118  3.725529  0.007  -0.03146  0.003103  3.962499  0.005  -0.032807  0.002814  3.978181  0.004  -0.004187  -0.03191  0.002773  3.954499  0.004
C  C24  1  0.01841525  0.36267520  0.03315818  1  -0.074334  0.008895  3.73483  0.012  -0.065585  0.005011  3.976086  0.007  -0.070735  0.004075  3.993564  0.006  -0.01054  -0.063477  0.006293  3.967074  0.009
C  C25  1  0.98158597  0.63732482  0.96683870  1  -0.074473  -0.008894  3.734819  -0.012  -0.065714  -0.005012  3.976086  -0.007  -0.070866  -0.004071  3.993565  -0.006  -0.01058  -0.063605  -0.006293  3.967074  -0.009
C  C26  1  0.65228800  0.25633027  0.06521490  1  0.644689  -0.005059  3.901516  -0.009  0.594753  -0.002891  4.207544  -0.006  0.631047  -0.002166  4.200701  -0.004  0.209209  0.569281  -0.00396  4.208781  -0.008
C  C27  1  0.34771135  0.74366864  0.93478704  1  0.644688  0.005069  3.901449  0.009  0.594789  0.002889  4.207431  0.006  0.631085  0.002161  4.200581  0.004  0.209251  0.569311  0.003959  4.208663  0.008
C  C28  1  0.04286598  0.21740835  0.06619905  1  0.662836  -0.005081  3.869217  -0.009  0.618288  -0.003402  4.168872  -0.006  0.658119  -0.002633  4.157393  -0.005  0.220628  0.588759  -0.004288  4.175503  -0.008
C  C29  1  0.95713472  0.78259052  0.93379975  1  0.662937  0.005089  3.869178  0.009  0.618362  0.003401  4.168849  0.006  0.658193  0.002624  4.157372  0.005  0.220629  0.588834  0.004289  4.175483  0.008
C  C30  1  0.87598846  0.27536612  0.45671163  1  0.003895  -0.00027  3.616815  0.0  -0.0579  -0.000377  3.874866  0.0  -0.053715  -0.000248  3.886923  0.0  -0.05576  -0.060974  -0.000555  3.866497  -0.001
C  C31  1  0.12401306  0.72463748  0.54329109  1  0.003779  0.000258  3.617067  0.0  -0.057891  0.000378  3.874964  0.0  -0.053704  0.00025  3.887022  0.0  -0.055749  -0.06097  0.000555  3.866599  0.001
C  C32  1  0.75068295  0.99045367  0.47339563  1  0.098435  -0.001949  3.772841  -0.003  0.088275  -0.001348  4.014843  -0.002  0.091798  -0.000868  4.036867  -0.001  0.091089  0.085513  -0.001743  4.000487  -0.002
C  C33  1  0.24931638  0.00954521  0.52660315  1  0.098387  0.001951  3.772772  0.003  0.088221  0.001348  4.014782  0.002  0.091743  0.000868  4.036806  0.001  0.091073  0.085459  0.001743  4.000423  0.002
C  C34  1  0.70181129  0.90441865  0.58564504  1  0.150198  0.000813  3.814086  0.001  0.151398  -0.001047  4.066561  -0.001  0.156438  -0.000716  4.089055  -0.001  0.085744  0.147839  -0.001069  4.050382  -0.001
C  C35  1  0.29818368  0.09557671  0.41435206  1  0.150171  -0.000813  3.81399  -0.001  0.151391  0.001048  4.066442  0.001  0.156429  0.000717  4.088938  0.001  0.085801  0.147829  0.001069  4.050257  0.001
C  C36  1  0.81753912  0.51387486  0.99405256  1  -0.082659  0.005339  3.698259  0.007  -0.115925  0.002363  3.951347  0.003  -0.114732  0.002109  3.966287  0.003  -0.076814  -0.117328  0.003579  3.94394  0.005
C  C37  1  0.18246349  0.48612520  0.00594963  1  -0.08271  -0.005337  3.698306  -0.007  -0.115978  -0.002361  3.951413  -0.003  -0.114786  -0.00211  3.966356  -0.003  -0.07682  -0.117381  -0.003578  3.944006  -0.005
C  C38  1  0.74419522  0.91959972  0.33069684  1  -0.125023  -0.000407  3.714889  0.0  -0.14867  -0.000263  3.973668  0.0  -0.150571  -0.000214  3.992457  0.0  -0.092999  -0.147634  -0.000493  3.961754  0.0
C  C39  1  0.25580628  0.08040386  0.66930272  1  -0.124941  0.000397  3.714854  0.0  -0.148592  0.000262  3.973608  0.0  -0.150495  0.000214  3.992408  0.0  -0.092987  -0.147557  0.000493  3.961687  0.0
C  C40  1  0.64781264  0.74085618  0.55646407  1  -0.144377  -0.00187  3.736655  -0.003  -0.166202  -0.000267  3.990464  -0.001  -0.168373  1.5e-05  4.008707  0.0  -0.095074  -0.164542  -0.000742  3.978192  -0.001
C  C41  1  0.35218395  0.25914270  0.44353256  1  -0.14445  0.001866  3.736591  0.003  -0.166277  0.000267  3.99041  0.001  -0.168447  -1.6e-05  4.008653  0.0  -0.095125  -0.16462  0.000743  3.97814  0.001
C  C42  1  0.78086138  0.15284262  0.67928313  1  0.222549  -0.000995  3.639349  -0.001  0.161101  -0.003357  3.919975  -0.004  0.180903  -0.002711  3.931421  -0.003  0.165106  0.148546  -0.00438  3.90991  -0.005
C  C43  1  0.21913796  0.84715628  0.32071776  1  0.22244  0.000984  3.639458  0.001  0.160994  0.003356  3.920092  0.004  0.18079  0.002709  3.931543  0.003  0.165049  0.148436  0.00438  3.910033  0.005
C  C44  1  0.95093866  0.43981017  0.54721196  1  -0.122939  3.6e-05  3.67643  0.0  -0.162388  1.1e-05  3.935856  0.0  -0.163672  1.3e-05  3.949965  0.0  -0.159861  -0.161696  -3.2e-05  3.926215  0.0
C  C45  1  0.04906315  0.56019110  0.45279251  1  -0.123169  -3.1e-05  3.676606  0.0  -0.162578  -1.1e-05  3.935891  0.0  -0.163867  -1.4e-05  3.950001  0.0  -0.159877  -0.161878  3.2e-05  3.926252  0.0
C  C46  1  0.64021259  0.66893738  0.41391951  1  -0.092087  0.000264  3.791217  0.001  -0.106165  -0.000308  4.045291  0.0  -0.108686  -0.000257  4.06835  0.0  -0.103634  -0.104874  -0.000179  4.029896  0.0
C  C47  1  0.35978455  0.33106267  0.58607731  1  -0.092057  -0.000261  3.791265  -0.001  -0.106147  0.000309  4.045329  0.0  -0.108669  0.000258  4.06839  0.0  -0.103621  -0.104857  0.000179  4.029939  0.0
C  C48  1  0.68640646  0.75654120  0.30310688  1  -0.070713  -0.000943  3.775747  -0.001  -0.087307  -9.8e-05  4.032342  0.0  -0.090342  7.4e-05  4.056855  0.0  -0.101005  -0.085423  -0.000445  4.017415  0.0
C  C49  1  0.31359175  0.24346120  0.69688927  1  -0.070717  0.000953  3.77582  0.001  -0.087312  9.8e-05  4.03241  0.0  -0.090349  -7.5e-05  4.056918  0.0  -0.100998  -0.085425  0.000445  4.017477  0.0
N  N50  1  0.72174632  0.01000910  0.71395724  1  -0.449982  -0.038935  3.273003  -0.058  -0.424191  -0.026472  3.605413  -0.032  -0.454919  -0.020742  3.616197  -0.023  -0.361666  -0.39865  -0.032115  3.594703  -0.04
N  N51  1  0.27825165  0.98998980  0.28604257  1  -0.449865  0.038935  3.273116  0.058  -0.424093  0.02647  3.60553  0.032  -0.454807  0.020738  3.616304  0.023  -0.361662  -0.39853  0.032113  3.594795  0.04
N  N52  1  0.80196141  0.14761002  0.53718157  1  -0.108086  -0.005375  3.499093  -0.009  -0.017926  -0.004178  3.716994  -0.007  -0.035074  -0.003115  3.74146  -0.005  -0.231578  -0.006646  -0.005396  3.700555  -0.008
N  N53  1  0.19803902  0.85239124  0.46282077  1  -0.108026  0.005383  3.499154  0.009  -0.017913  0.004178  3.717043  0.007  -0.035059  0.003116  3.741509  0.005  -0.231586  -0.006632  0.005396  3.70061  0.008
O  O54  1  0.89076144  0.09503182  0.06391472  1  -0.633011  -0.02322  2.148843  -0.034  -0.594135  -0.018086  2.426971  -0.021  -0.627107  -0.014921  2.411183  -0.016  -0.309327  -0.565983  -0.024695  2.43548  -0.032
O  O55  1  0.10923709  0.90496827  0.93608740  1  -0.633034  0.023219  2.148851  0.034  -0.594142  0.018085  2.426987  0.021  -0.627106  0.014925  2.411189  0.016  -0.3093  -0.565975  0.024695  2.435481  0.032
O  O56  1  0.54478327  0.14093936  0.96624442  1  -0.639781  0.027684  2.112607  0.045  -0.609915  0.016779  2.399582  0.026  -0.653315  0.011948  2.391005  0.018  -0.306124  -0.572001  0.022589  2.401874  0.036
O  O57  1  0.45521606  0.85905951  0.03375330  1  -0.639743  -0.027685  2.11266  -0.045  -0.609915  -0.016779  2.399663  -0.026  -0.653323  -0.011943  2.391087  -0.018  -0.306146  -0.572011  -0.022588  2.401967  -0.036
O  O58  1  0.60095240  0.27392807  0.19014980  1  -0.564845  0.020323  1.978647  0.036  -0.526877  0.015648  2.220034  0.027  -0.556821  0.011969  2.212311  0.02  -0.280009  -0.502418  0.019235  2.223391  0.032
O  O59  1  0.39904996  0.72606845  0.80985182  1  -0.564891  -0.020329  1.978544  -0.036  -0.526957  -0.015649  2.219961  -0.027  -0.556908  -0.011967  2.212228  -0.02  -0.280055  -0.502508  -0.019236  2.223326  -0.032
O  O60  1  0.21777223  0.22755133  0.09721860  1  -0.596506  0.030427  2.096225  0.051  -0.561998  0.021671  2.367731  0.032  -0.597149  0.017856  2.353805  0.025  -0.302643  -0.533647  0.028398  2.377902  0.044
O  O61  1  0.78222657  0.77244639  0.90278210  1  -0.596531  -0.030432  2.096207  -0.051  -0.562004  -0.021674  2.367713  -0.032  -0.597163  -0.017853  2.3538  -0.025  -0.302635  -0.533667  -0.028398  2.3779  -0.044
