# generated using pymatgen
data_CuH10C17O5F6
_symmetry_space_group_name_H-M   'P 1'
_cell_length_a   6.92649338
_cell_length_b   12.68534938
_cell_length_c   20.89735437
_cell_angle_alpha   93.29592006
_cell_angle_beta   89.99964296
_cell_angle_gamma   90.00053922
_symmetry_Int_Tables_number   1
_chemical_formula_structural   CuH10C17O5F6
_chemical_formula_sum   'Cu4 H40 C68 O20 F24'
_cell_volume   1833.10865744
_cell_formula_units_Z   4
loop_
 _symmetry_equiv_pos_site_id
 _symmetry_equiv_pos_as_xyz
  1  'x, y, z'
loop_
 _atom_site_type_symbol
 _atom_site_label
 _atom_site_symmetry_multiplicity
 _atom_site_fract_x
 _atom_site_fract_y
 _atom_site_fract_z
 _atom_site_occupancy
 _atom_site_pbe_bader_charge
 _atom_site_pbe_bader_spin_density
 _atom_site_pbe_cm5_charge
 _atom_site_pbe_ddec_charge
 _atom_site_pbe_ddec_spin_density
 _atom_site_pbe_ddec_sum_bond_order
 _atom_site_pbe_magmom
Cu  Cu0  1  0.15079427  0.45282489  0.01937140  1  1.093604  0.560038  0.678518  0.843744  0.715204  2.292602  0.557
Cu  Cu1  1  0.15076479  0.04717202  0.48063301  1  1.093442  -0.560029  0.678486  0.843689  -0.715228  2.292459  -0.557
Cu  Cu2  1  0.84921443  0.54717232  0.98063379  1  1.093085  -0.560015  0.678397  0.84368  -0.715193  2.291992  -0.557
Cu  Cu3  1  0.84923959  0.95283317  0.51936388  1  1.093097  0.560027  0.678469  0.843612  0.715226  2.292413  0.557
H  H4  1  0.98062725  0.36819580  0.20790035  1  0.148243  0.000319  0.103094  0.114317  0.000287  1.008481  0.0
H  H5  1  0.98061722  0.13180678  0.29210783  1  0.14634  -0.000318  0.103117  0.114308  -0.000287  1.008464  0.0
H  H6  1  0.01937135  0.63182193  0.79210611  1  0.14704  -0.000318  0.103059  0.11429  -0.000287  1.008438  0.0
H  H7  1  0.01939293  0.86818894  0.70788774  1  0.145688  0.000318  0.103105  0.114338  0.000287  1.008473  0.0
H  H8  1  0.83130375  0.34547805  0.31297379  1  0.080872  -0.000163  0.091572  0.099574  -8.3e-05  1.057305  0.0
H  H9  1  0.83130331  0.15452537  0.18703377  1  0.080748  0.000163  0.091518  0.099425  8.3e-05  1.057471  0.0
H  H10  1  0.16869773  0.65453259  0.68703049  1  0.081037  0.000163  0.091565  0.099594  8.3e-05  1.057283  0.0
H  H11  1  0.16870973  0.84547350  0.81296287  1  0.080805  -0.000163  0.091518  0.099427  -8.3e-05  1.057382  0.0
H  H12  1  0.48189929  0.53996238  0.14902220  1  0.12204  -0.000215  0.108534  0.118522  -0.000174  1.009135  0.0
H  H13  1  0.48188220  0.96003075  0.35098424  1  0.121864  0.000215  0.108519  0.118525  0.000174  1.009232  0.0
H  H14  1  0.51808777  0.46003722  0.85098117  1  0.122155  0.000215  0.108479  0.118436  0.000175  1.00928  0.0
H  H15  1  0.51813517  0.03996733  0.64901237  1  0.122023  -0.000215  0.108555  0.118585  -0.000174  1.00925  0.0
H  H16  1  0.33534057  0.52303341  0.25517580  1  0.089647  0.000208  0.104721  0.112907  0.00011  0.992961  0.0
H  H17  1  0.33534599  0.97695744  0.24482752  1  0.089582  -0.000209  0.104689  0.112933  -0.00011  0.992866  0.0
H  H18  1  0.66464215  0.47696066  0.74482736  1  0.089695  -0.000209  0.104718  0.112977  -0.00011  0.992954  0.0
H  H19  1  0.66466271  0.02304459  0.75516925  1  0.089472  0.000208  0.104654  0.112839  0.00011  0.992898  0.0
H  H20  1  0.10224657  0.46150810  0.41388942  1  0.102503  -0.000193  0.092397  0.101665  -0.000104  1.055111  0.0
H  H21  1  0.10224894  0.03849804  0.08611593  1  0.102519  0.000193  0.092341  0.101625  0.000104  1.05519  0.0
H  H22  1  0.89773615  0.53848995  0.58611102  1  0.102676  0.000193  0.092353  0.10171  0.000104  1.055032  0.0
H  H23  1  0.89775688  0.96150795  0.91388051  1  0.102781  -0.000193  0.092355  0.101771  -0.000104  1.055156  0.0
H  H24  1  0.96604840  0.63281266  0.45184147  1  0.114689  0.000328  0.10537  0.118745  0.00027  0.995846  0.0
H  H25  1  0.96603690  0.86719398  0.04816114  1  0.114631  -0.000328  0.105393  0.118753  -0.00027  0.995899  0.0
H  H26  1  0.03393432  0.36718700  0.54815568  1  0.114851  -0.000327  0.105366  0.118746  -0.00027  0.995802  0.0
H  H27  1  0.03395881  0.13280959  0.95183951  1  0.114641  0.000328  0.105404  0.118774  0.00027  0.995806  0.0
H  H28  1  0.61789181  0.61877620  0.35317137  1  0.091211  0.000191  0.104897  0.112984  0.0001  0.995142  0.0
H  H29  1  0.61788301  0.88122477  0.14682888  1  0.091291  -0.000191  0.104911  0.112987  -0.0001  0.99516  0.0
H  H30  1  0.38209813  0.38122577  0.64683161  1  0.091592  -0.000191  0.104895  0.113063  -0.0001  0.995075  0.0
H  H31  1  0.38211993  0.11877252  0.85316770  1  0.091278  0.000191  0.10491  0.112985  0.0001  0.995097  0.0
H  H32  1  0.48060409  0.79002371  0.39264257  1  0.085061  -0.000301  0.107463  0.113649  -0.000254  1.010274  0.0
H  H33  1  0.48058445  0.70997975  0.10735614  1  0.08482  0.000301  0.107481  0.113614  0.000254  1.010323  0.0
H  H34  1  0.51937574  0.20997431  0.60735978  1  0.085004  0.000301  0.107443  0.113608  0.000254  1.010266  0.0
H  H35  1  0.51940982  0.29001986  0.89264580  1  0.084731  -0.0003  0.107477  0.113657  -0.000254  1.010292  0.0
H  H36  1  0.53037835  0.42653047  0.04752262  1  0.616113  -6.5e-05  0.292368  0.386117  -0.000101  0.951612  0.0
H  H37  1  0.53037583  0.07347465  0.45248180  1  0.616218  6.5e-05  0.292458  0.386247  0.000102  0.95144  0.0
H  H38  1  0.46962891  0.57346361  0.95247958  1  0.616091  6.5e-05  0.29237  0.386105  0.000101  0.951623  0.0
H  H39  1  0.46962565  0.92652185  0.54751570  1  0.61631  -6.4e-05  0.292476  0.386161  -0.000102  0.951546  0.0
H  H40  1  0.46194062  0.32467741  0.00889996  1  0.596704  -9.5e-05  0.307264  0.38985  -6.9e-05  0.909265  0.0
H  H41  1  0.46194489  0.17532422  0.49110304  1  0.59685  9.5e-05  0.307273  0.389817  6.9e-05  0.909387  0.0
H  H42  1  0.53805076  0.67531826  0.99110087  1  0.596932  9.5e-05  0.307274  0.389824  6.9e-05  0.909342  0.0
H  H43  1  0.53806382  0.82466913  0.50889387  1  0.596645  -9.5e-05  0.30726  0.389742  -6.9e-05  0.909344  0.0
C  C44  1  0.83676405  0.46814710  0.10834623  1  1.519572  -0.000925  0.219246  0.576912  -0.000534  4.151845  -0.001
C  C45  1  0.83674175  0.03184687  0.39166191  1  1.518361  0.00093  0.219478  0.576867  0.000535  4.15188  0.001
C  C46  1  0.16324322  0.53185640  0.89166207  1  1.518203  0.000933  0.219389  0.576757  0.000537  4.151788  0.001
C  C47  1  0.16327273  0.96814965  0.60833321  1  1.518592  -0.000929  0.219404  0.57698  -0.000535  4.152046  -0.001
C  C48  1  0.74324849  0.45632115  0.17193810  1  0.000124  0.001019  -0.016717  -0.030551  0.00069  3.960691  0.001
C  C49  1  0.74323338  0.04367156  0.32806970  1  0.000397  -0.001018  -0.016718  -0.030586  -0.000689  3.96076  -0.001
C  C50  1  0.25674867  0.54367841  0.82806861  1  0.000478  -0.001018  -0.016763  -0.030656  -0.000689  3.960694  -0.001
C  C51  1  0.25678110  0.95632181  0.67192433  1  4.7e-05  0.001018  -0.016564  -0.030384  0.000689  3.960358  0.001
C  C52  1  0.83896990  0.40177323  0.21876388  1  -0.122806  -0.001234  -0.081613  -0.071658  -0.000756  3.940687  -0.001
C  C53  1  0.83895949  0.09822470  0.28124441  1  -0.120724  0.001233  -0.081687  -0.071667  0.000756  3.940384  0.001
C  C54  1  0.16102148  0.59822948  0.78124392  1  -0.120703  0.001234  -0.081569  -0.071595  0.000756  3.940395  0.001
C  C55  1  0.16104344  0.90177264  0.71874835  1  -0.119505  -0.001233  -0.081672  -0.071737  -0.000756  3.940125  -0.001
C  C56  1  0.75396374  0.38996103  0.27834277  1  0.042163  -0.000494  -0.098727  -0.139655  -0.000377  3.981307  0.0
C  C57  1  0.75396477  0.11003649  0.22166424  1  0.042403  0.000493  -0.098593  -0.139295  0.000377  3.981211  0.0
C  C58  1  0.24602331  0.61004250  0.72166314  1  0.040886  0.000494  -0.098776  -0.139679  0.000377  3.98114  0.0
C  C59  1  0.24604249  0.88996476  0.77833106  1  0.042445  -0.000494  -0.098686  -0.139411  -0.000377  3.980739  0.0
C  C60  1  0.56012288  0.49918655  0.18547336  1  -0.01468  0.00086  -0.078829  -0.070262  0.000552  3.927284  0.001
C  C61  1  0.56011018  0.00080530  0.31453000  1  -0.014981  -0.000861  -0.07881  -0.070254  -0.000553  3.927468  -0.001
C  C62  1  0.43986706  0.50080675  0.81452737  1  -0.014598  -0.000861  -0.078764  -0.070064  -0.000553  3.927298  -0.001
C  C63  1  0.43990430  0.99919594  0.68546721  1  -0.015167  0.000862  -0.078897  -0.07045  0.000553  3.927491  0.001
C  C64  1  0.47710908  0.48870732  0.24532997  1  -0.059669  0.000801  -0.088529  -0.121105  0.000551  3.960139  0.001
C  C65  1  0.47711068  0.01128966  0.25467185  1  -0.059617  -0.000801  -0.088532  -0.121117  -0.000551  3.960163  -0.001
C  C66  1  0.52287942  0.51128914  0.75467088  1  -0.059942  -0.000801  -0.088537  -0.121255  -0.000551  3.960132  -0.001
C  C67  1  0.52290236  0.98871239  0.74532348  1  -0.05966  0.000801  -0.088427  -0.120879  0.000551  3.960098  0.001
C  C68  1  0.57291566  0.43428384  0.29267115  1  -0.032028  -0.000312  -0.014362  0.085474  -0.000201  3.939717  0.0
C  C69  1  0.57291476  0.06571754  0.20733400  1  -0.032077  0.000312  -0.014388  0.085269  0.000201  3.93999  0.0
C  C70  1  0.42707139  0.56572050  0.70733193  1  -0.0322  0.000312  -0.01434  0.085485  0.000201  3.939582  0.0
C  C71  1  0.42709539  0.93427898  0.79266160  1  -0.032052  -0.000311  -0.014457  0.085246  -0.000201  3.939909  0.0
C  C72  1  0.46847105  0.42241690  0.35704864  1  0.047179  3e-06  -0.010021  -0.274026  0.0  3.848884  0.0
C  C73  1  0.46847734  0.07758633  0.14295535  1  0.047079  -3e-06  -0.010031  -0.274161  -0.0  3.848976  0.0
C  C74  1  0.53151889  0.57758507  0.64295434  1  0.047103  -3e-06  -0.010047  -0.274233  -0.0  3.849026  0.0
C  C75  1  0.53152992  0.92241256  0.85703938  1  0.046462  3e-06  -0.009994  -0.273982  0.0  3.848627  0.0
C  C76  1  0.32164715  0.32983954  0.34567356  1  1.730592  -1.9e-05  0.30368  0.67411  -1.7e-05  3.973686  0.0
C  C77  1  0.32165193  0.17015900  0.15433152  1  1.730078  1.9e-05  0.303769  0.674587  1.7e-05  3.973141  0.0
C  C78  1  0.67834712  0.67016005  0.65433077  1  1.730089  1.9e-05  0.303694  0.674473  1.7e-05  3.973198  0.0
C  C79  1  0.67835822  0.82983909  0.84566414  1  1.730118  -1.9e-05  0.303761  0.6746  -1.7e-05  3.973233  0.0
C  C80  1  0.60759407  0.39363206  0.41205827  1  1.704867  -0.0  0.304813  0.67836  -1e-06  3.959818  0.0
C  C81  1  0.60759612  0.10636871  0.08794535  1  1.704691  0.0  0.304744  0.678276  1e-06  3.959749  0.0
C  C82  1  0.39240886  0.60637071  0.58794379  1  1.704941  0.0  0.304845  0.678463  1e-06  3.959415  0.0
C  C83  1  0.39241547  0.89362623  0.91204923  1  1.705373  -0.0  0.304747  0.678111  -1e-06  3.959699  0.0
C  C84  1  0.37033838  0.52703909  0.38003956  1  -0.006384  3.2e-05  -0.014124  0.086582  2.3e-05  3.934196  0.0
C  C85  1  0.37033743  0.97296617  0.11996232  1  -0.006433  -3.3e-05  -0.014144  0.086586  -2.3e-05  3.93415  0.0
C  C86  1  0.62965012  0.47296050  0.61996429  1  -0.131469  -3.3e-05  -0.014052  0.086747  -2.3e-05  3.933837  0.0
C  C87  1  0.62966262  0.02703666  0.88003352  1  -0.006335  3.2e-05  -0.014066  0.086622  2.3e-05  3.934156  0.0
C  C88  1  0.18661027  0.53235430  0.40804718  1  -0.071729  -0.00069  -0.097626  -0.136927  -0.000477  3.977383  -0.001
C  C89  1  0.18660832  0.96764925  0.09195501  1  -0.071491  0.00069  -0.097544  -0.136888  0.000477  3.977332  0.001
C  C90  1  0.81337534  0.46764531  0.59195427  1  -0.071376  0.00069  -0.097684  -0.137179  0.000477  3.977365  0.001
C  C91  1  0.81339028  0.03235042  0.90804166  1  -0.071704  -0.00069  -0.097609  -0.13719  -0.000477  3.977571  -0.001
C  C92  1  0.10861471  0.62909413  0.42983799  1  0.032049  -0.00104  -0.08338  -0.078249  -0.000664  3.950158  -0.001
C  C93  1  0.10860430  0.87091062  0.07016345  1  0.031661  0.001041  -0.083432  -0.078339  0.000664  3.950114  0.001
C  C94  1  0.89136945  0.37090631  0.57016063  1  0.031607  0.00104  -0.083283  -0.078094  0.000664  3.950059  0.001
C  C95  1  0.89139574  0.12908823  0.92983606  1  0.031523  -0.001041  -0.083419  -0.078243  -0.000664  3.950055  -0.001
C  C96  1  0.47474559  0.62106098  0.37477177  1  -0.080649  0.000638  -0.089632  -0.120444  0.000463  3.967402  0.001
C  C97  1  0.47474150  0.87894404  0.12522749  1  -0.080671  -0.000639  -0.089644  -0.120478  -0.000463  3.967317  -0.001
C  C98  1  0.52524290  0.37893548  0.62523004  1  0.044115  -0.000639  -0.08968  -0.120573  -0.000463  3.967123  -0.001
C  C99  1  0.52526577  0.12106351  0.87477044  1  -0.080596  0.000638  -0.089604  -0.120329  0.000463  3.967208  0.001
C  C100  1  0.39777220  0.71765912  0.39683132  1  -0.050561  0.001003  -0.085027  -0.092433  0.000608  3.965103  0.001
C  C101  1  0.39775820  0.78234710  0.10316671  1  -0.049981  -0.001003  -0.084969  -0.0923  -0.000608  3.965047  -0.001
C  C102  1  0.60221774  0.28233970  0.60317058  1  -0.050634  -0.001003  -0.085038  -0.092449  -0.000608  3.965141  -0.001
C  C103  1  0.60224617  0.21765648  0.89683299  1  -0.050247  0.001003  -0.08502  -0.092494  0.000608  3.965155  0.001
C  C104  1  0.21352723  0.72240357  0.42472459  1  -0.010023  -0.000407  -0.019208  -0.032774  -0.000307  3.978606  0.0
C  C105  1  0.21351224  0.77760092  0.07527519  1  -0.010065  0.000407  -0.019297  -0.032754  0.000307  3.978364  0.0
C  C106  1  0.78645982  0.27759606  0.57527495  1  -0.010109  0.000407  -0.019185  -0.032707  0.000307  3.978631  0.0
C  C107  1  0.78648925  0.22239789  0.92472719  1  -0.009473  -0.000405  -0.019305  -0.03276  -0.000306  3.978542  0.0
C  C108  1  0.13264278  0.82542901  0.45086255  1  1.547487  -6e-06  0.212883  0.568426  2.9e-05  4.180376  0.0
C  C109  1  0.13262797  0.67457506  0.04913882  1  1.547195  7e-06  0.21305  0.568632  -2.6e-05  4.179992  0.0
C  C110  1  0.86735149  0.17457062  0.54913699  1  1.547527  5e-06  0.212724  0.568229  -2.9e-05  4.180454  0.0
C  C111  1  0.86737352  0.32542212  0.95086876  1  1.547365  -1e-06  0.213083  0.568674  3e-05  4.179745  0.0
O  O112  1  0.00920800  0.43571238  0.10101198  1  -1.092412  0.087512  -0.301117  -0.49524  0.056554  2.336382  0.079
O  O113  1  0.00918757  0.06428225  0.39899120  1  -1.092399  -0.08752  -0.301243  -0.495238  -0.056558  2.336048  -0.079
O  O114  1  0.99080648  0.56430382  0.89898964  1  -1.092375  -0.087519  -0.301119  -0.495091  -0.056558  2.336125  -0.079
O  O115  1  0.99083124  0.93571031  0.60100424  1  -1.092441  0.087507  -0.301177  -0.495274  0.05655  2.336195  0.079
O  O116  1  0.42301338  0.37530743  0.04320378  1  -1.175467  -0.001782  -0.589933  -0.742779  -0.000983  2.09657  -0.001
O  O117  1  0.42301455  0.12470034  0.45679809  1  -1.175636  0.001781  -0.590044  -0.742887  0.000983  2.096404  0.001
O  O118  1  0.57698378  0.62469458  0.95679585  1  -1.175658  0.001781  -0.589942  -0.742738  0.000982  2.096543  0.001
O  O119  1  0.57699127  0.87529855  0.54319663  1  -1.175555  -0.001782  -0.590066  -0.742741  -0.000983  2.09633  -0.001
O  O120  1  0.73448507  0.51102455  0.06546558  1  -1.12433  -0.078413  -0.314265  -0.55706  -0.050833  2.415051  -0.071
O  O121  1  0.73447267  0.98896979  0.43454613  1  -1.123436  0.078415  -0.314356  -0.55698  0.050838  2.415428  0.071
O  O122  1  0.26550054  0.48896943  0.93454666  1  -1.123259  0.078408  -0.314386  -0.557023  0.050835  2.415226  0.071
O  O123  1  0.26553748  0.01103541  0.56545076  1  -1.123397  -0.078421  -0.314351  -0.557038  -0.050841  2.41547  -0.071
O  O124  1  0.96727408  0.82373736  0.47757452  1  -1.104365  0.082361  -0.31286  -0.514406  0.053243  2.337791  0.074
O  O125  1  0.96726124  0.67627008  0.02242764  1  -1.104132  -0.082358  -0.312917  -0.514497  -0.053241  2.33772  -0.074
O  O126  1  0.03271009  0.17626076  0.52241922  1  -1.104384  -0.082349  -0.31283  -0.514407  -0.053235  2.33782  -0.074
O  O127  1  0.03273159  0.32374204  0.97758722  1  -1.104351  0.082339  -0.312986  -0.514563  0.053228  2.337893  0.074
O  O128  1  0.23898016  0.90674326  0.44508252  1  -1.106368  -0.088939  -0.313043  -0.529116  -0.057445  2.383608  -0.08
O  O129  1  0.23896674  0.59325981  0.05491428  1  -1.106513  0.088931  -0.3131  -0.529262  0.05744  2.38348  0.08
O  O130  1  0.76101122  0.09325714  0.55491896  1  -1.106371  0.088946  -0.312938  -0.528991  0.057449  2.383584  0.08
O  O131  1  0.76102464  0.40673195  0.94508257  1  -1.106443  -0.088937  -0.313129  -0.529282  -0.057441  2.382959  -0.08
F  F132  1  0.40857519  0.24185557  0.31992435  1  -0.614711  -3e-06  -0.088588  -0.19093  -5e-06  1.403342  0.0
F  F133  1  0.40857665  0.25814500  0.18007919  1  -0.614719  3e-06  -0.088591  -0.19101  4e-06  1.403251  0.0
F  F134  1  0.59142197  0.75814481  0.68008001  1  -0.614348  3e-06  -0.088528  -0.190948  4e-06  1.403345  0.0
F  F135  1  0.59143061  0.74185387  0.81991745  1  -0.614604  -3e-06  -0.088595  -0.191038  -4e-06  1.403323  0.0
F  F136  1  0.18222226  0.35736857  0.30339921  1  -0.625503  -2e-06  -0.085331  -0.200292  -1.4e-05  1.383367  0.0
F  F137  1  0.18222721  0.14262848  0.19660610  1  -0.62543  2e-06  -0.085316  -0.200388  1.4e-05  1.383354  0.0
F  F138  1  0.81777201  0.64263024  0.69660366  1  -0.625511  2e-06  -0.085341  -0.200388  1.4e-05  1.383307  0.0
F  F139  1  0.81778727  0.85736960  0.80339051  1  -0.625626  -2e-06  -0.085316  -0.200412  -1.4e-05  1.383427  0.0
F  F140  1  0.22870183  0.30256985  0.39957705  1  -0.611729  -4.2e-05  -0.086566  -0.18879  -2.5e-05  1.371268  0.0
F  F141  1  0.22870088  0.19741875  0.10042783  1  -0.611684  4.2e-05  -0.086646  -0.188956  2.5e-05  1.371102  0.0
F  F142  1  0.77130254  0.69742817  0.60042673  1  -0.611563  4.2e-05  -0.086593  -0.188934  2.5e-05  1.371145  0.0
F  F143  1  0.77130494  0.80257855  0.89956827  1  -0.611613  -4.2e-05  -0.086657  -0.188985  -2.5e-05  1.371244  0.0
F  F144  1  0.51299010  0.39335240  0.46901085  1  -0.623661  6e-06  -0.09337  -0.202674  -1e-06  1.388081  0.0
F  F145  1  0.51300046  0.10665105  0.03099354  1  -0.623454  -6e-06  -0.093293  -0.202545  1e-06  1.388167  0.0
F  F146  1  0.48700272  0.60664800  0.53099112  1  -0.62355  -6e-06  -0.093317  -0.202601  1e-06  1.388057  0.0
F  F147  1  0.48700680  0.89334548  0.96900062  1  -0.623771  6e-06  -0.093339  -0.202557  -1e-06  1.388081  0.0
F  F148  1  0.69344630  0.29735163  0.40289176  1  -0.617729  1.9e-05  -0.089242  -0.198947  1.3e-05  1.3617  0.0
F  F149  1  0.69346426  0.20265112  0.09711462  1  -0.617891  -1.8e-05  -0.089243  -0.198966  -1.2e-05  1.3615  0.0
F  F150  1  0.30654653  0.70265113  0.59711077  1  -0.617837  -1.8e-05  -0.089251  -0.199016  -1.2e-05  1.36154  0.0
F  F151  1  0.30655166  0.79734226  0.90287894  1  -0.617977  1.9e-05  -0.089187  -0.19888  1.3e-05  1.361532  0.0
F  F152  1  0.75250345  0.46629378  0.41934667  1  -0.619287  1e-06  -0.084647  -0.193552  -9e-06  1.361546  0.0
F  F153  1  0.75250439  0.03370694  0.08065520  1  -0.619157  -1e-06  -0.084629  -0.193531  9e-06  1.361543  0.0
F  F154  1  0.24749082  0.53370900  0.58065442  1  -0.619303  -1e-06  -0.084717  -0.193605  9e-06  1.361368  0.0
F  F155  1  0.24750431  0.96628957  0.91934135  1  -0.619115  1e-06  -0.084675  -0.193567  -9e-06  1.361554  0.0
