# generated using pymatgen
data_CoH21C30N3O4
_symmetry_space_group_name_H-M   'P 1'
_cell_length_a   11.18561709
_cell_length_b   15.16923415
_cell_length_c   18.16223679
_cell_angle_alpha   101.69753669
_cell_angle_beta   89.56193019
_cell_angle_gamma   111.16875739
_symmetry_Int_Tables_number   1
_chemical_formula_structural   CoH21C30N3O4
_chemical_formula_sum   'Co4 H84 C120 N12 O16'
_cell_volume   2806.81883932
_cell_formula_units_Z   4
loop_
 _symmetry_equiv_pos_site_id
 _symmetry_equiv_pos_as_xyz
  1  'x, y, z'
loop_
 _atom_site_type_symbol
 _atom_site_label
 _atom_site_symmetry_multiplicity
 _atom_site_fract_x
 _atom_site_fract_y
 _atom_site_fract_z
 _atom_site_occupancy
 _atom_site_pbe_bader_charge
 _atom_site_pbe_bader_spin_density
 _atom_site_pbe_cm5_charge
 _atom_site_pbe_ddec_charge
 _atom_site_pbe_ddec_spin_density
 _atom_site_pbe_ddec_sum_bond_order
 _atom_site_pbe_magmom
Co  Co0  1  0.55889292  0.56762848  0.60949451  1  1.28402  2.591417  0.686959  0.875303  2.856605  2.519557  2.567
Co  Co1  1  0.98731086  0.42839163  0.89065301  1  1.282351  2.595434  0.683341  0.871221  2.861984  2.50622  2.571
Co  Co2  1  0.44304153  0.43405985  0.38605455  1  1.151325  -1.002167  0.62649  0.700759  -1.218903  2.762492  -0.994
Co  Co3  1  0.01266624  0.57158157  0.10763555  1  1.292735  2.592167  0.683386  0.871021  2.856632  2.511808  2.569
H  H4  1  0.94184672  0.22025404  0.93579484  1  0.077556  1.3e-05  0.10566  0.111919  -7.8e-05  1.029832  0.0
H  H5  1  0.72168952  0.77749222  0.56399076  1  0.09994  2.9e-05  0.106479  0.113284  -6.2e-05  1.030333  0.0
H  H6  1  0.05765422  0.77827765  0.06389289  1  0.102414  -1e-05  0.105523  0.110936  -8.5e-05  1.033758  0.0
H  H7  1  0.27877621  0.22305568  0.44057877  1  0.09713  9.1e-05  0.104368  0.11005  7.2e-05  1.030204  0.0
H  H8  1  0.83650145  0.04523569  0.92482424  1  0.070894  0.000134  0.104493  0.116069  5.7e-05  1.010721  0.0
H  H9  1  0.79084643  0.95234847  0.57400591  1  0.097327  7e-06  0.104685  0.116442  -5e-06  1.009321  0.0
H  H10  1  0.16401868  0.95335158  0.07655654  1  0.075988  0.000141  0.103866  0.114911  5.9e-05  1.01202  0.0
H  H11  1  0.20902829  0.04690142  0.42733172  1  0.064041  0.000147  0.102816  0.113915  6.4e-05  1.011967  0.0
H  H12  1  0.65394798  0.09667791  0.13101393  1  0.088947  9.3e-05  0.098663  0.104752  3.4e-05  1.043213  0.0
H  H13  1  0.55755432  0.90170893  0.37022256  1  0.081687  6.8e-05  0.098984  0.104761  2e-05  1.043809  0.0
H  H14  1  0.34835242  0.90430278  0.87058601  1  0.078542  9.8e-05  0.09954  0.10532  3.8e-05  1.04378  0.0
H  H15  1  0.44093482  0.09218638  0.63052773  1  0.083398  -2.8e-05  0.098416  0.103789  -9e-06  1.044535  0.0
H  H16  1  0.77392448  0.27335248  0.14589780  1  0.085284  0.000323  0.101872  0.104535  0.00013  1.004626  0.0
H  H17  1  0.50055982  0.72521170  0.35624824  1  0.078169  -6.9e-05  0.102397  0.105092  -2.4e-05  1.003801  0.0
H  H18  1  0.22709530  0.72763945  0.85392313  1  0.09134  0.000322  0.102719  0.105354  0.000128  1.004219  0.0
H  H19  1  0.49808981  0.26966984  0.64729730  1  0.078974  0.000337  0.101657  0.105058  0.000144  1.006412  0.0
H  H20  1  0.61538066  0.98832151  0.87906012  1  0.090017  5.7e-05  0.102127  0.11072  2.5e-05  1.032196  0.0
H  H21  1  0.62781137  0.01171284  0.62175224  1  0.090769  4.8e-05  0.102715  0.111588  2e-05  1.028166  0.0
H  H22  1  0.38144847  0.01342807  0.12519602  1  0.072151  -3e-05  0.102878  0.112051  -1.5e-05  1.028811  0.0
H  H23  1  0.37078704  0.98685901  0.37832990  1  0.067203  5.8e-05  0.101593  0.109758  2.2e-05  1.031058  0.0
H  H24  1  0.59463669  0.87383759  0.75687042  1  0.10845  0.000422  0.104106  0.107664  0.000252  1.013695  0.0
H  H25  1  0.72130168  0.12561345  0.74343154  1  0.0667  0.000451  0.104407  0.108028  0.000264  1.013967  0.0
H  H26  1  0.40016472  0.12934332  0.24599619  1  0.089055  1.4e-05  0.104158  0.107207  1.3e-05  1.012054  0.0
H  H27  1  0.27777909  0.87371378  0.25630187  1  0.068433  0.000446  0.103581  0.107268  0.000263  1.015459  0.0
H  H28  1  0.64373643  0.66701884  0.87229100  1  0.064068  0.000464  0.101007  0.100722  0.000244  1.026541  0.0
H  H29  1  0.97422272  0.33048971  0.62579337  1  0.080207  0.000458  0.101609  0.101373  0.000242  1.024388  0.0
H  H30  1  0.35441871  0.33339567  0.12588462  1  0.102069  -0.000408  0.101964  0.101743  -0.000273  1.026158  0.0
H  H31  1  0.02450265  0.66761057  0.37284286  1  0.089776  0.000421  0.10055  0.099638  0.000223  1.028853  0.0
H  H32  1  0.67326061  0.78417188  0.99468270  1  0.060569  0.00014  0.096885  0.098249  7.1e-05  1.053058  0.0
H  H33  1  0.88586491  0.21431550  0.50376761  1  0.049352  7.8e-05  0.097216  0.099197  3.3e-05  1.047133  0.0
H  H34  1  0.32721457  0.21470946  0.00497721  1  0.064322  9.7e-05  0.098221  0.100218  5.1e-05  1.050325  0.0
H  H35  1  0.11231750  0.78288522  0.49506894  1  0.057894  0.000151  0.097401  0.100023  7.4e-05  1.049974  0.0
H  H36  1  0.79746694  0.95841708  0.13853188  1  0.045743  -1.4e-05  0.106719  0.115459  -9e-06  0.985787  0.0
H  H37  1  0.83849078  0.04003738  0.36043701  1  0.081359  1.1e-05  0.107279  0.116516  6e-06  0.983605  0.0
H  H38  1  0.20317173  0.04053572  0.86439833  1  0.099757  -1.1e-05  0.107242  0.116246  -7e-06  0.98546  0.0
H  H39  1  0.15863513  0.95688487  0.63877394  1  0.056581  -1.3e-05  0.106937  0.115892  -7e-06  0.985978  0.0
H  H40  1  0.70450128  0.88143426  0.24575599  1  0.06355  -9e-06  0.100697  0.097538  -8e-06  1.002153  0.0
H  H41  1  0.82205185  0.11769981  0.25386648  1  0.057185  8e-06  0.101484  0.098306  5e-06  1.001016  0.0
H  H42  1  0.29407760  0.11674526  0.75644166  1  0.063398  -8e-06  0.101964  0.09938  -5e-06  0.999673  0.0
H  H43  1  0.17570064  0.88101680  0.74640538  1  0.077293  -4e-06  0.101257  0.098463  -3e-06  1.000496  0.0
H  H44  1  0.46753170  0.79834979  0.24597876  1  0.059629  -1.6e-05  0.098439  0.095966  -2.6e-05  1.017558  0.0
H  H45  1  0.66682945  0.20127117  0.25519217  1  0.065168  7e-06  0.099081  0.096832  3e-06  1.016626  0.0
H  H46  1  0.53069494  0.20022841  0.75516359  1  0.080632  -1.2e-05  0.099381  0.096898  -2.4e-05  1.017837  0.0
H  H47  1  0.33164034  0.79808870  0.74605250  1  0.05624  -2.2e-05  0.098821  0.095773  -3.2e-05  1.018087  0.0
H  H48  1  0.32365217  0.79096422  0.13929324  1  0.14514  6.2e-05  0.101744  0.112152  -4.8e-05  1.037555  0.0
H  H49  1  0.52865061  0.20791896  0.36274975  1  0.115024  7e-06  0.101557  0.106202  3.6e-05  1.029852  0.0
H  H50  1  0.67637652  0.20888132  0.86139325  1  0.109632  6.5e-05  0.101781  0.111836  -4.3e-05  1.037403  0.0
H  H51  1  0.46927063  0.78997737  0.63870448  1  0.132969  7e-05  0.101492  0.111783  -4.9e-05  1.037065  0.0
H  H52  1  0.41772604  0.86423615  0.03096813  1  0.081181  -9e-06  0.099457  0.106865  -8e-06  1.045008  0.0
H  H53  1  0.54979079  0.13397803  0.47024376  1  0.110422  -1.2e-05  0.100394  0.108089  -1.1e-05  1.047638  0.0
H  H54  1  0.58430631  0.13635809  0.97047659  1  0.094847  -5e-06  0.099562  0.106963  -4e-06  1.04574  0.0
H  H55  1  0.44739879  0.86227153  0.53003906  1  0.086057  8e-06  0.099208  0.106468  3e-06  1.047587  0.0
H  H56  1  0.38665037  0.62329216  0.51210121  1  0.089807  0.001836  0.11768  0.081433  0.0006  1.039549  0.001
H  H57  1  0.76077332  0.37746953  0.99004788  1  0.071668  0.001588  0.117864  0.081707  0.000334  1.034532  0.001
H  H58  1  0.60596319  0.37442180  0.48198870  1  0.115482  -0.000202  0.12239  0.091613  -0.000161  1.034586  0.0
H  H59  1  0.23939566  0.62354576  0.00827093  1  0.106611  0.001602  0.117898  0.08212  0.000331  1.036672  0.001
H  H60  1  0.16882950  0.62531670  0.51251721  1  0.066134  0.000972  0.104931  0.108616  0.000441  1.020889  0.0
H  H61  1  0.54038681  0.37491705  0.98935051  1  0.080951  0.000881  0.105152  0.109279  0.000398  1.020644  0.0
H  H62  1  0.82202262  0.37167063  0.48431566  1  0.076266  9e-05  0.106669  0.112467  -4e-06  1.011699  0.0
H  H63  1  0.46001285  0.62663143  0.00883984  1  0.0797  0.000876  0.105465  0.109546  0.000393  1.019922  0.0
H  H64  1  0.11411262  0.49534946  0.70781899  1  0.140643  0.000823  0.110441  0.131186  0.000337  1.043871  0.0
H  H65  1  0.61646991  0.50173973  0.79238428  1  0.121797  0.000861  0.111077  0.131092  0.000343  1.041448  0.0
H  H66  1  0.88764212  0.50855612  0.29253222  1  0.147521  0.000315  0.11007  0.131781  7.2e-05  1.045776  0.0
H  H67  1  0.38454766  0.49891228  0.20517499  1  0.115848  0.000461  0.110017  0.130064  0.000258  1.05271  0.0
H  H68  1  0.33632074  0.49520427  0.69644230  1  0.116089  0.001465  0.117364  0.087812  0.000447  1.020042  0.001
H  H69  1  0.83878282  0.50280724  0.80421890  1  0.133209  0.001511  0.117847  0.089786  0.00048  1.017012  0.001
H  H70  1  0.66711688  0.50823107  0.30050110  1  0.127154  -5.5e-05  0.120821  0.094916  -2e-06  1.014892  0.0
H  H71  1  0.16195709  0.49751856  0.19377250  1  0.106366  0.00171  0.1167  0.087844  0.000595  1.017306  0.001
H  H72  1  0.03685478  0.68715180  0.55866940  1  0.068816  0.000975  0.102408  0.104893  0.000437  1.04624  0.0
H  H73  1  0.34893796  0.31224396  0.94337112  1  0.06273  0.000917  0.102873  0.1055  0.000414  1.045853  0.0
H  H74  1  0.97465532  0.31883071  0.44570050  1  0.084799  7.5e-05  0.103267  0.107587  -5e-06  1.037034  0.0
H  H75  1  0.65245601  0.68989306  0.05576880  1  0.032849  0.000926  0.102163  0.104095  0.000411  1.048328  0.0
H  H76  1  0.81349144  0.68395141  0.55848252  1  0.085392  0.001493  0.116465  0.08806  0.000419  1.025889  0.001
H  H77  1  0.12809874  0.31430204  0.94273672  1  0.117629  0.00146  0.116989  0.088489  0.000406  1.023144  0.001
H  H78  1  0.19679691  0.32277427  0.44443715  1  0.128334  0.000169  0.121074  0.098817  0.000148  1.025892  0.0
H  H79  1  0.87316614  0.68749133  0.05628415  1  0.100359  0.001453  0.116675  0.087773  0.000409  1.023938  0.001
H  H80  1  0.69558435  0.46368768  0.67514412  1  0.126321  0.001254  0.119043  0.092607  0.000217  1.016269  0.001
H  H81  1  0.22734664  0.53208221  0.82352741  1  0.102416  0.001465  0.119612  0.093034  0.00037  1.016384  0.001
H  H82  1  0.30810107  0.53893877  0.32339527  1  0.117807  -3.3e-05  0.121939  0.095799  2.8e-05  1.011335  0.0
H  H83  1  0.77237442  0.46751145  0.17336493  1  0.134891  0.001534  0.118866  0.092443  0.000412  1.015502  0.001
H  H84  1  0.91393260  0.45571521  0.68031661  1  0.119824  0.001057  0.105347  0.118841  0.000589  1.067807  0.0
H  H85  1  0.45404321  0.54143989  0.81943865  1  0.124009  0.001065  0.106063  0.119263  0.000589  1.063462  0.0
H  H86  1  0.09080367  0.54445248  0.31830956  1  0.137679  0.000474  0.105819  0.11984  0.000271  1.064089  0.0
H  H87  1  0.54554640  0.45787866  0.17669776  1  0.154785  0.000272  0.105657  0.120488  3e-05  1.074195  0.0
C  C88  1  0.93325538  0.36517329  0.04718400  1  1.541886  0.003266  0.207144  0.566684  0.004094  4.20513  0.004
C  C89  1  0.56888841  0.63292167  0.45584564  1  1.513115  0.010492  0.208283  0.556104  0.007669  4.189637  0.01
C  C90  1  0.06653496  0.63442510  0.95131233  1  1.54339  0.003707  0.207284  0.565392  0.004412  4.203658  0.004
C  C91  1  0.43160470  0.36515401  0.55058811  1  1.51898  -0.009195  0.198594  0.555634  -0.005893  4.234781  -0.01
C  C92  1  0.86766241  0.25954226  0.04242123  1  0.009753  0.008188  -0.037039  -0.079259  0.004258  4.017843  0.006
C  C93  1  0.60804494  0.73818148  0.45869520  1  -0.07552  0.00223  -0.035152  -0.077668  0.001159  4.014769  0.001
C  C94  1  0.13265140  0.74021593  0.95721672  1  -0.078695  0.008327  -0.036659  -0.078197  0.004301  4.015856  0.006
C  C95  1  0.39118452  0.25881542  0.54562216  1  0.008062  0.004586  -0.036556  -0.070439  0.002413  4.007664  0.004
C  C96  1  0.88280582  0.19336344  0.98018637  1  0.038262  0.000365  -0.084037  -0.066037  0.000135  3.981968  0.0
C  C97  1  0.68954581  0.80445688  0.51982789  1  0.021001  0.002129  -0.082983  -0.065122  0.001045  3.978944  0.001
C  C98  1  0.11736588  0.80568891  0.01992251  1  0.014062  0.000466  -0.083202  -0.065293  0.000191  3.982376  0.0
C  C99  1  0.31032712  0.19420274  0.48371194  1  -0.007573  -0.000424  -0.08522  -0.07126  -0.000249  3.993288  0.0
C  C100  1  0.82085105  0.09453215  0.97302360  1  -0.064615  0.000776  -0.103655  -0.19255  0.000402  3.999407  0.001
C  C101  1  0.72604833  0.90333035  0.52651301  1  -0.068415  -0.00074  -0.10356  -0.19227  -0.000406  3.99827  -0.001
C  C102  1  0.18006503  0.90459552  0.02810348  1  -0.095847  0.000853  -0.104407  -0.192367  0.000441  3.997982  0.001
C  C103  1  0.27357919  0.09501903  0.47526415  1  -0.080754  0.001155  -0.106078  -0.194079  0.00058  4.006119  0.001
C  C104  1  0.73497556  0.05761015  0.02629294  1  0.330889  -0.000506  0.100989  0.196429  -0.000337  4.032995  0.0
C  C105  1  0.67708118  0.94071963  0.47383919  1  0.314953  0.001982  0.101321  0.197621  0.001016  4.029626  0.001
C  C106  1  0.26674196  0.94216371  0.97544549  1  0.344585  -0.000328  0.101154  0.195549  -0.000219  4.032241  0.0
C  C107  1  0.32211247  0.05625972  0.52706647  1  0.306728  -0.001374  0.098488  0.192681  -0.000821  4.032524  -0.001
C  C108  1  0.72008927  0.12371675  0.08935824  1  -0.062633  0.000662  -0.106987  -0.204028  0.000312  4.002256  0.0
C  C109  1  0.59657320  0.87457263  0.41162494  1  -0.06961  -1.5e-05  -0.106576  -0.201731  -4e-06  3.998325  0.0
C  C110  1  0.28182412  0.87676338  0.91192573  1  -0.040153  0.000776  -0.106419  -0.202246  0.000375  4.002872  0.001
C  C111  1  0.40253121  0.12072889  0.58987212  1  -0.087481  6.7e-05  -0.107649  -0.202727  -1.6e-05  4.003705  0.0
C  C112  1  0.78669575  0.22269097  0.09738413  1  -0.103659  0.000351  -0.086371  -0.073555  0.000144  3.994125  0.0
C  C113  1  0.56401504  0.77536145  0.40409535  1  0.000557  0.002271  -0.086432  -0.075221  0.00121  3.990152  0.002
C  C114  1  0.21445972  0.77779458  0.90285640  1  -0.02418  0.000449  -0.084846  -0.071587  0.000225  3.990979  0.0
C  C115  1  0.43497258  0.22012962  0.59906584  1  -0.006643  -0.00158  -0.087527  -0.07648  -0.000916  3.995506  -0.001
C  C116  1  0.64700150  0.89391283  0.94541061  1  0.276417  -0.00166  0.097626  0.193313  -0.000996  4.014797  -0.001
C  C117  1  0.75206490  0.10505125  0.55423983  1  0.356487  -0.001687  0.098264  0.195023  -0.000996  4.010057  -0.001
C  C118  1  0.35208139  0.10614678  0.05648750  1  0.31173  0.000681  0.100076  0.196325  0.000361  4.011148  0.0
C  C119  1  0.24650747  0.89269057  0.44536506  1  0.326593  -0.001564  0.098735  0.196085  -0.000948  4.016287  -0.001
C  C120  1  0.62343773  0.91859062  0.87777560  1  -0.046504  0.000937  -0.096395  -0.178221  0.000425  3.992064  0.001
C  C121  1  0.70484068  0.08095496  0.62245579  1  -0.018998  0.001137  -0.096287  -0.17817  0.000526  3.988831  0.001
C  C122  1  0.37333895  0.08283305  0.12522296  1  -0.029096  -0.000252  -0.096465  -0.179606  -0.000137  3.986443  0.0
C  C123  1  0.29377048  0.91751602  0.37732330  1  -0.001697  0.000692  -0.097619  -0.179333  0.000297  3.990485  0.001
C  C124  1  0.61088967  0.85420282  0.80934791  1  -0.062239  -0.000283  -0.084514  -0.079501  -0.000145  3.983736  0.0
C  C125  1  0.75659257  0.14504868  0.69062232  1  -0.10018  -0.000316  -0.084602  -0.079601  -0.00015  3.98269  0.0
C  C126  1  0.38452691  0.14824469  0.19308016  1  -0.04616  -0.000103  -0.083994  -0.079448  -7e-05  3.981948  0.0
C  C127  1  0.24224079  0.85383772  0.30892834  1  -0.043912  -0.000231  -0.085873  -0.081715  -0.000102  3.987018  0.0
C  C128  1  0.61662096  0.76261907  0.80638815  1  -0.01263  0.003741  -0.028928  -0.049143  0.002046  4.002078  0.003
C  C129  1  0.85318278  0.23596631  0.69295292  1  -0.002729  0.004134  -0.028263  -0.048787  0.002261  3.99788  0.003
C  C130  1  0.37953025  0.23969619  0.19432082  1  -0.031657  0.000219  -0.028328  -0.052328  4.7e-05  4.005536  0.001
C  C131  1  0.14580876  0.76269901  0.30612071  1  -0.013734  0.003493  -0.030141  -0.050892  0.00193  4.003582  0.002
C  C132  1  0.63700497  0.73732051  0.87403510  1  -0.015412  -0.000277  -0.087026  -0.078838  -0.000142  3.996964  0.0
C  C133  1  0.89774076  0.26083188  0.62475203  1  -0.052909  -0.000374  -0.08671  -0.078057  -0.000203  3.992118  0.0
C  C134  1  0.36046639  0.26320172  0.12550346  1  -0.026389  -0.00014  -0.086022  -0.077623  -0.000221  3.99535  0.0
C  C135  1  0.10101143  0.73730198  0.37411287  1  -0.041839  -0.000225  -0.08781  -0.079262  -0.000118  3.998663  0.0
C  C136  1  0.65318935  0.80238557  0.94239173  1  -0.011454  0.000911  -0.102014  -0.1843  0.000416  4.004986  0.001
C  C137  1  0.84856367  0.19613004  0.55649526  1  6e-05  0.00099  -0.101443  -0.184545  0.000447  4.001219  0.001
C  C138  1  0.34572445  0.19732544  0.05794676  1  -0.04003  -0.000156  -0.101659  -0.182726  -2.9e-05  4.006796  0.0
C  C139  1  0.14992230  0.80150245  0.44254989  1  -0.020169  0.000778  -0.102129  -0.185415  0.000348  4.002886  0.001
C  C140  1  0.59985809  0.69343186  0.73303855  1  1.535801  -0.005292  0.192596  0.542179  -0.002852  4.226998  -0.006
C  C141  1  0.90540789  0.30472630  0.76624761  1  1.52374  -0.005253  0.191501  0.53967  -0.002837  4.223387  -0.006
C  C142  1  0.39934096  0.31412815  0.26478556  1  1.512823  0.001998  0.194525  0.534282  0.000762  4.197037  0.003
C  C143  1  0.09396531  0.69426615  0.23270655  1  1.511945  -0.005232  0.191231  0.5401  -0.002827  4.22474  -0.006
C  C144  1  0.61273329  0.91677039  0.07906282  1  0.269065  -8.3e-05  0.085181  0.167345  -4.7e-05  4.040974  0.0
C  C145  1  0.69415098  0.08170827  0.42106718  1  0.282673  -2.5e-05  0.086202  0.170716  -1.4e-05  4.032247  0.0
C  C146  1  0.38869855  0.08312363  0.92311695  1  0.248512  -5.2e-05  0.084767  0.167228  -2.4e-05  4.038289  0.0
C  C147  1  0.30280207  0.91448783  0.57863608  1  0.293234  7e-06  0.085474  0.169582  -2e-06  4.041493  0.0
C  C148  1  0.69388006  0.92157377  0.13930232  1  0.069026  -4.7e-05  -0.094004  -0.176769  -2.3e-05  3.99429  0.0
C  C149  1  0.77102550  0.07701591  0.36030824  1  -0.039055  0.00013  -0.092946  -0.177723  7.1e-05  3.993862  0.0
C  C150  1  0.30658665  0.07764136  0.86312973  1  0.003276  7.1e-05  -0.093794  -0.178436  4e-05  3.994936  0.0
C  C151  1  0.22593421  0.91986286  0.63931192  1  -0.059533  -0.000159  -0.093422  -0.176687  -8.9e-05  3.99498  0.0
C  C152  1  0.64145082  0.87857062  0.19910234  1  -0.049633  1.1e-05  -0.091776  -0.069859  4e-06  4.033162  0.0
C  C153  1  0.76133387  0.12039650  0.30087700  1  -0.042908  -2.2e-05  -0.091639  -0.068029  -1.1e-05  4.028218  0.0
C  C154  1  0.35786566  0.12014684  0.80291250  1  -0.110984  -0.0  -0.09076  -0.068131  0.0  4.02767  0.0
C  C155  1  0.23615581  0.87760426  0.69935560  1  -0.070505  4.6e-05  -0.092321  -0.071287  2.4e-05  4.029922  0.0
C  C156  1  0.50857781  0.83171651  0.19922002  1  -0.104309  -0.000127  -0.095668  -0.094704  -8.1e-05  4.003235  0.0
C  C157  1  0.67433646  0.16738777  0.30157855  1  -0.019505  0.000116  -0.095455  -0.09546  5.9e-05  4.004927  0.0
C  C158  1  0.49061147  0.16720828  0.80222383  1  -0.065588  -2e-06  -0.094769  -0.092971  -1.1e-05  3.998988  0.0
C  C159  1  0.32346560  0.83097424  0.69916607  1  -0.008647  -0.000176  -0.095389  -0.093548  -0.000114  4.000158  0.0
C  C160  1  0.42756079  0.82703036  0.13909057  1  -0.092488  -4e-06  -0.092625  -0.074606  -1.6e-05  4.002581  0.0
C  C161  1  0.59715179  0.17162747  0.36210166  1  -0.085296  6.6e-05  -0.091854  -0.074068  4.6e-05  4.010017  0.0
C  C162  1  0.57257230  0.17263353  0.86212677  1  -0.075598  -1e-05  -0.092518  -0.074851  -1.7e-05  3.998096  0.0
C  C163  1  0.40037368  0.82582485  0.63862124  1  -0.050893  1.3e-05  -0.091892  -0.072723  -1.6e-05  3.99912  0.0
C  C164  1  0.47966163  0.86878174  0.07877655  1  -0.042136  3.1e-05  -0.094322  -0.167856  1.7e-05  3.968215  0.0
C  C165  1  0.60781748  0.12966259  0.42212242  1  -0.078694  0.000194  -0.094143  -0.167887  0.000101  3.963343  0.0
C  C166  1  0.52160522  0.13134496  0.92287519  1  0.010128  0.000107  -0.093342  -0.166757  6e-05  3.965029  0.0
C  C167  1  0.38928636  0.86683945  0.57810909  1  -0.06483  -0.000127  -0.095357  -0.170342  -7.3e-05  3.96986  0.0
C  C168  1  0.32420052  0.59554204  0.55480322  1  0.471532  -0.008163  0.049402  0.107626  -0.00436  3.951136  -0.005
C  C169  1  0.72599281  0.40455508  0.94707749  1  0.53817  -0.008333  0.049541  0.109869  -0.00462  3.947086  -0.005
C  C170  1  0.67019938  0.40340691  0.44051294  1  0.466421  0.006526  0.052405  0.100467  0.003327  3.896321  0.004
C  C171  1  0.27426230  0.59633639  0.05111367  1  0.496925  -0.008822  0.049334  0.107225  -0.004902  3.948021  -0.005
C  C172  1  0.20152246  0.59742687  0.55589285  1  0.039843  0.001157  -0.085022  -0.173108  0.000526  3.965598  0.002
C  C173  1  0.60130394  0.40231206  0.94575994  1  -0.058451  0.001241  -0.083696  -0.173602  0.00057  3.962963  0.002
C  C174  1  0.79360160  0.40154744  0.44072482  1  -0.00243  0.002928  -0.081034  -0.167994  0.001565  3.939017  0.001
C  C175  1  0.39911955  0.59887476  0.05230681  1  0.001619  0.001281  -0.082938  -0.170729  0.00059  3.961059  0.002
C  C176  1  0.12251198  0.56346701  0.61221409  1  -0.049817  -0.013659  0.004276  0.094132  -0.007917  4.004126  -0.008
C  C177  1  0.55644545  0.43517089  0.88884867  1  0.009394  -0.013084  0.006383  0.097904  -0.007602  3.998237  -0.008
C  C178  1  0.87821281  0.43739738  0.38679340  1  -0.014045  0.010276  0.007621  0.095001  0.005321  3.957539  0.006
C  C179  1  0.44420448  0.56585282  0.10899364  1  -0.042973  -0.013646  0.005777  0.09698  -0.007918  3.998889  -0.008
C  C180  1  0.17141672  0.52483996  0.66354042  1  -0.030092  0.002129  -0.085918  -0.181298  0.001009  3.926494  0.002
C  C181  1  0.64414510  0.47319313  0.83720542  1  -0.044988  0.002156  -0.084354  -0.179064  0.001037  3.926525  0.002
C  C182  1  0.82940629  0.47727820  0.33591587  1  -0.042548  0.001751  -0.083742  -0.178535  0.00098  3.910312  0.001
C  C183  1  0.35662161  0.52771458  0.16066027  1  -0.005241  0.002004  -0.08664  -0.182865  0.000924  3.933669  0.002
C  C184  1  0.29510156  0.52462731  0.65776255  1  0.412875  -0.009523  0.044397  0.096659  -0.005144  3.937757  -0.006
C  C185  1  0.76811698  0.47392528  0.84323261  1  0.45253  -0.009106  0.043964  0.095264  -0.004852  3.935718  -0.005
C  C186  1  0.70493242  0.47751510  0.33967462  1  0.413499  0.007101  0.044285  0.084431  0.003629  3.896174  0.004
C  C187  1  0.23251248  0.52666515  0.15476302  1  0.426162  -0.00924  0.042964  0.09463  -0.004937  3.940384  -0.006
C  C188  1  0.99409683  0.56846578  0.61651354  1  -0.016382  -0.015191  0.005897  0.101552  -0.008817  3.999491  -0.009
C  C189  1  0.42295995  0.42959735  0.88419597  1  0.00832  -0.014688  0.006777  0.100425  -0.008509  3.997872  -0.009
C  C190  1  0.00939997  0.43383918  0.38419131  1  0.011497  0.01329  0.008433  0.099926  0.00686  3.95547  0.008
C  C191  1  0.57765074  0.57126549  0.11348071  1  -0.106923  -0.014959  0.006452  0.101702  -0.008636  3.997948  -0.009
C  C192  1  0.96394902  0.63486413  0.58402954  1  -0.046892  0.002585  -0.087853  -0.179424  0.001274  3.970346  0.003
C  C193  1  0.32729509  0.36367613  0.91719202  1  -0.083012  0.00262  -0.086857  -0.178276  0.001285  3.971125  0.003
C  C194  1  0.04464129  0.37036728  0.41820022  1  -0.016781  0.001169  -0.084717  -0.175984  0.000658  3.949424  0.0
C  C195  1  0.67376231  0.63784129  0.08130091  1  0.011945  0.002537  -0.086197  -0.175568  0.001235  3.965875  0.003
C  C196  1  0.84037872  0.63502625  0.58503745  1  0.508399  -0.009469  0.043066  0.099803  -0.005023  3.957238  -0.006
C  C197  1  0.20329388  0.36290693  0.91581940  1  0.494849  -0.009616  0.043981  0.100954  -0.005169  3.954776  -0.006
C  C198  1  0.16903542  0.37026671  0.41669821  1  0.409872  0.008618  0.047022  0.092493  0.004421  3.896867  0.005
C  C199  1  0.79772845  0.63846861  0.08277158  1  0.492341  -0.009764  0.044117  0.100406  -0.005248  3.95263  -0.006
C  C200  1  0.77504447  0.51202158  0.65045488  1  0.456719  -0.010541  0.045617  0.097397  -0.005885  3.942124  -0.006
C  C201  1  0.25915436  0.48450544  0.84902516  1  0.482241  -0.009787  0.045532  0.095065  -0.005404  3.941561  -0.006
C  C202  1  0.23086672  0.49072404  0.34943268  1  0.390511  0.009248  0.045391  0.08553  0.004736  3.902219  0.005
C  C203  1  0.74092015  0.51558706  0.14826607  1  0.441116  -0.009752  0.044293  0.093716  -0.005389  3.946927  -0.006
C  C204  1  0.89644150  0.50722639  0.65194825  1  -0.027043  0.002828  -0.087459  -0.182387  0.00138  3.933866  0.003
C  C205  1  0.38560556  0.48994343  0.84793006  1  -0.02642  0.002923  -0.084726  -0.176212  0.001436  3.924988  0.003
C  C206  1  0.10815024  0.49408521  0.34809573  1  -0.029838  0.00147  -0.085161  -0.178175  0.000804  3.919182  0.0
C  C207  1  0.61443768  0.50997725  0.14891175  1  -0.003561  0.001663  -0.087597  -0.182173  0.000831  3.931478  0.002
N  N208  1  0.37230614  0.56099711  0.60517958  1  -1.204995  0.042918  -0.330574  -0.239379  0.024706  3.606969  0.039
N  N209  1  0.80880494  0.43842952  0.89629655  1  -1.228581  0.044007  -0.331424  -0.242557  0.025277  3.606833  0.04
N  N210  1  0.62287193  0.43970980  0.39037491  1  -1.174069  0.01716  -0.319684  -0.182676  0.008007  3.570914  0.012
N  N211  1  0.19144544  0.56206258  0.10178446  1  -1.209518  0.043511  -0.331095  -0.241191  0.025002  3.604879  0.04
N  N212  1  0.74579303  0.57360004  0.61659420  1  -1.208106  0.046886  -0.331961  -0.239659  0.02666  3.599131  0.044
N  N213  1  0.16893584  0.42330261  0.88328967  1  -1.233838  0.046696  -0.331594  -0.240829  0.026584  3.599104  0.044
N  N214  1  0.26414759  0.43047397  0.38361411  1  -1.137094  0.015175  -0.31978  -0.177953  0.006974  3.557798  0.01
N  N215  1  0.83167728  0.57754404  0.11486381  1  -1.212357  0.046555  -0.332093  -0.24018  0.026571  3.602747  0.044
N  N216  1  0.66454536  0.95826006  0.01617525  1  -1.219656  0.00045  -0.251023  -0.15149  0.000277  3.661708  0.001
N  N217  1  0.70536255  0.04036038  0.48381692  1  -1.215799  0.000859  -0.25014  -0.154626  0.000447  3.656327  0.001
N  N218  1  0.33754768  0.04159040  0.98619374  1  -1.225395  0.000786  -0.250803  -0.151547  0.000404  3.6556  0.001
N  N219  1  0.29282616  0.95630910  0.51601288  1  -1.222438  -0.000415  -0.252258  -0.154152  -0.000182  3.662359  0.0
O  O220  1  0.57498704  0.60365667  0.73224332  1  -1.15751  0.081915  -0.310911  -0.551468  0.043824  2.271321  0.071
O  O221  1  0.97113638  0.39414287  0.76730746  1  -1.156804  0.080756  -0.309387  -0.549309  0.043191  2.267296  0.07
O  O222  1  0.43060067  0.40232563  0.26020891  1  -1.1556  -0.064497  -0.30215  -0.533937  -0.038542  2.284164  -0.056
O  O223  1  0.02866095  0.60463625  0.23128932  1  -1.172999  0.080348  -0.310664  -0.551392  0.042391  2.266141  0.069
O  O224  1  0.60772674  0.72212422  0.67127813  1  -1.151674  0.076181  -0.310842  -0.549497  0.040353  2.222299  0.067
O  O225  1  0.88331032  0.27608273  0.82809654  1  -1.148793  0.080029  -0.310109  -0.546877  0.042399  2.221571  0.07
O  O226  1  0.38858916  0.29240345  0.33024879  1  -1.098579  0.006547  -0.300209  -0.504128  0.002673  2.250958  0.005
O  O227  1  0.11594549  0.72332465  0.17099936  1  -1.151944  0.07995  -0.310555  -0.547972  0.042432  2.224017  0.07
O  O228  1  0.92935432  0.42457219  0.10746943  1  -1.154239  0.09528  -0.309594  -0.546873  0.050781  2.328442  0.08
O  O229  1  0.50060380  0.57277016  0.39728115  1  -1.09884  0.017823  -0.298147  -0.507798  0.007562  2.439962  0.015
O  O230  1  0.07073165  0.57573507  0.89069543  1  -1.150266  0.095473  -0.308735  -0.545411  0.050922  2.324014  0.08
O  O231  1  0.49891236  0.42276456  0.61034394  1  -1.151525  0.082063  -0.319542  -0.559683  0.044211  2.334476  0.069
O  O232  1  0.99072071  0.39338047  0.99031338  1  -1.171138  0.091524  -0.316667  -0.583347  0.049893  2.515787  0.075
O  O233  1  0.60320640  0.60545112  0.51095752  1  -1.173574  0.08175  -0.311365  -0.569716  0.04448  2.528612  0.064
O  O234  1  0.00837631  0.60528453  0.00772813  1  -1.175028  0.093741  -0.316156  -0.582315  0.050947  2.516953  0.077
O  O235  1  0.40076304  0.39380613  0.49542078  1  -1.181383  -0.019996  -0.313295  -0.585773  -0.012893  2.434636  -0.013
