# generated using pymatgen
data_Cd5H48C60(N15Cl2)2
_symmetry_space_group_name_H-M   'P 1'
_cell_length_a   9.91240638
_cell_length_b   11.84408393
_cell_length_c   14.55110000
_cell_angle_alpha   74.29220307
_cell_angle_beta   86.88099658
_cell_angle_gamma   81.56306177
_symmetry_Int_Tables_number   1
_chemical_formula_structural   Cd5H48C60(N15Cl2)2
_chemical_formula_sum   'Cd5 H48 C60 N30 Cl4'
_cell_volume   1626.55887381
_cell_formula_units_Z   1
loop_
 _symmetry_equiv_pos_site_id
 _symmetry_equiv_pos_as_xyz
  1  'x, y, z'
loop_
 _atom_site_type_symbol
 _atom_site_label
 _atom_site_symmetry_multiplicity
 _atom_site_fract_x
 _atom_site_fract_y
 _atom_site_fract_z
 _atom_site_occupancy
 _atom_site_hle17_bader_spin_density
 _atom_site_hle17_ddec_charge
 _atom_site_hle17_ddec_spin_density
 _atom_site_hle17_ddec_sum_bond_order
 _atom_site_hle17_magmom
 _atom_site_hse06_10hf_bader_spin_density
 _atom_site_hse06_10hf_ddec_charge
 _atom_site_hse06_10hf_ddec_spin_density
 _atom_site_hse06_10hf_ddec_sum_bond_order
 _atom_site_hse06_10hf_magmom
 _atom_site_hse06_bader_spin_density
 _atom_site_hse06_ddec_charge
 _atom_site_hse06_ddec_spin_density
 _atom_site_hse06_ddec_sum_bond_order
 _atom_site_hse06_magmom
 _atom_site_pbe_bader_charge
 _atom_site_pbe_bader_spin_density
 _atom_site_pbe_cm5_charge
 _atom_site_pbe_ddec_charge
 _atom_site_pbe_ddec_spin_density
 _atom_site_pbe_ddec_sum_bond_order
 _atom_site_pbe_magmom
Cd  Cd0  1  0.99999985  0.49999810  0.00000201  1  0  0.926483  0  1.99096  0  0  0.728874  0  2.463092  0  0  0.774721  0  2.425024  0  1.198462  0  0.703057  0.695414  0  2.491198  0
Cd  Cd1  1  0.37909293  0.54768814  0.62386996  1  0  0.940818  0  1.96255  0  0  0.729275  0  2.444244  0  0  0.777425  0  2.402656  0  1.211234  0  0.7465  0.69508  0  2.472839  0
Cd  Cd2  1  0.62090462  0.45231071  0.37613039  1  0  0.940788  0  1.962533  0  0  0.729247  0  2.44422  0  0  0.777399  0  2.402635  0  1.21128  0  0.746485  0.695054  0  2.472816  0
Cd  Cd3  1  0.36892027  0.40554419  0.91860509  1  0  0.970122  0  1.844121  0  0  0.764005  0  2.310941  0  0  0.812999  0  2.269708  0  1.209679  0  0.717185  0.726973  0  2.342124  0
Cd  Cd4  1  0.63107857  0.59445288  0.08139491  1  0  0.970131  0  1.844085  0  0  0.763993  0  2.31094  0  0  0.812988  0  2.269706  0  1.209753  0  0.717183  0.726959  0  2.342122  0
H  H5  1  0.86172272  0.58354864  0.76707097  1  0  0.121121  0  0.940063  0  0  0.132011  0  0.99844  0  0  0.135071  0  0.995668  0  0.149418  0  0.124729  0.128407  0  1.002847  0
H  H6  1  0.13827455  0.41645198  0.23293174  1  0  0.121085  0  0.940167  0  0  0.132002  0  0.998512  0  0  0.135063  0  0.995739  0  0.149433  0  0.124733  0.128403  0  1.002921  0
H  H7  1  0.78871503  0.62389037  0.62940627  1  0  0.108889  0  0.952296  0  0  0.133529  0  1.008801  0  0  0.133973  0  1.008919  0  0.104061  0  0.111801  0.132651  0  1.009688  0
H  H8  1  0.21128224  0.37611025  0.37059439  1  0  0.108891  0  0.9523  0  0  0.133527  0  1.008815  0  0  0.133971  0  1.008932  0  0.104075  0  0.11181  0.132651  0  1.0097  0
H  H9  1  0.74965033  0.59422267  0.52143576  1  0  0.112034  0  0.968625  0  0  0.125565  0  1.04038  0  0  0.12594  0  1.041479  0  0.105408  0  0.10896  0.125104  0  1.039723  0
H  H10  1  0.25035011  0.40577706  0.47856428  1  0  0.112036  0  0.968636  0  0  0.125574  0  1.040396  0  0  0.125947  0  1.041496  0  0.105401  0  0.108962  0.125112  0  1.03974  0
H  H11  1  0.74914789  0.74323235  0.52520672  1  0  0.092682  0  0.948615  0  0  0.11166  0  1.017355  0  0  0.111906  0  1.01806  0  0.043431  0  0.102417  0.111387  0  1.016733  0
H  H12  1  0.25085039  0.25676827  0.47479252  1  0  0.092684  0  0.948649  0  0  0.111677  0  1.017374  0  0  0.111924  0  1.018079  0  0.043464  0  0.102428  0.111404  0  1.016753  0
H  H13  1  0.81130018  0.73130984  0.33803183  1  0  0.109533  0  0.999132  0  0  0.112233  0  1.073404  0  0  0.115863  0  1.071509  0  0.12375  0  0.100956  0.109558  0  1.075074  0
H  H14  1  0.18870186  0.26869255  0.66196894  1  0  0.109549  0  0.99908  0  0  0.112277  0  1.073326  0  0  0.115906  0  1.071431  0  0.12371  0  0.100956  0.1096  0  1.074997  0
H  H15  1  0.95640043  0.75569498  0.19060448  1  0  0.075555  0  0.973185  0  0  0.088465  0  1.034672  0  0  0.090675  0  1.033904  0  0.055035  0  0.092717  0.086864  0  1.035257  0
H  H16  1  0.04360450  0.24430830  0.80939873  1  0  0.075548  0  0.973297  0  0  0.0885  0  1.034708  0  0  0.090714  0  1.033941  0  0.055213  0  0.092738  0.086912  0  1.035276  0
H  H17  1  0.20731029  0.70588519  0.19883398  1  0  0.078939  0  1.000777  0  0  0.087523  0  1.068906  0  0  0.089429  0  1.069121  0  0.051403  0  0.088492  0.086097  0  1.068783  0
H  H18  1  0.79269217  0.29411455  0.80117080  1  0  0.078851  0  1.000755  0  0  0.087531  0  1.068811  0  0  0.089436  0  1.069026  0  0.051398  0  0.088495  0.086114  0  1.068675  0
H  H19  1  0.32465779  0.63414825  0.35297832  1  0  0.107757  0  0.97995  0  0  0.113435  0  1.047776  0  0  0.115855  0  1.047365  0  0.129378  0  0.09782  0.111947  0  1.047827  0
H  H20  1  0.67534582  0.36585060  0.64702730  1  0  0.107771  0  0.980011  0  0  0.113452  0  1.047824  0  0  0.115873  0  1.047413  0  0.129425  0  0.09782  0.111965  0  1.047873  0
H  H21  1  0.47184419  0.08648756  0.66195410  1  0  0.10144  0  0.990362  0  0  0.109427  0  1.056494  0  0  0.111599  0  1.056544  0  0.100635  0  0.111842  0.107922  0  1.056518  0
H  H22  1  0.52815639  0.91351129  0.33804338  1  0  0.10147  0  0.990322  0  0  0.109461  0  1.056438  0  0  0.11163  0  1.056492  0  0.100619  0  0.111869  0.107955  0  1.056461  0
H  H23  1  0.68135203  0.00489031  0.64033321  1  0  0.106716  0  0.9467  0  0  0.128453  0  1.008144  0  0  0.128973  0  1.008602  0  0.087331  0  0.111816  0.12782  0  1.008215  0
H  H24  1  0.31864841  0.99510942  0.35966133  1  0  0.106639  0  0.946725  0  0  0.128417  0  1.00814  0  0  0.128947  0  1.008586  0  0.087264  0  0.111811  0.127785  0  1.008211  0
H  H25  1  0.81028823  0.91539374  0.59284683  1  0  0.110227  0  0.937064  0  0  0.132233  0  0.995659  0  0  0.133052  0  0.995988  0  0.071094  0  0.112546  0.131416  0  0.995721  0
H  H26  1  0.18971322  0.08460599  0.40714699  1  0  0.110215  0  0.937146  0  0  0.132225  0  0.995747  0  0  0.133044  0  0.996078  0  0.071108  0  0.112579  0.131408  0  0.995808  0
H  H27  1  0.63425959  0.91165894  0.57270431  1  0  0.097778  0  0.928718  0  0  0.118716  0  0.989886  0  0  0.119185  0  0.989787  0  0.068764  0  0.104072  0.117989  0  0.990354  0
H  H28  1  0.36574054  0.08833637  0.42729397  1  0  0.097762  0  0.928783  0  0  0.118673  0  0.989985  0  0  0.119141  0  0.989889  0  0.068131  0  0.104058  0.117947  0  0.990451  0
H  H29  1  0.93491769  0.88966096  0.45286958  1  0  0.101023  0  0.973819  0  0  0.10857  0  1.03904  0  0  0.111788  0  1.037901  0  0.115481  0  0.099645  0.106333  0  1.039872  0
H  H30  1  0.06507871  0.11033878  0.54712580  1  0  0.101052  0  0.973824  0  0  0.108626  0  1.039003  0  0  0.111842  0  1.037871  0  0.115392  0  0.099661  0.106389  0  1.039838  0
H  H31  1  0.07094665  0.94019416  0.30304111  1  0  0.085542  0  0.964116  0  0  0.09742  0  1.023539  0  0  0.099527  0  1.023999  0  0.063585  0  0.095345  0.095848  0  1.023441  0
H  H32  1  0.92905438  0.05980823  0.69695558  1  0  0.085517  0  0.964101  0  0  0.097369  0  1.023538  0  0  0.099474  0  1.024004  0  0.063527  0  0.095322  0.095777  0  1.023463  0
H  H33  1  0.02285767  0.13741567  0.18504578  1  0  0.088261  0  0.973154  0  0  0.097745  0  1.038013  0  0  0.100251  0  1.037244  0  0.085907  0  0.089363  0.095828  0  1.038826  0
H  H34  1  0.97714221  0.86258761  0.81495213  1  0  0.088226  0  0.973164  0  0  0.097733  0  1.038008  0  0  0.100241  0  1.03724  0  0.085379  0  0.089356  0.095819  0  1.038817  0
H  H35  1  0.83136600  0.28633946  0.21190629  1  0  0.116903  0  0.953173  0  0  0.123557  0  1.01694  0  0  0.125738  0  1.017307  0  0.109421  0  0.105676  0.122037  0  1.016661  0
H  H36  1  0.16863315  0.71366204  0.78809066  1  0  0.116978  0  0.953149  0  0  0.123619  0  1.016933  0  0  0.1258  0  1.017301  0  0.109456  0  0.105708  0.122099  0  1.016653  0
H  H37  1  0.91112587  0.23743813  0.96850532  1  0  0.108086  0  0.953774  0  0  0.118638  0  1.016688  0  0  0.121471  0  1.014372  0  0.114126  0  0.119081  0.116108  0  1.019548  0
H  H38  1  0.08887514  0.76255806  0.03149548  1  0  0.108042  0  0.953769  0  0  0.118594  0  1.016683  0  0  0.121427  0  1.014366  0  0.113882  0  0.119089  0.11606  0  1.019553  0
H  H39  1  0.84220741  0.04757493  0.00481866  1  0  0.100247  0  0.946919  0  0  0.123324  0  1.006135  0  0  0.12359  0  1.007038  0  0.055101  0  0.108458  0.123303  0  1.005082  0
H  H40  1  0.15779592  0.95242569  0.99517902  1  0  0.100236  0  0.946838  0  0  0.123317  0  1.006064  0  0  0.12358  0  1.006961  0  0.054999  0  0.108444  0.123297  0  1.00501  0
H  H41  1  0.87450241  0.06742837  0.87908183  1  0  0.097658  0  0.937465  0  0  0.119405  0  0.999532  0  0  0.119738  0  0.999953  0  0.061878  0  0.103674  0.119412  0  0.998622  0
H  H42  1  0.12549775  0.93257314  0.12091783  1  0  0.097582  0  0.937374  0  0  0.119334  0  0.999457  0  0  0.119666  0  0.999878  0  0.061916  0  0.103642  0.119333  0  0.998556  0
H  H43  1  0.80922724  0.93728370  0.95014701  1  0  0.114855  0  0.954554  0  0  0.1331  0  1.021483  0  0  0.134528  0  1.020474  0  0.112133  0  0.104781  0.131859  0  1.022521  0
H  H44  1  0.19077767  0.06271338  0.04985208  1  0  0.114817  0  0.954642  0  0  0.133071  0  1.021555  0  0  0.134499  0  1.020545  0  0.112137  0  0.10477  0.13183  0  1.022593  0
H  H45  1  0.65422944  0.87461548  0.86473734  1  0  0.111048  0  0.984911  0  0  0.121263  0  1.047554  0  0  0.124537  0  1.045334  0  0.122564  0  0.091263  0.118621  0  1.049691  0
H  H46  1  0.34577173  0.12538602  0.13526091  1  0  0.111042  0  0.984932  0  0  0.121253  0  1.047581  0  0  0.124529  0  1.045362  0  0.122561  0  0.091279  0.118648  0  1.04968  0
H  H47  1  0.43515698  0.84342570  0.80573736  1  0  0.097645  0  0.941992  0  0  0.109902  0  0.998113  0  0  0.11259  0  0.99741  0  0.088328  0  0.09928  0.107859  0  0.998819  0
H  H48  1  0.56484161  0.15657934  0.19425952  1  0  0.097688  0  0.941997  0  0  0.109926  0  0.998124  0  0  0.112633  0  0.997401  0  0.088303  0  0.099309  0.107881  0  0.998831  0
H  H49  1  0.22940535  0.99256289  0.79419326  1  0  0.080969  0  0.997661  0  0  0.089837  0  1.064586  0  0  0.091277  0  1.066656  0  0.083878  0  0.089563  0.08893  0  1.062782  0
H  H50  1  0.77059453  0.00744039  0.20580534  1  0  0.080955  0  0.997742  0  0  0.089829  0  1.064656  0  0  0.091269  0  1.066725  0  0.083855  0  0.089583  0.088922  0  1.062852  0
H  H51  1  0.23578569  0.17918651  0.84341798  1  0  0.099382  0  0.966666  0  0  0.110824  0  1.027803  0  0  0.113428  0  1.026143  0  0.082761  0  0.101798  0.108995  0  1.028982  0
H  H52  1  0.76421548  0.82081499  0.15658164  1  0  0.099439  0  0.966614  0  0  0.110907  0  1.027715  0  0  0.113513  0  1.026053  0  0.082768  0  0.101825  0.109079  0  1.028893  0
C  C53  1  0.97007299  0.55453085  0.76146937  1  0  -0.020828  0  3.683886  0  0  -0.067684  0  3.956311  0  0  -0.063059  0  3.971498  0  0.448198  0  0.021383  -0.070084  0  3.946046  0
C  C54  1  0.02992428  0.44546977  0.23853472  1  0  -0.020836  0  3.683982  0  0  -0.067747  0  3.956357  0  0  -0.063135  0  3.97154  0  0.448561  0  0.021381  -0.070155  0  3.946101  0
C  C55  1  0.06011790  0.55894656  0.68363198  1  0  0.047503  0  3.814957  0  0  0.04436  0  4.076554  0  0  0.042885  0  4.096146  0  0.389564  0  0.087759  0.045033  0  4.063114  0
C  C56  1  0.93987937  0.44105406  0.31637211  1  0  0.04757  0  3.814841  0  0  0.044542  0  4.076287  0  0  0.043098  0  4.095833  0  0.389623  0  0.087866  0.045212  0  4.062848  0
C  C57  1  0.05514478  0.60168520  0.58048569  1  0  0.287145  0  3.760109  0  0  0.25166  0  4.02824  0  0  0.270435  0  4.039401  0  1.019002  0  0.228672  0.239159  0  4.020465  0
C  C58  1  0.94485350  0.39831542  0.41951837  1  0  0.287257  0  3.759927  0  0  0.251707  0  4.028024  0  0  0.270475  0  4.039181  0  1.01905  0  0.228709  0.239209  0  4.020245  0
C  C59  1  0.79958181  0.65201563  0.55185568  1  0  -0.153596  0  3.629208  0  0  -0.257961  0  3.875656  0  0  -0.253975  0  3.884905  0  0.248488  0  -0.131325  -0.260188  0  3.869031  0
C  C60  1  0.20041748  0.34798499  0.44814490  1  0  -0.153598  0  3.629291  0  0  -0.258019  0  3.875727  0  0  -0.254032  0  3.884974  0  0.248477  0  -0.131353  -0.260247  0  3.8691  0
C  C61  1  0.99006535  0.67125191  0.42923357  1  0  0.088396  0  3.768656  0  0  0.079318  0  4.009979  0  0  0.082992  0  4.031489  0  0.336426  0  0.086098  0.076721  0  3.995629  0
C  C62  1  0.00993554  0.32875136  0.57077049  1  0  0.08844  0  3.768589  0  0  0.07929  0  4.009972  0  0  0.082981  0  4.03146  0  0.33655  0  0.086079  0.076691  0  3.995621  0
C  C63  1  0.92221544  0.71321578  0.34240328  1  0  -0.141413  0  3.742182  0  0  -0.16018  0  3.99879  0  0  -0.163022  0  4.018931  0  0.021425  0  -0.100244  -0.158052  0  3.985105  0
C  C64  1  0.07778559  0.28678661  0.65760096  1  0  -0.14148  0  3.742193  0  0  -0.160279  0  3.998852  0  0  -0.163127  0  4.018989  0  0.021381  0  -0.100236  -0.15815  0  3.985169  0
C  C65  1  0.00438278  0.72666303  0.26027677  1  0  -0.080269  0  3.802433  0  0  -0.099275  0  4.063028  0  0  -0.102136  0  4.086831  0  -0.054128  0  -0.104623  -0.09713  0  4.046276  0
C  C66  1  0.99562170  0.27333671  0.73972725  1  0  -0.080258  0  3.802296  0  0  -0.099282  0  4.062903  0  0  -0.102148  0  4.086709  0  -0.054543  0  -0.104675  -0.097149  0  4.046151  0
C  C67  1  0.14729344  0.69924258  0.26441452  1  0  -0.091137  0  3.819669  0  0  -0.107815  0  4.077473  0  0  -0.110031  0  4.10038  0  -0.027925  0  -0.109035  -0.10587  0  4.061612  0
C  C68  1  0.85271090  0.30075804  0.73559068  1  0  -0.091025  0  3.819266  0  0  -0.107795  0  4.077073  0  0  -0.11001  0  4.099979  0  -0.028032  0  -0.109029  -0.105857  0  4.061212  0
C  C69  1  0.21453247  0.65816416  0.35096031  1  0  -0.139994  0  3.739893  0  0  -0.157985  0  3.990188  0  0  -0.160553  0  4.010558  0  -0.088172  0  -0.100394  -0.156226  0  3.976331  0
C  C70  1  0.78546999  0.34183558  0.64904516  1  0  -0.140078  0  3.739841  0  0  -0.158057  0  3.99013  0  0  -0.160626  0  4.010499  0  -0.088409  0  -0.100429  -0.156299  0  3.976276  0
C  C71  1  0.13421757  0.64410241  0.43437300  1  0  0.153693  0  3.846084  0  0  0.150891  0  4.095662  0  0  0.155041  0  4.1178  0  0.337485  0  0.083194  0.148001  0  4.080539  0
C  C72  1  0.86578388  0.35589732  0.56563113  1  0  0.153662  0  3.846016  0  0  0.150848  0  4.095619  0  0  0.154995  0  4.117754  0  0.338261  0  0.083158  0.147959  0  4.080496  0
C  C73  1  0.47952131  0.17677368  0.62131670  1  0  -0.066132  0  3.737446  0  0  -0.104735  0  4.01369  0  0  -0.103098  0  4.0295  0  0.453661  0  0.003211  -0.105754  0  4.003317  0
C  C74  1  0.52047840  0.82322429  0.37868170  1  0  -0.066131  0  3.737461  0  0  -0.104754  0  4.013696  0  0  -0.103117  0  4.029506  0  0.453712  0  0.003172  -0.105773  0  4.003324  0
C  C75  1  0.54754423  0.22286903  0.53538334  1  0  0.032831  0  3.854705  0  0  0.03044  0  4.115277  0  0  0.029895  0  4.134632  0  0.460461  0  0.076728  0.030586  0  4.102112  0
C  C76  1  0.45245332  0.77712982  0.46461288  1  0  0.032781  0  3.854756  0  0  0.030456  0  4.1153  0  0  0.029913  0  4.134655  0  0.460358  0  0.076754  0.030597  0  4.102133  0
C  C77  1  0.64084089  0.17466809  0.47128382  1  0  0.282143  0  3.781169  0  0  0.246391  0  4.050202  0  0  0.264851  0  4.061  0  0.985822  0  0.223392  0.234142  0  4.042943  0
C  C78  1  0.35915464  0.82533076  0.52871110  1  0  0.282299  0  3.78102  0  0  0.246393  0  4.050142  0  0  0.264842  0  4.060954  0  0.985736  0  0.223404  0.234158  0  4.042863  0
C  C79  1  0.70963055  0.96846640  0.57926897  1  0  -0.151859  0  3.642103  0  0  -0.252659  0  3.88477  0  0  -0.248469  0  3.893021  0  0.263306  0  -0.121743  -0.254942  0  3.879365  0
C  C80  1  0.29036801  0.03153245  0.42072584  1  0  -0.151733  0  3.642368  0  0  -0.252615  0  3.884975  0  0  -0.248434  0  3.893223  0  0.264189  0  -0.121784  -0.254898  0  3.87957  0
C  C81  1  0.80710056  0.06125505  0.41652761  1  0  0.093461  0  3.789584  0  0  0.082987  0  4.03324  0  0  0.086886  0  4.055847  0  0.285821  0  0.088339  0.080661  0  4.017624  0
C  C82  1  0.19289497  0.93874380  0.58346731  1  0  0.093517  0  3.789422  0  0  0.083042  0  4.032984  0  0  0.086943  0  4.055583  0  0.285345  0  0.088339  0.080714  0  4.017371  0
C  C83  1  0.91187646  0.97551542  0.40142734  1  0  -0.157797  0  3.785362  0  0  -0.17808  0  4.046714  0  0  -0.181061  0  4.066416  0  -0.095499  0  -0.103789  -0.176228  0  4.033483  0
C  C84  1  0.08811994  0.02448431  0.59856666  1  0  -0.157944  0  3.78552  0  0  -0.178266  0  4.046851  0  0  -0.181247  0  4.066549  0  -0.095108  0  -0.103842  -0.176411  0  4.033614  0
C  C85  1  0.98838113  0.00537642  0.31705319  1  0  -0.081408  0  3.805124  0  0  -0.096923  0  4.060134  0  0  -0.098428  0  4.082211  0  -0.027947  0  -0.102344  -0.095615  0  4.045081  0
C  C86  1  0.01161802  0.99462509  0.68294239  1  0  -0.081324  0  3.805087  0  0  -0.096808  0  4.060102  0  0  -0.098313  0  4.082176  0  -0.027966  0  -0.102308  -0.095487  0  4.045055  0
C  C87  1  0.96014536  0.11635449  0.24977168  1  0  -0.098139  0  3.802998  0  0  -0.112079  0  4.056096  0  0  -0.114967  0  4.078133  0  -0.029529  0  -0.106089  -0.109835  0  4.040858  0
C  C88  1  0.03985278  0.88364702  0.75022394  1  0  -0.098038  0  3.802993  0  0  -0.111995  0  4.056073  0  0  -0.114884  0  4.07811  0  -0.029073  0  -0.106043  -0.109752  0  4.040831  0
C  C89  1  0.85402867  0.20123674  0.26439544  1  0  -0.129569  0  3.717887  0  0  -0.148428  0  3.96927  0  0  -0.150825  0  3.990501  0  -0.039145  0  -0.092553  -0.146718  0  3.954622  0
C  C90  1  0.14596933  0.79876565  0.73560205  1  0  -0.129711  0  3.717953  0  0  -0.148572  0  3.969358  0  0  -0.150972  0  3.990593  0  -0.039055  0  -0.092617  -0.146862  0  3.954712  0
C  C91  1  0.77786896  0.17353383  0.34949049  1  0  0.158307  0  3.833099  0  0  0.156029  0  4.082987  0  0  0.159482  0  4.105683  0  0.429874  0  0.086578  0.153764  0  4.067244  0
C  C92  1  0.22212845  0.82646590  0.65050691  1  0  0.158357  0  3.83293  0  0  0.156071  0  4.082802  0  0  0.159525  0  4.105497  0  0.429869  0  0.086568  0.153806  0  4.067062  0
C  C93  1  0.81562985  0.28844859  0.98176245  1  0  -0.026366  0  3.700019  0  0  -0.070568  0  3.969673  0  0  -0.066264  0  3.984931  0  0.419688  0  0.016109  -0.073613  0  3.960411  0
C  C94  1  0.18437102  0.71154849  0.01823884  1  0  -0.026322  0  3.699981  0  0  -0.070514  0  3.969624  0  0  -0.066208  0  3.984877  0  0.419979  0  0.016082  -0.073562  0  3.960361  0
C  C95  1  0.67936716  0.27573184  0.97233624  1  0  0.034911  0  3.839825  0  0  0.035574  0  4.100791  0  0  0.033321  0  4.119998  0  0.462047  0  0.083755  0.037023  0  4.087483  0
C  C96  1  0.32063444  0.72426701  0.02766395  1  0  0.034947  0  3.839827  0  0  0.035643  0  4.100794  0  0  0.03339  0  4.12  0  0.46208  0  0.083777  0.037092  0  4.087486  0
C  C97  1  0.61127930  0.19725489  0.93623750  1  0  0.297433  0  3.767082  0  0  0.259218  0  4.031898  0  0  0.278317  0  4.044193  0  1.005205  0  0.23364  0.246568  0  4.023245  0
C  C98  1  0.38872257  0.80274219  0.06376308  1  0  0.297422  0  3.766961  0  0  0.259118  0  4.031869  0  0  0.278217  0  4.044164  0  1.005195  0  0.233611  0.246469  0  4.023214  0
C  C99  1  0.80693826  0.03286150  0.93948005  1  0  -0.159203  0  3.641261  0  0  -0.261055  0  3.881986  0  0  -0.257336  0  3.891134  0  0.267693  0  -0.126592  -0.26313  0  3.8754  0
C  C100  1  0.19306609  0.96713912  0.06051896  1  0  -0.159045  0  3.641238  0  0  -0.260909  0  3.881941  0  0  -0.257181  0  3.891086  0  0.267795  0  -0.126549  -0.262976  0  3.875358  0
C  C101  1  0.56563130  0.04612103  0.88537469  1  0  0.102512  0  3.762219  0  0  0.089684  0  4.008858  0  0  0.093429  0  4.031367  0  0.319827  0  0.091362  0.08732  0  3.993653  0
C  C102  1  0.43437075  0.95388136  0.11462402  1  0  0.102634  0  3.762228  0  0  0.089729  0  4.008967  0  0  0.093474  0  4.031476  0  0.319946  0  0.09138  0.087363  0  3.993771  0
C  C103  1  0.56475734  0.94177733  0.85819601  1  0  -0.154284  0  3.759418  0  0  -0.173126  0  4.013161  0  0  -0.175931  0  4.032976  0  -0.102828  0  -0.103479  -0.17134  0  4.000127  0
C  C104  1  0.43524283  0.05822417  0.14180159  1  0  -0.154273  0  3.759455  0  0  -0.173092  0  4.01323  0  0  -0.175899  0  4.033054  0  -0.102818  0  -0.103488  -0.171335  0  4.000175  0
C  C105  1  0.44104400  0.92466612  0.82609954  1  0  -0.079272  0  3.780453  0  0  -0.098007  0  4.042087  0  0  -0.099982  0  4.06374  0  -0.002383  0  -0.102695  -0.096533  0  4.027512  0
C  C106  1  0.55895790  0.07533716  0.17390035  1  0  -0.079395  0  3.780535  0  0  -0.098109  0  4.042166  0  0  -0.1001  0  4.063813  0  -0.002142  0  -0.102766  -0.096633  0  4.027599  0
C  C107  1  0.32330014  0.00907935  0.82068776  1  0  -0.090831  0  3.791748  0  0  -0.107603  0  4.05003  0  0  -0.109883  0  4.07258  0  -0.136026  0  -0.106283  -0.106137  0  4.034585  0
C  C108  1  0.67670062  0.99092481  0.17931129  1  0  -0.09077  0  3.791783  0  0  -0.107547  0  4.050075  0  0  -0.109827  0  4.072631  0  -0.136682  0  -0.106278  -0.106081  0  4.034627  0
C  C109  1  0.32522087  0.11286495  0.84777704  1  0  -0.127883  0  3.742937  0  0  -0.148005  0  3.998489  0  0  -0.149887  0  4.016781  0  0.027858  0  -0.092059  -0.146688  0  3.985914  0
C  C110  1  0.67478003  0.88713833  0.15222221  1  0  -0.127954  0  3.742846  0  0  -0.148097  0  3.998415  0  0  -0.149978  0  4.016697  0  0.028164  0  -0.092074  -0.14678  0  3.985841  0
C  C111  1  0.44781355  0.13113344  0.88060840  1  0  0.165578  0  3.838598  0  0  0.157083  0  4.093978  0  0  0.161684  0  4.116395  0  0.431779  0  0.090593  0.1541  0  4.07849  0
C  C112  1  0.55218877  0.86886718  0.11939206  1  0  0.165577  0  3.838598  0  0  0.157092  0  4.093988  0  0  0.161695  0  4.116403  0  0.432078  0  0.090589  0.154109  0  4.078499  0
N  N113  1  0.04386336  0.50380108  0.84097914  1  0  -0.23905  0  3.240635  0  0  -0.17825  0  3.525828  0  0  -0.192737  0  3.546153  0  -0.703637  0  -0.242363  -0.168139  0  3.511044  0
N  N114  1  0.95613433  0.49619688  0.15902483  1  0  -0.239172  0  3.240786  0  0  -0.178392  0  3.526021  0  0  -0.192879  0  3.546348  0  -0.703863  0  -0.242525  -0.168281  0  3.511238  0
N  N115  1  0.17388369  0.47792308  0.81455056  1  0  -0.104051  0  3.183644  0  0  -0.058123  0  3.464759  0  0  -0.065107  0  3.484037  0  -0.203709  0  -0.120329  -0.052592  0  3.451051  0
N  N116  1  0.82611386  0.52207577  0.18545184  1  0  -0.103864  0  3.183592  0  0  -0.057918  0  3.464686  0  0  -0.064902  0  3.48397  0  -0.203675  0  -0.120198  -0.052387  0  3.450975  0
N  N117  1  0.18537071  0.51018159  0.72079446  1  0  -0.246936  0  3.213453  0  0  -0.192548  0  3.488819  0  0  -0.203248  0  3.506972  0  -0.631539  0  -0.227434  -0.184829  0  3.476606  0
N  N118  1  0.81462670  0.48981814  0.27920844  1  0  -0.247021  0  3.213507  0  0  -0.192679  0  3.488861  0  0  -0.203387  0  3.507005  0  -0.631606  0  -0.227492  -0.184956  0  3.476644  0
N  N119  1  0.17087395  0.60101757  0.52889743  1  0  -0.454466  0  3.130166  0  0  -0.40553  0  3.412659  0  0  -0.424975  0  3.425971  0  -1.189421  0  -0.351471  -0.392042  0  3.402827  0
N  N120  1  0.82912461  0.39898128  0.47110700  1  0  -0.454545  0  3.130084  0  0  -0.405593  0  3.412563  0  0  -0.425041  0  3.425882  0  -1.190113  0  -0.351467  -0.392103  0  3.402729  0
N  N121  1  0.94268727  0.64435211  0.52363595  1  0  -0.116581  0  3.48737  0  0  -0.024414  0  3.709671  0  0  -0.040857  0  3.732036  0  -1.217009  0  -0.240902  -0.013422  0  3.694269  0
N  N122  1  0.05731390  0.35564940  0.47636642  1  0  -0.116598  0  3.487284  0  0  -0.024307  0  3.70948  0  0  -0.040755  0  3.731843  0  -1.216769  0  -0.240857  -0.013309  0  3.694066  0
N  N123  1  0.41404509  0.26873417  0.65154783  1  0  -0.202687  0  3.02212  0  0  -0.181579  0  3.304707  0  0  -0.186817  0  3.320275  0  -0.639183  0  -0.219347  -0.177896  0  3.293972  0
N  N124  1  0.58595852  0.73126468  0.34845298  1  0  -0.202731  0  3.02211  0  0  -0.181617  0  3.304704  0  0  -0.186855  0  3.320273  0  -0.639202  0  -0.219367  -0.177935  0  3.29397  0
N  N125  1  0.43995482  0.36739305  0.58708670  1  0  -0.114591  0  3.231599  0  0  -0.057739  0  3.524559  0  0  -0.065818  0  3.540153  0  -0.209112  0  -0.131843  -0.051993  0  3.513229  0
N  N126  1  0.56004792  0.63260492  0.41291296  1  0  -0.114583  0  3.231487  0  0  -0.057735  0  3.524439  0  0  -0.065815  0  3.540033  0  -0.209184  0  -0.131847  -0.051989  0  3.51311  0
N  N127  1  0.51903531  0.34307254  0.51602366  1  0  -0.268495  0  3.177531  0  0  -0.213312  0  3.450731  0  0  -0.225083  0  3.468232  0  -0.738002  0  -0.236257  -0.204831  0  3.438025  0
N  N128  1  0.48096440  0.65692542  0.48397405  1  0  -0.268538  0  3.177499  0  0  -0.213362  0  3.450676  0  0  -0.225131  0  3.468166  0  -0.737817  0  -0.236293  -0.204881  0  3.437971  0
N  N129  1  0.67376607  0.24117559  0.38560931  1  0  -0.450796  0  3.124  0  0  -0.398391  0  3.397842  0  0  -0.417904  0  3.411228  0  -1.203302  0  -0.34918  -0.384698  0  3.388219  0
N  N130  1  0.32623120  0.75882503  0.61438653  1  0  -0.450865  0  3.123913  0  0  -0.398447  0  3.39782  0  0  -0.417957  0  3.411208  0  -1.203181  0  -0.349185  -0.384759  0  3.388193  0
N  N131  1  0.71734359  0.06401409  0.49298175  1  0  -0.113565  0  3.486225  0  0  -0.023312  0  3.711286  0  0  -0.039775  0  3.733821  0  -1.220219  0  -0.240609  -0.012555  0  3.695814  0
N  N132  1  0.28265093  0.93598475  0.50701183  1  0  -0.113638  0  3.486281  0  0  -0.023173  0  3.711137  0  0  -0.039631  0  3.733673  0  -1.22029  0  -0.240512  -0.01242  0  3.695663  0
N  N133  1  0.60092248  0.36785082  0.99733657  1  0  -0.238176  0  3.088545  0  0  -0.199742  0  3.361645  0  0  -0.207718  0  3.378051  0  -0.625446  0  -0.21434  -0.192926  0  3.350519  0
N  N134  1  0.39907824  0.63214714  0.00266317  1  0  -0.238287  0  3.088578  0  0  -0.199858  0  3.361685  0  0  -0.207835  0  3.378091  0  -0.625491  0  -0.214379  -0.193042  0  3.350559  0
N  N135  1  0.68456194  0.43286635  0.01988014  1  0  -0.085509  0  3.216343  0  0  -0.032899  0  3.502231  0  0  -0.041423  0  3.520915  0  -0.192007  0  -0.122447  -0.02661  0  3.488515  0
N  N136  1  0.31543878  0.56713161  0.98011959  1  0  -0.085409  0  3.216359  0  0  -0.032786  0  3.502228  0  0  -0.04131  0  3.520913  0  -0.192074  0  -0.122391  -0.026496  0  3.488509  0
N  N137  1  0.81518835  0.38713757  0.01100804  1  0  -0.242567  0  3.191553  0  0  -0.186694  0  3.472022  0  0  -0.199789  0  3.491451  0  -0.705189  0  -0.240157  -0.177227  0  3.45902  0
N  N138  1  0.18481251  0.61285950  0.98899258  1  0  -0.242591  0  3.19155  0  0  -0.186716  0  3.47201  0  0  -0.199813  0  3.49144  0  -0.705216  0  -0.240149  -0.177246  0  3.459006  0
N  N139  1  0.66760808  0.09045612  0.92143843  1  0  -0.112333  0  3.490415  0  0  -0.017145  0  3.708846  0  0  -0.0342  0  3.733063  0  -1.205556  0  -0.235642  -0.006165  0  3.69259  0
N  N140  1  0.33239567  0.90954184  0.07856257  1  0  -0.112476  0  3.4906  0  0  -0.017241  0  3.709087  0  0  -0.034297  0  3.733304  0  -1.2057  0  -0.235648  -0.006261  0  3.692828  0
N  N141  1  0.47996501  0.22396787  0.91175587  1  0  -0.44894  0  3.181391  0  0  -0.381574  0  3.458066  0  0  -0.405109  0  3.473586  0  -1.202202  0  -0.350232  -0.365871  0  3.447387  0
N  N142  1  0.52003731  0.77603275  0.08824391  1  0  -0.448917  0  3.181323  0  0  -0.381505  0  3.45801  0  0  -0.405042  0  3.473533  0  -1.202375  0  -0.350202  -0.365803  0  3.44733  0
Cl  Cl143  1  0.17865327  0.30156645  0.04127684  1  0  -0.590489  0  0.879297  0  0  -0.533805  0  1.14865  0  0  -0.54902  0  1.12555  0  -0.681829  0  -0.330761  -0.521471  0  1.166877  0
Cl  Cl144  1  0.82134585  0.69842886  0.95872353  1  0  -0.590501  0  0.879309  0  0  -0.533805  0  1.148652  0  0  -0.549023  0  1.125557  0  -0.681911  0  -0.330768  -0.521461  0  1.166862  0
Cl  Cl145  1  0.52704893  0.50950688  0.77135936  1  0  -0.563106  0  0.893859  0  0  -0.500936  0  1.16314  0  0  -0.518478  0  1.141626  0  -0.647714  0  -0.335561  -0.487769  0  1.179875  0
Cl  Cl146  1  0.47294949  0.49049285  0.22864007  1  0  -0.563116  0  0.893863  0  0  -0.500935  0  1.16313  0  0  -0.51848  0  1.141621  0  -0.647718  0  -0.335565  -0.487769  0  1.179866  0
