# generated using pymatgen
data_AgH15C13(SO)3
_symmetry_space_group_name_H-M   'P 1'
_cell_length_a   8.31534208
_cell_length_b   8.82843821
_cell_length_c   21.21127698
_cell_angle_alpha   90.00009441
_cell_angle_beta   90.00007108
_cell_angle_gamma   110.87617701
_symmetry_Int_Tables_number   1
_chemical_formula_structural   AgH15C13(SO)3
_chemical_formula_sum   'Ag4 H60 C52 S12 O12'
_cell_volume   1454.92856887
_cell_formula_units_Z   4
loop_
 _symmetry_equiv_pos_site_id
 _symmetry_equiv_pos_as_xyz
  1  'x, y, z'
loop_
 _atom_site_type_symbol
 _atom_site_label
 _atom_site_symmetry_multiplicity
 _atom_site_fract_x
 _atom_site_fract_y
 _atom_site_fract_z
 _atom_site_occupancy
 _atom_site_hle17_bader_spin_density
 _atom_site_hle17_ddec_charge
 _atom_site_hle17_ddec_spin_density
 _atom_site_hle17_ddec_sum_bond_order
 _atom_site_hle17_magmom
 _atom_site_hse06_10hf_bader_charge
 _atom_site_hse06_10hf_bader_spin_density
 _atom_site_hse06_10hf_ddec_charge
 _atom_site_hse06_10hf_ddec_spin_density
 _atom_site_hse06_10hf_ddec_sum_bond_order
 _atom_site_hse06_10hf_magmom
 _atom_site_hse06_bader_spin_density
 _atom_site_hse06_ddec_charge
 _atom_site_hse06_ddec_spin_density
 _atom_site_hse06_ddec_sum_bond_order
 _atom_site_hse06_magmom
 _atom_site_pbe_bader_spin_density
 _atom_site_pbe_cm5_charge
 _atom_site_pbe_ddec_charge
 _atom_site_pbe_ddec_spin_density
 _atom_site_pbe_ddec_sum_bond_order
 _atom_site_pbe_magmom
Ag  Ag0  1  0.81115199  0.45454227  0.48415696  1  0  0.36095  0  1.662752  0  0.480593  0  0.247327  0  2.141377  0  0  0.271746  0  2.092186  0  0  0.35846  0.230427  0  2.175213  0
Ag  Ag1  1  0.18884930  0.04546058  0.98415769  1  0  0.360942  0  1.662732  0  0.48054  0  0.247317  0  2.141332  0  0  0.271736  0  2.092143  0  0  0.358442  0.230418  0  2.175165  0
Ag  Ag2  1  0.18884910  0.54545884  0.51584282  1  0  0.360915  0  1.66278  0  0.481107  0  0.247296  0  2.141403  0  0  0.271715  0  2.092214  0  0  0.358441  0.230396  0  2.175239  0
Ag  Ag3  1  0.81115150  0.95454294  0.01584398  1  0  0.360968  0  1.662719  0  0.481123  0  0.247352  0  2.141327  0  0  0.271771  0  2.092139  0  0  0.358467  0.230451  0  2.175166  0
H  H4  1  0.00739139  0.14270247  0.50077330  1  0  0.131529  0  0.963183  0  0.147267  0  0.145273  0  1.022864  0  0  0.146426  0  1.023288  0  0  0.106804  0.144352  0  1.02271  0
H  H5  1  0.99261064  0.35730002  0.00077165  1  0  0.131481  0  0.963212  0  0.147222  0  0.145267  0  1.022888  0  0  0.146418  0  1.023316  0  0  0.106836  0.144343  0  1.022734  0
H  H6  1  0.99260821  0.85730105  0.49922837  1  0  0.131485  0  0.96319  0  0.14721  0  0.14526  0  1.022862  0  0  0.146411  0  1.023291  0  0  0.106838  0.144337  0  1.022708  0
H  H7  1  0.00739332  0.64270230  0.99922719  1  0  0.131497  0  0.963205  0  0.147245  0  0.145262  0  1.022892  0  0  0.146414  0  1.023318  0  0  0.106806  0.14434  0  1.022738  0
H  H8  1  0.89665121  0.03858054  0.56979148  1  0  0.134052  0  0.944341  0  0.142563  0  0.148184  0  1.000563  0  0  0.149194  0  1.001453  0  0  0.107711  0.147405  0  1.000037  0
H  H9  1  0.10335301  0.46142720  0.06978948  1  0  0.134045  0  0.944323  0  0.142505  0  0.148213  0  1.000529  0  0  0.149215  0  1.001443  0  0  0.107724  0.147431  0  1.000003  0
H  H10  1  0.10334884  0.96142420  0.43020972  1  0  0.134048  0  0.944326  0  0.14254  0  0.148174  0  1.000583  0  0  0.149185  0  1.001469  0  0  0.107717  0.147395  0  1.000056  0
H  H11  1  0.89665397  0.53857997  0.93020842  1  0  0.134022  0  0.944302  0  0.142535  0  0.148174  0  1.000535  0  0  0.149187  0  1.001416  0  0  0.107718  0.147394  0  1.00001  0
H  H12  1  0.59031919  0.01105047  0.60184746  1  0  0.129177  0  0.95233  0  0.087513  0  0.147638  0  1.013724  0  0  0.148142  0  1.015058  0  0  0.095201  0.147181  0  1.012909  0
H  H13  1  0.40968338  0.48895261  0.10184703  1  0  0.129157  0  0.952342  0  0.087492  0  0.147615  0  1.013747  0  0  0.148131  0  1.015064  0  0  0.095182  0.147142  0  1.012949  0
H  H14  1  0.40968207  0.98895427  0.39815327  1  0  0.129219  0  0.952293  0  0.087481  0  0.147664  0  1.013713  0  0  0.148183  0  1.015029  0  0  0.0952  0.147191  0  1.012916  0
H  H15  1  0.59032012  0.51104851  0.89815275  1  0  0.129225  0  0.952314  0  0.087502  0  0.147669  0  1.013732  0  0  0.148175  0  1.015065  0  0  0.095207  0.147214  0  1.012914  0
H  H16  1  0.48480734  0.14062130  0.57097098  1  0  0.135199  0  0.961338  0  0.099979  0  0.154218  0  1.022108  0  0  0.15537  0  1.022486  0  0  0.099929  0.153291  0  1.022002  0
H  H17  1  0.51519507  0.35938160  0.07097052  1  0  0.135144  0  0.961395  0  0.09997  0  0.154192  0  1.022144  0  0  0.155343  0  1.022524  0  0  0.099914  0.153267  0  1.022034  0
H  H18  1  0.51519272  0.85938343  0.42902975  1  0  0.13518  0  0.961407  0  0.100031  0  0.154228  0  1.022141  0  0  0.155379  0  1.022521  0  0  0.099921  0.153301  0  1.022031  0
H  H19  1  0.48480511  0.64061708  0.92902927  1  0  0.135172  0  0.961395  0  0.099943  0  0.154223  0  1.022131  0  0  0.155375  0  1.022508  0  0  0.099936  0.153296  0  1.022024  0
H  H20  1  0.67167023  0.22625003  0.61929817  1  0  0.132286  0  0.972914  0  0.112297  0  0.149345  0  1.035481  0  0  0.150084  0  1.036993  0  0  0.094225  0.14877  0  1.034476  0
H  H21  1  0.32833123  0.27375315  0.11929709  1  0  0.132277  0  0.972908  0  0.112347  0  0.149364  0  1.03546  0  0  0.150102  0  1.036975  0  0  0.094201  0.14879  0  1.034452  0
H  H22  1  0.32833103  0.77375471  0.38070208  1  0  0.13233  0  0.972856  0  0.112326  0  0.149379  0  1.03543  0  0  0.150117  0  1.036946  0  0  0.094223  0.148805  0  1.034423  0
H  H23  1  0.67167182  0.72624675  0.88070175  1  0  0.13233  0  0.972888  0  0.112303  0  0.14938  0  1.035459  0  0  0.150117  0  1.036975  0  0  0.094248  0.148805  0  1.034454  0
H  H24  1  0.27896850  0.22326249  0.57289776  1  0  0.144039  0  0.961143  0  0.127377  0  0.162426  0  1.01898  0  0  0.164494  0  1.018165  0  0  0.09795  0.16088  0  1.019645  0
H  H25  1  0.72103557  0.27674164  0.07289687  1  0  0.144003  0  0.961217  0  0.127367  0  0.162396  0  1.019047  0  0  0.164464  0  1.018232  0  0  0.09795  0.160847  0  1.019716  0
H  H26  1  0.72103064  0.77673983  0.42710485  1  0  0.14412  0  0.961238  0  0.1273  0  0.162498  0  1.019076  0  0  0.164567  0  1.018261  0  0  0.097984  0.160949  0  1.019744  0
H  H27  1  0.27897004  0.72326190  0.92710386  1  0  0.144108  0  0.961147  0  0.127335  0  0.162487  0  1.019  0  0  0.164557  0  1.018183  0  0  0.097966  0.160938  0  1.01967  0
H  H28  1  0.31648657  0.36024796  0.63779301  1  0  0.139651  0  0.955535  0  0.11422  0  0.159561  0  1.013874  0  0  0.160787  0  1.013664  0  0  0.099607  0.158597  0  1.014118  0
H  H29  1  0.68351664  0.13975654  0.13779201  1  0  0.139581  0  0.955381  0  0.1143  0  0.159477  0  1.013767  0  0  0.160701  0  1.013559  0  0  0.099565  0.158513  0  1.014009  0
H  H30  1  0.68351136  0.63975435  0.36220866  1  0  0.139596  0  0.955414  0  0.114273  0  0.159499  0  1.013782  0  0  0.160725  0  1.013571  0  0  0.099566  0.158535  0  1.014025  0
H  H31  1  0.31648943  0.86024821  0.86220824  1  0  0.139671  0  0.955462  0  0.114235  0  0.15958  0  1.013798  0  0  0.160805  0  1.01359  0  0  0.09961  0.158616  0  1.01404  0
H  H32  1  0.16886911  0.15505911  0.64732557  1  0  0.12059  0  0.985225  0  0.081652  0  0.139755  0  1.045869  0  0  0.139402  0  1.049663  0  0  0.089434  0.139908  0  1.043342  0
H  H33  1  0.83113507  0.34494787  0.14732525  1  0  0.120546  0  0.985201  0  0.08163  0  0.139701  0  1.045869  0  0  0.139348  0  1.049662  0  0  0.089409  0.139844  0  1.043351  0
H  H34  1  0.83113094  0.84494563  0.35267657  1  0  0.12061  0  0.985187  0  0.081652  0  0.139762  0  1.045843  0  0  0.139409  0  1.049637  0  0  0.089436  0.139911  0  1.04332  0
H  H35  1  0.16886905  0.65505809  0.85267594  1  0  0.1206  0  0.985203  0  0.081669  0  0.139757  0  1.045852  0  0  0.139404  0  1.049646  0  0  0.089427  0.139905  0  1.04333  0
H  H36  1  0.98327737  0.71835259  0.59174138  1  0  0.079078  0  1.006919  0  0.106337  0  0.081759  0  1.091568  0  0  0.085909  0  1.087045  0  0  0.089649  0.0787  0  1.09498  0
H  H37  1  0.01672135  0.78164357  0.09174015  1  0  0.079046  0  1.006943  0  0.106339  0  0.081737  0  1.091574  0  0  0.085887  0  1.087052  0  0  0.089643  0.078679  0  1.094987  0
H  H38  1  0.01671812  0.28164002  0.40825699  1  0  0.079031  0  1.007022  0  0.106394  0  0.081721  0  1.091653  0  0  0.085868  0  1.087135  0  0  0.08964  0.078663  0  1.095064  0
H  H39  1  0.98328020  0.21835875  0.90825775  1  0  0.079024  0  1.006967  0  0.10638  0  0.081706  0  1.091607  0  0  0.085853  0  1.08709  0  0  0.089648  0.078648  0  1.095018  0
H  H40  1  0.28837174  0.81773217  0.62258003  1  0  0.084208  0  0.99268  0  0.091057  0  0.088914  0  1.068593  0  0  0.0921  0  1.066592  0  0  0.091812  0.086571  0  1.070143  0
H  H41  1  0.71162611  0.68226780  0.12257860  1  0  0.084216  0  0.992747  0  0.09101  0  0.088901  0  1.068697  0  0  0.092086  0  1.066694  0  0  0.09181  0.086552  0  1.070253  0
H  H42  1  0.71162782  0.18226167  0.37741787  1  0  0.084224  0  0.99279  0  0.091134  0  0.088937  0  1.068677  0  0  0.092121  0  1.066679  0  0  0.091831  0.086594  0  1.070226  0
H  H43  1  0.28837108  0.31773572  0.87741883  1  0  0.08422  0  0.992789  0  0.091124  0  0.088924  0  1.068691  0  0  0.092109  0  1.066691  0  0  0.091814  0.086581  0  1.070241  0
H  H44  1  0.38485950  0.97802912  0.72176508  1  0  0.087763  0  0.961371  0  0.039503  0  0.100571  0  1.01979  0  0  0.102727  0  1.019948  0  0  0.098804  0.099059  0  1.019695  0
H  H45  1  0.61513858  0.52197384  0.22176444  1  0  0.087749  0  0.961367  0  0.039501  0  0.100586  0  1.019745  0  0  0.102743  0  1.019899  0  0  0.098811  0.099071  0  1.019657  0
H  H46  1  0.61514097  0.02196714  0.27823187  1  0  0.087757  0  0.961329  0  0.039434  0  0.100579  0  1.019736  0  0  0.102728  0  1.01991  0  0  0.098799  0.099067  0  1.01964  0
H  H47  1  0.38486027  0.47803090  0.77823299  1  0  0.087797  0  0.961336  0  0.039419  0  0.100613  0  1.019745  0  0  0.102763  0  1.019917  0  0  0.09881  0.0991  0  1.019649  0
H  H48  1  0.16861524  0.02523008  0.79237007  1  0  0.092185  0  0.961899  0  0.071011  0  0.104302  0  1.0239  0  0  0.106455  0  1.023565  0  0  0.098644  0.102743  0  1.024223  0
H  H49  1  0.83138565  0.47477652  0.29236843  1  0  0.092134  0  0.961999  0  0.070957  0  0.104258  0  1.024003  0  0  0.106406  0  1.023665  0  0  0.098655  0.102699  0  1.024326  0
H  H50  1  0.83139171  0.97476741  0.20762830  1  0  0.092152  0  0.96184  0  0.070959  0  0.104257  0  1.023872  0  0  0.106413  0  1.023537  0  0  0.098646  0.102698  0  1.024196  0
H  H51  1  0.16860913  0.52522700  0.70762900  1  0  0.092152  0  0.961886  0  0.070986  0  0.104262  0  1.023899  0  0  0.106417  0  1.023563  0  0  0.098641  0.102702  0  1.024224  0
H  H52  1  0.87046351  0.98228066  0.81905402  1  0  0.094468  0  0.985003  0  0.108016  0  0.100532  0  1.058049  0  0  0.103079  0  1.057012  0  0  0.096717  0.098717  0  1.058778  0
H  H53  1  0.12953207  0.51771801  0.31905361  1  0  0.094503  0  0.985011  0  0.108  0  0.100574  0  1.058032  0  0  0.103113  0  1.057021  0  0  0.096736  0.098759  0  1.058762  0
H  H54  1  0.12954464  0.01771683  0.18094577  1  0  0.094508  0  0.984942  0  0.107771  0  0.100591  0  1.057929  0  0  0.103122  0  1.056946  0  0  0.096737  0.098775  0  1.058658  0
H  H55  1  0.87045831  0.48227702  0.68094382  1  0  0.094479  0  0.984974  0  0.108019  0  0.10054  0  1.057994  0  0  0.103073  0  1.057004  0  0  0.096701  0.098724  0  1.058723  0
H  H56  1  0.56143905  0.87473160  0.79242137  1  0  0.09332  0  0.953495  0  0.065961  0  0.103895  0  1.01408  0  0  0.106861  0  1.013215  0  0  0.100768  0.101782  0  1.014777  0
H  H57  1  0.43855698  0.62526207  0.29242072  1  0  0.093305  0  0.953489  0  0.065948  0  0.103921  0  1.014035  0  0  0.106883  0  1.013177  0  0  0.10078  0.101807  0  1.014733  0
H  H58  1  0.43856458  0.12526345  0.20758218  1  0  0.093346  0  0.953496  0  0.06598  0  0.103956  0  1.014047  0  0  0.106925  0  1.013171  0  0  0.100799  0.101842  0  1.014747  0
H  H59  1  0.56143594  0.37472691  0.70757954  1  0  0.093332  0  0.953481  0  0.06595  0  0.103912  0  1.014054  0  0  0.106873  0  1.0132  0  0  0.100775  0.101799  0  1.014751  0
H  H60  1  0.46424917  0.73011029  0.68966794  1  0  0.0974  0  0.979889  0  0.099796  0  0.107626  0  1.044143  0  0  0.110369  0  1.042563  0  0  0.102141  0.105641  0  1.04529  0
H  H61  1  0.53574705  0.76988158  0.18966790  1  0  0.097456  0  0.979837  0  0.099699  0  0.107685  0  1.044081  0  0  0.110427  0  1.042503  0  0  0.102157  0.105702  0  1.045224  0
H  H62  1  0.53575130  0.26988597  0.31033420  1  0  0.097468  0  0.979815  0  0.099626  0  0.107661  0  1.044101  0  0  0.110403  0  1.042523  0  0  0.10216  0.105682  0  1.045234  0
H  H63  1  0.46425010  0.23011225  0.81033283  1  0  0.097398  0  0.97991  0  0.099646  0  0.107622  0  1.044168  0  0  0.110366  0  1.042588  0  0  0.10213  0.105636  0  1.045319  0
C  C64  1  0.92882632  0.14952709  0.54146461  1  0  -0.22826  0  3.615591  0  -0.249162  0  -0.257742  0  3.866179  0  0  -0.257226  0  3.877711  0  0  -0.143981  -0.258077  0  3.858375  0
C  C65  1  0.07117878  0.35047686  0.04146346  1  0  -0.228225  0  3.615716  0  -0.24891  0  -0.257825  0  3.866418  0  0  -0.257314  0  3.877947  0  0  -0.144048  -0.258142  0  3.858585  0
C  C66  1  0.07117402  0.85047523  0.45853564  1  0  -0.228164  0  3.615574  0  -0.248971  0  -0.257718  0  3.866254  0  0  -0.257203  0  3.877789  0  0  -0.144006  -0.258045  0  3.858437  0
C  C67  1  0.92882683  0.64952668  0.95853585  1  0  -0.228127  0  3.615467  0  -0.248973  0  -0.257707  0  3.866165  0  0  -0.257191  0  3.8777  0  0  -0.143972  -0.258035  0  3.858349  0
C  C68  1  0.60878815  0.13298519  0.58431296  1  0  -0.330692  0  3.593301  0  -0.204065  0  -0.405185  0  3.837306  0  0  -0.405883  0  3.846529  0  0  -0.229623  -0.404528  0  3.831074  0
C  C69  1  0.39121599  0.36701901  0.08431245  1  0  -0.330609  0  3.593344  0  -0.204105  0  -0.405154  0  3.837338  0  0  -0.405861  0  3.84655  0  0  -0.229566  -0.404484  0  3.831115  0
C  C70  1  0.39121311  0.86701955  0.41568729  1  0  -0.330739  0  3.593263  0  -0.204127  0  -0.405239  0  3.837271  0  0  -0.405949  0  3.846484  0  0  -0.229587  -0.404567  0  3.831046  0
C  C71  1  0.60878751  0.63298210  0.91568734  1  0  -0.330757  0  3.593368  0  -0.204022  0  -0.405248  0  3.837372  0  0  -0.405948  0  3.846598  0  0  -0.229647  -0.404592  0  3.831137  0
C  C72  1  0.22098715  0.25643166  0.61452231  1  0  -0.328921  0  3.587738  0  -0.224161  0  -0.403834  0  3.829847  0  0  -0.404426  0  3.838433  0  0  -0.234044  -0.40322  0  3.824051  0
C  C73  1  0.77901760  0.24357392  0.11452143  1  0  -0.328724  0  3.587575  0  -0.224131  0  -0.403603  0  3.829636  0  0  -0.404195  0  3.838226  0  0  -0.233951  -0.40298  0  3.823847  0
C  C74  1  0.77901244  0.74357187  0.38547983  1  0  -0.328932  0  3.587737  0  -0.224084  0  -0.403805  0  3.829768  0  0  -0.404399  0  3.838359  0  0  -0.234017  -0.403186  0  3.823974  0
C  C75  1  0.22098773  0.75643204  0.88547883  1  0  -0.328996  0  3.587722  0  -0.224145  0  -0.403891  0  3.829789  0  0  -0.404485  0  3.838378  0  0  -0.234045  -0.403272  0  3.823997  0
C  C76  1  0.71720487  0.75681468  0.65975703  1  0  -0.165647  0  3.706987  0  -0.259901  0  -0.144089  0  3.953915  0  0  -0.151998  0  3.975692  0  0  -0.022095  -0.139036  0  3.939418  0
C  C77  1  0.28278758  0.74317701  0.15975638  1  0  -0.165713  0  3.707105  0  -0.259878  0  -0.144027  0  3.953868  0  0  -0.151938  0  3.975647  0  0  -0.022097  -0.138976  0  3.939367  0
C  C78  1  0.28279063  0.24317793  0.34024511  1  0  -0.165843  0  3.707231  0  -0.259901  0  -0.144127  0  3.953939  0  0  -0.152039  0  3.975722  0  0  -0.022096  -0.139075  0  3.939437  0
C  C79  1  0.71720928  0.25681924  0.84024340  1  0  -0.165707  0  3.707116  0  -0.259882  0  -0.144107  0  3.953956  0  0  -0.152021  0  3.97574  0  0  -0.022084  -0.139054  0  3.939455  0
C  C80  1  0.89695098  0.81362431  0.67417254  1  0  0.054224  0  3.754297  0  0.030648  0  0.064738  0  3.974222  0  0  0.066064  0  3.998788  0  0  -0.004599  0.063898  0  3.957713  0
C  C81  1  0.10304246  0.68636988  0.17417224  1  0  0.054177  0  3.754379  0  0.030762  0  0.064663  0  3.974257  0  0  0.06599  0  3.998822  0  0  -0.004646  0.063827  0  3.957735  0
C  C82  1  0.10304813  0.18636831  0.32582819  1  0  0.054258  0  3.754605  0  0.030382  0  0.064738  0  3.974478  0  0  0.066063  0  3.999045  0  0  -0.004611  0.063909  0  3.957958  0
C  C83  1  0.89695274  0.31362515  0.82582755  1  0  0.05417  0  3.754559  0  0.030609  0  0.064714  0  3.974393  0  0  0.066039  0  3.998964  0  0  -0.004606  0.063881  0  3.957878  0
C  C84  1  0.02358335  0.78749853  0.63515534  1  0  -0.128039  0  3.757876  0  -0.140071  0  -0.147304  0  4.01131  0  0  -0.150729  0  4.032021  0  0  -0.098423  -0.144991  0  3.997375  0
C  C85  1  0.97641411  0.71250030  0.13515500  1  0  -0.127989  0  3.757927  0  -0.14021  0  -0.147261  0  4.011351  0  0  -0.150684  0  4.03206  0  0  -0.09842  -0.14495  0  3.997413  0
C  C86  1  0.97642572  0.21250139  0.36484444  1  0  -0.12791  0  3.757794  0  -0.13993  0  -0.147167  0  4.011197  0  0  -0.150591  0  4.031909  0  0  -0.0984  -0.144857  0  3.997257  0
C  C87  1  0.02358096  0.28750079  0.86484431  1  0  -0.127907  0  3.757901  0  -0.139942  0  -0.147164  0  4.011296  0  0  -0.150589  0  4.032009  0  0  -0.09842  -0.144853  0  3.997358  0
C  C88  1  0.19462096  0.84277777  0.65275689  1  0  -0.076588  0  3.787907  0  -0.055426  0  -0.090241  0  4.039539  0  0  -0.091335  0  4.060633  0  0  -0.096864  -0.089293  0  4.025114  0
C  C89  1  0.80537963  0.65722601  0.15275549  1  0  -0.076533  0  3.787756  0  -0.055355  0  -0.09017  0  4.03937  0  0  -0.091265  0  4.060463  0  0  -0.096784  -0.089222  0  4.024963  0
C  C90  1  0.80537574  0.15721485  0.34724337  1  0  -0.076686  0  3.787731  0  -0.055503  0  -0.090345  0  4.039382  0  0  -0.091436  0  4.060472  0  0  -0.09685  -0.089405  0  4.024979  0
C  C91  1  0.19462404  0.34277873  0.84724147  1  0  -0.076657  0  3.787961  0  -0.055519  0  -0.090319  0  4.039596  0  0  -0.091412  0  4.060689  0  0  -0.096854  -0.089372  0  4.025172  0
C  C92  1  0.24866942  0.93090994  0.70935795  1  0  -0.074934  0  3.776632  0  -0.039234  0  -0.08574  0  4.020161  0  0  -0.088191  0  4.041374  0  0  -0.095177  -0.084092  0  4.005703  0
C  C93  1  0.75133146  0.56909416  0.20935835  1  0  -0.074961  0  3.776466  0  -0.039003  0  -0.085793  0  4.020002  0  0  -0.088242  0  4.04121  0  0  -0.095206  -0.084146  0  4.005542  0
C  C94  1  0.75133603  0.06908996  0.29063853  1  0  -0.074905  0  3.77687  0  -0.039208  0  -0.08572  0  4.020395  0  0  -0.088172  0  4.041606  0  0  -0.095246  -0.084074  0  4.005934  0
C  C95  1  0.24866618  0.43091057  0.79063813  1  0  -0.075006  0  3.776976  0  -0.039222  0  -0.085825  0  4.020498  0  0  -0.088276  0  4.041706  0  0  -0.095246  -0.084177  0  4.006039  0
C  C96  1  0.12915352  0.95770692  0.74849655  1  0  -0.10726  0  3.738118  0  -0.016472  0  -0.12595  0  3.982045  0  0  -0.127012  0  4.002474  0  0  -0.088231  -0.125098  0  3.968185  0
C  C97  1  0.87084591  0.54229620  0.24849604  1  0  -0.107223  0  3.738296  0  -0.016602  0  -0.125943  0  3.98226  0  0  -0.126995  0  4.002681  0  0  -0.08832  -0.125092  0  3.968398  0
C  C98  1  0.87084243  0.04228691  0.25150276  1  0  -0.107233  0  3.738114  0  -0.016004  0  -0.125934  0  3.982045  0  0  -0.126999  0  4.002473  0  0  -0.08825  -0.125076  0  3.968189  0
C  C99  1  0.12915564  0.45770612  0.75150233  1  0  -0.107107  0  3.738363  0  -0.016548  0  -0.125791  0  3.982262  0  0  -0.126852  0  4.00269  0  0  -0.088203  -0.124935  0  3.968408  0
C  C100  1  0.95139286  0.89830199  0.73285505  1  0  0.055931  0  3.765859  0  -0.019235  0  0.074874  0  3.989701  0  0  0.073412  0  4.013293  0  0  -0.0059  0.075736  0  3.973783  0
C  C101  1  0.04860015  0.60169375  0.23285513  1  0  0.055889  0  3.765933  0  -0.019394  0  0.074848  0  3.989758  0  0  0.073386  0  4.013349  0  0  -0.005855  0.075716  0  3.973828  0
C  C102  1  0.04861094  0.10169670  0.26714474  1  0  0.055925  0  3.765847  0  -0.019551  0  0.074897  0  3.989645  0  0  0.073438  0  4.013229  0  0  -0.005859  0.075742  0  3.973752  0
C  C103  1  0.95139535  0.39829886  0.76714371  1  0  0.055888  0  3.765967  0  -0.019215  0  0.074824  0  3.989764  0  0  0.073364  0  4.013353  0  0  -0.005876  0.07567  0  3.973872  0
C  C104  1  0.82764625  0.91963838  0.77452908  1  0  -0.092982  0  3.730508  0  -0.07667  0  -0.118675  0  3.982548  0  0  -0.117614  0  4.001546  0  0  -0.084858  -0.119242  0  3.969701  0
C  C105  1  0.17235362  0.58036247  0.27452921  1  0  -0.093045  0  3.730595  0  -0.076606  0  -0.118756  0  3.982661  0  0  -0.117698  0  4.001655  0  0  -0.084896  -0.119326  0  3.969815  0
C  C106  1  0.17236041  0.08036153  0.22547306  1  0  -0.093022  0  3.730808  0  -0.076345  0  -0.118736  0  3.982865  0  0  -0.117683  0  4.001856  0  0  -0.084857  -0.119297  0  3.970023  0
C  C107  1  0.82764204  0.41963378  0.72547199  1  0  -0.093079  0  3.730764  0  -0.076646  0  -0.118754  0  3.9828  0  0  -0.117698  0  4.001792  0  0  -0.084848  -0.119315  0  3.969955  0
C  C108  1  0.65529494  0.85936107  0.75961620  1  0  -0.070171  0  3.775244  0  0.004216  0  -0.081255  0  4.028564  0  0  -0.085287  0  4.048935  0  0  -0.094378  -0.078647  0  4.014774  0
C  C109  1  0.34470331  0.64063242  0.25961551  1  0  -0.070126  0  3.775182  0  0.003881  0  -0.081247  0  4.028526  0  0  -0.085277  0  4.048893  0  0  -0.094393  -0.078638  0  4.014738  0
C  C110  1  0.34470537  0.14063155  0.24038547  1  0  -0.070245  0  3.775337  0  0.004066  0  -0.081364  0  4.028684  0  0  -0.085391  0  4.049051  0  0  -0.09445  -0.078758  0  4.014896  0
C  C111  1  0.65529745  0.35936142  0.74038333  1  0  -0.070093  0  3.775349  0  0.004204  0  -0.08118  0  4.028664  0  0  -0.085211  0  4.049029  0  0  -0.094358  -0.078573  0  4.014873  0
C  C112  1  0.60017403  0.77757643  0.70197135  1  0  -0.076741  0  3.786183  0  -0.021079  0  -0.102747  0  4.036601  0  0  -0.100782  0  4.056061  0  0  -0.091855  -0.103779  0  4.023321  0
C  C113  1  0.39982168  0.72242036  0.20197168  1  0  -0.076747  0  3.786055  0  -0.020647  0  -0.102795  0  4.03646  0  0  -0.100832  0  4.055923  0  0  -0.091836  -0.103825  0  4.023178  0
C  C114  1  0.39982645  0.22241983  0.29803126  1  0  -0.076664  0  3.786001  0  -0.020795  0  -0.102695  0  4.036392  0  0  -0.100734  0  4.055857  0  0  -0.091819  -0.103725  0  4.023112  0
C  C115  1  0.60017398  0.27757589  0.79802904  1  0  -0.076755  0  3.786166  0  -0.020907  0  -0.102784  0  4.036576  0  0  -0.100819  0  4.056036  0  0  -0.091866  -0.103816  0  4.023296  0
S  S116  1  0.73289179  0.16477752  0.51262236  1  0  0.144857  0  2.713473  0  0.081953  0  0.184425  0  3.126713  0  0  0.176979  0  3.121756  0  0  0.020036  0.189454  0  3.130124  0
S  S117  1  0.26711075  0.33522626  0.01262224  1  0  0.144905  0  2.713506  0  0.081939  0  0.184515  0  3.126808  0  0  0.177071  0  3.121856  0  0  0.020078  0.189539  0  3.130205  0
S  S118  1  0.26710855  0.83522480  0.48737789  1  0  0.14482  0  2.713388  0  0.081952  0  0.184429  0  3.12664  0  0  0.176983  0  3.121689  0  0  0.020021  0.189456  0  3.130042  0
S  S119  1  0.73289366  0.66477728  0.98737802  1  0  0.144813  0  2.713421  0  0.081968  0  0.184417  0  3.126685  0  0  0.176972  0  3.121729  0  0  0.020018  0.189444  0  3.130093  0
S  S120  1  0.04979558  0.32309493  0.58929562  1  0  0.088397  0  2.736111  0  0.055454  0  0.134115  0  3.154797  0  0  0.12594  0  3.149052  0  0  -0.002134  0.139657  0  3.158674  0
S  S121  1  0.95021069  0.17691172  0.08929572  1  0  0.088285  0  2.736159  0  0.05524  0  0.134047  0  3.154857  0  0  0.125873  0  3.149114  0  0  -0.002183  0.139585  0  3.158721  0
S  S122  1  0.95020567  0.67690981  0.41070558  1  0  0.088288  0  2.73624  0  0.055273  0  0.134038  0  3.154919  0  0  0.125863  0  3.149174  0  0  -0.002196  0.139578  0  3.158791  0
S  S123  1  0.04979538  0.82309303  0.91070501  1  0  0.08833  0  2.73614  0  0.055313  0  0.134083  0  3.15484  0  0  0.125905  0  3.149096  0  0  -0.002156  0.139623  0  3.158711  0
S  S124  1  0.63599144  0.66006278  0.58613624  1  0  1.286811  0  5.660314  0  3.209096  0  1.191806  0  6.171373  0  0  1.240221  0  6.148313  0  0  0.496457  1.158383  0  6.186142  0
S  S125  1  0.36400788  0.83993820  0.08613710  1  0  1.286974  0  5.660504  0  3.209103  0  1.191936  0  6.171554  0  0  1.240355  0  6.148488  0  0  0.496512  1.158513  0  6.186322  0
S  S126  1  0.36400845  0.33993833  0.41386496  1  0  1.286962  0  5.660281  0  3.208917  0  1.191921  0  6.171325  0  0  1.240334  0  6.148269  0  0  0.496499  1.158496  0  6.1861  0
S  S127  1  0.63598961  0.16006290  0.91386362  1  0  1.287081  0  5.660043  0  3.209109  0  1.192074  0  6.171088  0  0  1.24049  0  6.148023  0  0  0.496578  1.158652  0  6.18586  0
O  O128  1  0.68337793  0.51374828  0.58345366  1  0  -0.66094  0  1.997418  0  -1.346771  0  -0.593767  0  2.266242  0  0  -0.617166  0  2.250923  0  0  -0.352809  -0.57714  0  2.276135  0
O  O129  1  0.31661593  0.98624782  0.08345649  1  0  -0.660998  0  1.997567  0  -1.346788  0  -0.593809  0  2.26639  0  0  -0.617209  0  2.251067  0  0  -0.352818  -0.577184  0  2.276286  0
O  O130  1  0.31661743  0.48625039  0.41654565  1  0  -0.660924  0  1.997382  0  -1.346815  0  -0.593786  0  2.266252  0  0  -0.617185  0  2.250932  0  0  -0.35281  -0.577159  0  2.276149  0
O  O131  1  0.68337944  0.01375085  0.91654659  1  0  -0.661017  0  1.997398  0  -1.346747  0  -0.593862  0  2.266255  0  0  -0.617265  0  2.250931  0  0  -0.352833  -0.577237  0  2.276153  0
O  O132  1  0.72068050  0.77875104  0.53690352  1  0  -0.671887  0  1.97407  0  -1.366348  0  -0.621348  0  2.227124  0  0  -0.642681  0  2.214656  0  0  -0.344085  -0.606145  0  2.235115  0
O  O133  1  0.27932382  0.72125088  0.03690238  1  0  -0.671956  0  1.974017  0  -1.366348  0  -0.621439  0  2.227118  0  0  -0.642773  0  2.214648  0  0  -0.344137  -0.606236  0  2.235109  0
O  O134  1  0.27932076  0.22125370  0.46309909  1  0  -0.671985  0  1.974022  0  -1.366284  0  -0.621433  0  2.227087  0  0  -0.642765  0  2.21462  0  0  -0.344161  -0.60623  0  2.235079  0
O  O135  1  0.72067350  0.27874659  0.96309834  1  0  -0.671962  0  1.973906  0  -1.366362  0  -0.62145  0  2.226998  0  0  -0.642782  0  2.214528  0  0  -0.34419  -0.606246  0  2.23499  0
O  O136  1  0.44905704  0.62212623  0.58959424  1  0  -0.673013  0  2.044315  0  -1.338156  0  -0.613387  0  2.322829  0  0  -0.635392  0  2.305892  0  0  -0.355274  -0.59784  0  2.333989  0
O  O137  1  0.55093959  0.87787718  0.08959570  1  0  -0.673012  0  2.044392  0  -1.338101  0  -0.613421  0  2.322954  0  0  -0.635422  0  2.306006  0  0  -0.355262  -0.597874  0  2.334113  0
O  O138  1  0.55094089  0.37787608  0.41040601  1  0  -0.673011  0  2.044317  0  -1.338049  0  -0.613432  0  2.322913  0  0  -0.635427  0  2.305956  0  0  -0.355266  -0.597884  0  2.334074  0
O  O139  1  0.44905640  0.12212633  0.91040456  1  0  -0.673082  0  2.044264  0  -1.338168  0  -0.613467  0  2.322783  0  0  -0.635469  0  2.305841  0  0  -0.355278  -0.59792  0  2.333946  0
