# generated using pymatgen
data_Cu5H36C20S2(I3N4)2
_symmetry_space_group_name_H-M   'P 1'
_cell_length_a   8.06482416
_cell_length_b   9.87431289
_cell_length_c   12.95670111
_cell_angle_alpha   98.76769344
_cell_angle_beta   104.10496049
_cell_angle_gamma   112.10048474
_symmetry_Int_Tables_number   1
_chemical_formula_structural   Cu5H36C20S2(I3N4)2
_chemical_formula_sum   'Cu5 H36 C20 S2 I6 N8'
_cell_volume   892.29918734
_cell_formula_units_Z   1
loop_
 _symmetry_equiv_pos_site_id
 _symmetry_equiv_pos_as_xyz
  1  'x, y, z'
loop_
 _atom_site_type_symbol
 _atom_site_label
 _atom_site_symmetry_multiplicity
 _atom_site_fract_x
 _atom_site_fract_y
 _atom_site_fract_z
 _atom_site_occupancy
 _atom_site_hle17_ddec_charge
 _atom_site_hle17_ddec_spin_density
 _atom_site_hle17_ddec_sum_bond_order
 _atom_site_hle17_magmom
 _atom_site_hse06_10hf_ddec_charge
 _atom_site_hse06_10hf_ddec_spin_density
 _atom_site_hse06_10hf_ddec_sum_bond_order
 _atom_site_hse06_10hf_magmom
 _atom_site_hse06_ddec_charge
 _atom_site_hse06_ddec_spin_density
 _atom_site_hse06_ddec_sum_bond_order
 _atom_site_hse06_magmom
 _atom_site_pbe_cm5_charge
 _atom_site_pbe_ddec_charge
 _atom_site_pbe_ddec_spin_density
 _atom_site_pbe_ddec_sum_bond_order
 _atom_site_pbe_magmom
Cu  Cu0  1  0.99999908  0.49999946  0.50000184  1  0.570351  -0.413184  2.037115  -0.31  0.566957  -0.588408  2.428531  -0.449  0.663056  -0.721237  2.361114  -0.57  0.557365  0.51328  -0.479719  2.47516  -0.367
Cu  Cu1  1  0.58897992  0.55062522  0.39761867  1  0.304893  -0.07763  2.193062  -0.061  0.229615  -0.043382  2.683975  -0.034  0.234292  -0.013134  2.638641  -0.01  0.20437  0.232641  -0.075737  2.710257  -0.06
Cu  Cu2  1  0.41104793  0.44937420  0.60238328  1  0.304808  -0.077638  2.193141  -0.061  0.229517  -0.043384  2.684082  -0.034  0.234196  -0.013135  2.638742  -0.01  0.204313  0.232543  -0.075759  2.710351  -0.06
Cu  Cu3  1  0.54187051  0.59052182  0.09353737  1  0.227306  -0.019649  2.073981  -0.015  0.139123  -0.00416  2.567061  -0.003  0.160713  -0.000509  2.50799  0.0  0.152512  0.12809  -0.016472  2.603179  -0.013
Cu  Cu4  1  0.45813761  0.40948186  0.90645459  1  0.227226  -0.019647  2.074053  -0.015  0.139032  -0.00416  2.567143  -0.003  0.160611  -0.000509  2.508097  0.0  0.15247  0.128002  -0.016473  2.603245  -0.013
H  H5  1  0.32186233  0.85008667  0.58021238  1  0.068361  0.000198  0.944776  0.0  0.087455  0.000163  1.002274  0.0  0.087612  0.000151  1.002655  0.0  0.093889  0.087266  0.000122  1.002233  0.0
H  H6  1  0.67811559  0.14991229  0.41978789  1  0.068408  0.000204  0.944674  0.0  0.087462  0.000163  1.002217  0.0  0.087629  0.000151  1.002596  0.0  0.093876  0.08727  0.000122  1.002181  0.0
H  H7  1  0.10679759  0.86090693  0.57721674  1  0.064534  -6.1e-05  0.952565  0.0  0.078506  -0.000136  1.022317  0.0  0.079703  -0.000128  1.021798  0.0  0.086793  0.077312  -0.000134  1.02256  0.0
H  H8  1  0.89318491  0.13910563  0.42278578  1  0.064627  -5.5e-05  0.952548  0.0  0.07853  -0.000136  1.022299  0.0  0.079742  -0.000128  1.021778  0.0  0.086822  0.077333  -0.000134  1.022544  0.0
H  H9  1  0.14621338  0.01943567  0.45351900  1  0.06801  -3.7e-05  0.938416  0.0  0.082141  -8.8e-05  1.00588  0.0  0.083718  -6.1e-05  1.004885  0.0  0.094574  0.0798  -0.000123  1.008435  0.0
H  H10  1  0.85379010  0.98057819  0.54648123  1  0.068028  -5.2e-05  0.938514  0.0  0.082171  -8.8e-05  1.005998  0.0  0.083749  -6.1e-05  1.005001  0.0  0.09457  0.079829  -0.000123  1.008554  0.0
H  H11  1  0.37008216  0.02026361  0.46548455  1  0.069584  9.6e-05  0.928184  0.0  0.086052  1.2e-05  0.98786  0.0  0.087078  1e-05  0.987416  0.0  0.099185  0.084959  -3.5e-05  0.988603  0.0
H  H12  1  0.62990993  0.97973322  0.53451593  1  0.069625  0.000103  0.928227  0.0  0.086111  1.2e-05  0.987903  0.0  0.087138  1e-05  0.987459  0.0  0.099209  0.085018  -3.5e-05  0.988649  0.0
H  H13  1  0.02684348  0.97489948  0.26731678  1  0.057019  8.5e-05  0.946678  0.0  0.074644  8.2e-05  1.01257  0.0  0.075626  0.000117  1.012148  0.0  0.093888  0.073015  5.9e-05  1.013994  0.0
H  H14  1  0.97315489  0.02510750  0.73267497  1  0.056965  8.7e-05  0.946775  0.0  0.074634  8.2e-05  1.01263  0.0  0.075613  0.000116  1.012209  0.0  0.093889  0.073007  5.9e-05  1.014059  0.0
H  H15  1  0.95869795  0.79676056  0.17805305  1  0.041918  -8.3e-05  1.013199  0.0  0.051466  -8.8e-05  1.09433  0.0  0.052537  -4.4e-05  1.093212  0.0  0.082345  0.050015  -0.000111  1.095722  0.0
H  H16  1  0.04130080  0.20324194  0.82194363  1  0.041867  -8.6e-05  1.013279  0.0  0.051474  -8.8e-05  1.094337  0.0  0.052544  -4.5e-05  1.093217  0.0  0.082342  0.050026  -0.000111  1.09573  0.0
H  H17  1  0.18958734  0.99758942  0.12408911  1  0.100328  -6.8e-05  0.962966  0.0  0.121472  -6.6e-05  1.026961  0.0  0.122942  -4.8e-05  1.027122  0.0  0.077737  0.119981  -6.7e-05  1.027037  0.0
H  H18  1  0.81041100  0.00240743  0.87590684  1  0.100308  -7e-05  0.962993  0.0  0.121467  -6.6e-05  1.026967  0.0  0.122935  -4.8e-05  1.027131  0.0  0.077734  0.119975  -6.7e-05  1.027045  0.0
H  H19  1  0.30567055  0.88829300  0.17867416  1  0.091977  3e-05  0.972431  0.0  0.111323  2.7e-05  1.040646  0.0  0.112375  2.4e-05  1.041276  0.0  0.0748  0.110437  3.9e-05  1.040235  0.0
H  H20  1  0.69432272  0.11170382  0.82132340  1  0.091941  2.9e-05  0.972428  0.0  0.111286  2.8e-05  1.040657  0.0  0.112337  2.3e-05  1.041288  0.0  0.074782  0.110399  3.9e-05  1.040244  0.0
H  H21  1  0.35332251  0.06973425  0.25993136  1  0.100422  -0.000239  0.970987  0.0  0.118531  -0.000345  1.039788  0.0  0.120499  -0.000251  1.03902  0.0  0.077988  0.116854  -0.000407  1.04112  0.0
H  H22  1  0.64668025  0.93026377  0.74006458  1  0.100438  -0.000237  0.970949  0.0  0.118523  -0.000345  1.039783  0.0  0.120494  -0.000251  1.03901  0.0  0.077983  0.116844  -0.000407  1.041119  0.0
H  H23  1  0.18134253  0.55664685  0.20184515  1  0.07771  2.4e-05  0.964904  0.0  0.08623  1.5e-05  1.040459  0.0  0.088425  1.5e-05  1.039379  0.0  0.090105  0.083812  2.3e-05  1.041966  0.0
H  H24  1  0.81866092  0.44336374  0.79816858  1  0.077798  3e-05  0.964879  0.0  0.08625  1.5e-05  1.040503  0.0  0.088459  1.6e-05  1.039411  0.0  0.090091  0.08385  2.3e-05  1.041995  0.0
H  H25  1  0.06177089  0.65030672  0.12722798  1  0.077837  -9e-05  0.964541  0.0  0.095154  -0.000108  1.027133  0.0  0.095807  -9.2e-05  1.027658  0.0  0.106958  0.094209  -0.000103  1.02729  0.0
H  H26  1  0.93822845  0.34968909  0.87277726  1  0.077766  -9.3e-05  0.96459  0.0  0.095191  -0.000108  1.027059  0.0  0.095833  -9.2e-05  1.027599  0.0  0.106997  0.094245  -0.000103  1.027217  0.0
H  H27  1  0.79691139  0.41647228  0.01692320  1  0.060356  -0.000181  0.954479  0.0  0.068605  -0.000353  1.037201  -0.001  0.072154  -0.000319  1.031789  -0.001  0.087892  0.065486  -0.000309  1.041271  -0.001
H  H28  1  0.20310135  0.58352250  0.98307994  1  0.060405  -0.00018  0.95439  0.0  0.068659  -0.000353  1.03711  -0.001  0.072206  -0.000319  1.031698  -0.001  0.087935  0.065537  -0.000308  1.041182  -0.001
H  H29  1  0.96270115  0.33626499  0.05560984  1  0.07871  -0.000344  0.964922  -0.001  0.094175  -0.000495  1.026829  -0.001  0.096214  -0.000385  1.026064  -0.001  0.097079  0.092004  -0.000492  1.027939  -0.001
H  H30  1  0.03732233  0.66373784  0.94439962  1  0.078785  -0.000343  0.964888  -0.001  0.094255  -0.000495  1.026761  -0.001  0.096294  -0.000384  1.025997  -0.001  0.0971  0.092084  -0.000491  1.027872  -0.001
H  H31  1  0.58276718  0.14444476  0.03470191  1  0.06182  -0.000298  0.934336  0.0  0.082617  -0.000398  0.993496  -0.001  0.082982  -0.000286  0.99347  0.0  0.101921  0.08161  -0.000452  0.993971  -0.001
H  H32  1  0.41723809  0.85555327  0.96529284  1  0.061837  -0.000297  0.934376  0.0  0.082628  -0.000398  0.993497  -0.001  0.082995  -0.000285  0.993468  0.0  0.101928  0.08162  -0.000452  0.993975  -0.001
H  H33  1  0.56845982  0.15335177  0.16938106  1  0.073709  -0.000839  0.961291  0.0  0.091422  -0.001006  1.022663  0.0  0.092114  -0.000783  1.0232  0.0  0.102261  0.090529  -0.001048  1.023295  0.0
H  H34  1  0.43153938  0.84664172  0.83061693  1  0.073893  -0.000837  0.961204  0.0  0.091532  -0.001005  1.02261  0.0  0.092205  -0.000783  1.023169  0.0  0.102327  0.090638  -0.001048  1.023243  0.0
H  H35  1  0.68036510  0.95614384  0.11406032  1  0.094978  -3.8e-05  0.994327  0.0  0.112393  -6.9e-05  1.066096  0.0  0.114068  -5.2e-05  1.065867  0.0  0.073018  0.111027  -7.4e-05  1.06585  0.0
H  H36  1  0.31965645  0.04385098  0.88593866  1  0.095001  -3.7e-05  0.994438  0.0  0.112435  -6.9e-05  1.06616  0.0  0.114103  -5.2e-05  1.065938  0.0  0.073046  0.111068  -7.4e-05  1.065914  0.0
H  H37  1  0.85990562  0.10764391  0.22727529  1  0.102762  -0.000227  0.980348  0.0  0.12162  -4.1e-05  1.047846  0.0  0.123249  7e-06  1.048264  0.0  0.076481  0.120333  -0.000111  1.047584  0.0
H  H38  1  0.14011049  0.89236448  0.77273148  1  0.102715  -0.000236  0.980449  0.0  0.121594  -4.1e-05  1.047912  0.0  0.123227  7e-06  1.048333  0.0  0.076459  0.120306  -0.00011  1.047652  0.0
H  H39  1  0.87564454  0.09445532  0.09189612  1  0.099544  1e-05  0.95667  0.0  0.120231  -1.9e-05  1.020045  0.0  0.12193  -1.3e-05  1.01992  0.0  0.079996  0.118696  -4.1e-05  1.020276  0.0
H  H40  1  0.12436860  0.90555750  0.90810457  1  0.099589  -3e-06  0.956612  0.0  0.120216  -1.9e-05  1.020056  0.0  0.121906  -1.3e-05  1.019938  0.0  0.079988  0.118681  -4.1e-05  1.020287  0.0
C  C41  1  0.18814970  0.83966875  0.52503103  1  0.024347  -0.00099  3.62726  -0.001  -0.027457  -0.001206  3.883108  -0.001  -0.022202  -0.000772  3.895129  0.0  -0.073089  -0.030299  -0.001248  3.874274  -0.001
C  C42  1  0.81183183  0.16033704  0.47497133  1  0.02427  -0.001031  3.627337  -0.001  -0.027331  -0.001205  3.883093  -0.001  -0.022115  -0.000771  3.895141  0.0  -0.073082  -0.030181  -0.001248  3.874286  -0.001
C  C43  1  0.21990443  0.94592104  0.44877724  1  -0.003045  -0.00239  3.591216  -0.003  -0.059839  -0.002257  3.84121  -0.002  -0.055507  -0.001962  3.849755  -0.002  -0.057561  -0.062729  -0.002095  3.836453  -0.002
C  C44  1  0.78008538  0.05408139  0.55121971  1  -0.00312  -0.002363  3.591396  -0.003  -0.060045  -0.002258  3.84148  -0.002  -0.05571  -0.001962  3.850035  -0.002  -0.057608  -0.062932  -0.002095  3.836721  -0.002
C  C45  1  0.07999618  0.89190750  0.24202226  1  0.055313  -0.000462  3.685018  -0.001  0.000524  -0.000471  3.937238  -0.001  0.005364  -0.000397  3.949247  -0.001  -0.071628  -0.002496  -0.000478  3.930124  -0.001
C  C46  1  0.91999817  0.10809384  0.75797521  1  0.055355  -0.000464  3.685347  -0.001  0.000513  -0.00047  3.937444  -0.001  0.005366  -0.000397  3.949436  -0.001  -0.071618  -0.002529  -0.000478  3.930357  -0.001
C  C47  1  0.24194270  0.96534263  0.19856572  1  -0.314082  -0.000197  3.702023  0.0  -0.388877  -0.000355  3.943304  0.0  -0.391947  -0.000229  3.952283  0.0  -0.257109  -0.386578  -0.00043  3.937805  0.0
C  C48  1  0.75805378  0.03465308  0.80143061  1  -0.314014  -0.000198  3.702008  0.0  -0.388835  -0.000354  3.943323  0.0  -0.391906  -0.000228  3.952297  0.0  -0.2571  -0.386531  -0.000429  3.937834  0.0
C  C49  1  0.05557399  0.69628657  0.34853479  1  0.503365  0.004452  3.806531  0.003  0.444711  0.001621  4.088281  0.001  0.478347  0.00278  4.091822  0.001  0.346382  0.422083  0.000765  4.086579  0.0
C  C50  1  0.94440034  0.30370785  0.65146676  1  0.503521  0.004439  3.806538  0.003  0.44483  0.001621  4.088371  0.001  0.478464  0.002781  4.091908  0.001  0.346489  0.42221  0.000765  4.086651  0.0
C  C51  1  0.04327524  0.55740516  0.16609529  1  -0.000859  0.000429  3.567051  0.0  -0.062765  0.000246  3.814955  0.0  -0.058467  0.000274  3.824243  0.0  -0.056363  -0.065305  0.000205  3.809716  0.0
C  C52  1  0.95673141  0.44259976  0.83391128  1  -0.000914  0.000436  3.56708  0.0  -0.062874  0.000246  3.815028  0.0  -0.058579  0.000273  3.824317  0.0  -0.056419  -0.065433  0.000205  3.809776  0.0
C  C53  1  0.89598693  0.40458191  0.08696804  1  -0.007682  0.00039  3.595785  0.001  -0.063203  -5e-05  3.83866  0.0  -0.060867  0.000226  3.848864  0.0  -0.055165  -0.064338  -0.000224  3.832865  0.0
C  C54  1  0.10402631  0.59541854  0.91303816  1  -0.007969  0.000382  3.595764  0.001  -0.063477  -4.9e-05  3.838665  0.0  -0.061142  0.000226  3.84887  0.0  -0.055235  -0.064611  -0.000224  3.83288  0.0
C  C55  1  0.82541251  0.43347099  0.24990351  1  0.347711  0.003386  3.753474  0.005  0.295541  -0.001421  4.059949  0.002  0.326473  -0.000153  4.063395  0.002  0.239738  0.275524  -0.002875  4.059167  0.0
C  C56  1  0.17458615  0.56652366  0.75009917  1  0.347648  0.003363  3.753678  0.005  0.295509  -0.00142  4.060123  0.002  0.326434  -0.000152  4.063578  0.002  0.239784  0.275494  -0.002874  4.059333  0.0
C  C57  1  0.66689620  0.17212976  0.12211037  1  0.056938  -0.000388  3.654741  0.0  -0.000275  -0.00097  3.906891  -0.001  0.004152  -0.000605  3.919086  0.0  -0.062319  -0.003053  -0.001147  3.899303  -0.001
C  C58  1  0.33310590  0.82786939  0.87788639  1  0.056711  -0.000404  3.655041  0.0  -0.000371  -0.000971  3.907076  -0.001  0.004067  -0.000605  3.91927  0.0  -0.062362  -0.003147  -0.001146  3.899488  -0.001
C  C59  1  0.77741879  0.07738096  0.13956439  1  -0.312311  -0.00059  3.690322  -0.001  -0.386528  -0.000535  3.929768  -0.001  -0.390647  -0.000388  3.939958  0.0  -0.25529  -0.383455  -0.000698  3.922966  -0.001
C  C60  1  0.22260068  0.92262179  0.86043986  1  -0.312307  -0.000554  3.690709  -0.001  -0.386501  -0.000534  3.930129  -0.001  -0.390612  -0.000388  3.940317  0.0  -0.255302  -0.383427  -0.000698  3.923324  -0.001
S  S61  1  0.71188991  0.38990719  0.34275126  1  -0.29562  -0.084621  2.62373  -0.094  -0.294977  -0.080067  3.081616  -0.09  -0.314059  -0.067079  3.055691  -0.081  -0.167528  -0.294941  -0.07681  3.106167  -0.084
S  S62  1  0.28810722  0.61007499  0.65724665  1  -0.295554  -0.084633  2.623576  -0.094  -0.294903  -0.080081  3.08142  -0.09  -0.313993  -0.067091  3.055513  -0.081  -0.167499  -0.294865  -0.07683  3.105959  -0.084
I  I63  1  0.24883810  0.35116079  0.38420832  1  -0.408084  -0.040027  1.486333  -0.031  -0.388076  -0.007768  1.915309  -0.007  -0.413618  -0.000241  1.881665  -0.002  -0.208828  -0.366534  -0.016882  1.937077  -0.013
I  I64  1  0.75116825  0.64884633  0.61579229  1  -0.408078  -0.040017  1.486481  -0.031  -0.388074  -0.007769  1.915501  -0.007  -0.413617  -0.000242  1.881858  -0.002  -0.208832  -0.366531  -0.016875  1.937267  -0.013
I  I65  1  0.60122910  0.74837799  0.28430186  1  -0.371964  -0.007728  1.583495  -0.006  -0.31595  -0.00115  2.031556  -0.001  -0.337325  0.000125  1.993492  0.0  -0.186594  -0.297862  -0.003875  2.053845  -0.003
I  I66  1  0.39876164  0.25161197  0.71568757  1  -0.371917  -0.007725  1.583539  -0.006  -0.315886  -0.001151  2.031598  -0.001  -0.33725  0.000123  1.993521  0.0  -0.186588  -0.297818  -0.003875  2.053889  -0.003
I  I67  1  0.30088116  0.31042709  0.04611710  1  -0.346791  -0.014615  1.587178  -0.011  -0.287374  -0.005321  2.012227  -0.004  -0.307512  -0.002636  1.973703  -0.002  -0.153524  -0.268904  -0.009826  2.035089  -0.007
I  I68  1  0.69912524  0.68957091  0.95387318  1  -0.34678  -0.014617  1.587177  -0.011  -0.287361  -0.005323  2.012216  -0.004  -0.307499  -0.002636  1.973697  -0.002  -0.153543  -0.268888  -0.009826  2.035078  -0.007
N  N69  1  0.08155978  0.68418225  0.44995276  1  -0.491018  -0.040425  3.221154  -0.052  -0.434604  -0.041852  3.530688  -0.054  -0.472301  -0.041553  3.54596  -0.056  -0.416971  -0.413678  -0.035368  3.524702  -0.044
N  N70  1  0.91841872  0.31582012  0.55005032  1  -0.491031  -0.040403  3.221385  -0.052  -0.43471  -0.041857  3.530948  -0.054  -0.472438  -0.041559  3.546312  -0.056  -0.416982  -0.41376  -0.035374  3.524887  -0.044
N  N71  1  0.13576058  0.83917077  0.33806099  1  -0.229399  0.000512  3.344307  0.0  -0.135704  -0.000287  3.574128  -0.001  -0.154848  0.000491  3.592349  0.0  -0.282688  -0.123639  -0.000634  3.56209  -0.001
N  N72  1  0.86421818  0.16082255  0.66193797  1  -0.229551  0.000503  3.344503  0.0  -0.135757  -0.000286  3.574299  -0.001  -0.154897  0.000494  3.592507  0.0  -0.282767  -0.123689  -0.000632  3.562261  -0.001
N  N73  1  0.95966360  0.57360136  0.25478851  1  -0.263621  -0.000711  3.414554  -0.002  -0.180775  -0.001038  3.660493  -0.002  -0.202981  -0.000505  3.674214  -0.002  -0.25208  -0.166943  -0.001248  3.651891  -0.002
N  N74  1  0.04032396  0.42639428  0.74520887  1  -0.263511  -0.000717  3.414386  -0.002  -0.180676  -0.001039  3.660329  -0.002  -0.202872  -0.000506  3.67404  -0.002  -0.252041  -0.166851  -0.001249  3.65174  -0.002
N  N75  1  0.79186569  0.33354336  0.15644921  1  -0.150147  -0.010071  3.436299  -0.013  -0.050617  -0.012449  3.659579  -0.016  -0.067596  -0.010969  3.680685  -0.015  -0.261832  -0.04155  -0.011783  3.646392  -0.015
N  N76  1  0.20813879  0.66644794  0.84355081  1  -0.149972  -0.010067  3.436484  -0.013  -0.050504  -0.012446  3.659744  -0.016  -0.067469  -0.010967  3.680837  -0.015  -0.261866  -0.041443  -0.01178  3.646559  -0.015
