# generated using pymatgen
data_TbH23C30NO9
_symmetry_space_group_name_H-M   'P 1'
_cell_length_a   9.82457844
_cell_length_b   12.10763566
_cell_length_c   14.62790000
_cell_angle_alpha   109.75367798
_cell_angle_beta   103.61981241
_cell_angle_gamma   100.13140228
_symmetry_Int_Tables_number   1
_chemical_formula_structural   TbH23C30NO9
_chemical_formula_sum   'Tb2 H46 C60 N2 O18'
_cell_volume   1528.23155026
_cell_formula_units_Z   2
loop_
 _symmetry_equiv_pos_site_id
 _symmetry_equiv_pos_as_xyz
  1  'x, y, z'
loop_
 _atom_site_type_symbol
 _atom_site_label
 _atom_site_symmetry_multiplicity
 _atom_site_fract_x
 _atom_site_fract_y
 _atom_site_fract_z
 _atom_site_occupancy
 _atom_site_hle17_bader_spin_density
 _atom_site_hle17_ddec_charge
 _atom_site_hle17_ddec_spin_density
 _atom_site_hle17_ddec_sum_bond_order
 _atom_site_hle17_magmom
 _atom_site_hse06_10hf_bader_spin_density
 _atom_site_hse06_10hf_ddec_charge
 _atom_site_hse06_10hf_ddec_spin_density
 _atom_site_hse06_10hf_ddec_sum_bond_order
 _atom_site_hse06_10hf_magmom
 _atom_site_hse06_bader_spin_density
 _atom_site_hse06_ddec_charge
 _atom_site_hse06_ddec_spin_density
 _atom_site_hse06_ddec_sum_bond_order
 _atom_site_hse06_magmom
 _atom_site_pbe_bader_charge
 _atom_site_pbe_bader_spin_density
 _atom_site_pbe_cm5_charge
 _atom_site_pbe_ddec_charge
 _atom_site_pbe_ddec_spin_density
 _atom_site_pbe_ddec_sum_bond_order
 _atom_site_pbe_magmom
Tb  Tb0  1  0.75820360  0.02137073  0.99728434  1  0  2.301535  0  1.640685  0  0  2.228385  0  1.976284  0  0  2.274532  0  1.933162  0  2.202829  0  1.494299  2.120708  0  2.144515  0
Tb  Tb1  1  0.24179588  0.97862849  0.00271522  1  0  2.301529  0  1.640705  0  0  2.228377  0  1.976305  0  0  2.274524  0  1.933183  0  2.202813  0  1.494294  2.120696  0  2.144542  0
H  H2  1  0.94534093  0.20909011  0.97525756  1  0  0.417696  0  0.841424  0  0  0.401076  0  0.895912  0  0  0.409175  0  0.886806  0  0.607755  0  0.31613  0.395095  0  0.901402  0
H  H3  1  0.05465855  0.79090912  0.02474200  1  0  0.417725  0  0.841388  0  0  0.401104  0  0.895877  0  0  0.409204  0  0.88677  0  0.607762  0  0.316139  0.395123  0  0.901367  0
H  H4  1  0.05583590  0.19807892  0.06572129  1  0  0.437265  0  0.865816  0  0  0.405559  0  0.931866  0  0  0.416403  0  0.915979  0  0.646685  0  0.297729  0.397506  0  0.943334  0
H  H5  1  0.94416492  0.80192122  0.93427874  1  0  0.437278  0  0.865801  0  0  0.405568  0  0.931856  0  0  0.416412  0  0.915968  0  0.646686  0  0.297728  0.397516  0  0.943323  0
H  H6  1  0.55972852  0.91458300  0.08337602  1  0  0.428351  0  0.86612  0  0  0.399575  0  0.931015  0  0  0.409327  0  0.916619  0  0.624892  0  0.303872  0.392669  0  0.940799  0
H  H7  1  0.44027126  0.08541714  0.91662384  1  0  0.428354  0  0.866116  0  0  0.39958  0  0.931006  0  0  0.409332  0  0.916611  0  0.624893  0  0.303876  0.392674  0  0.940791  0
H  H8  1  0.61599332  0.80979027  0.01725132  1  0  0.417254  0  0.894217  0  0  0.384896  0  0.960997  0  0  0.397169  0  0.943124  0  0.648094  0  0.285573  0.376292  0  0.973221  0
H  H9  1  0.38400751  0.19020987  0.98274940  1  0  0.417251  0  0.894221  0  0  0.384893  0  0.961  0  0  0.397167  0  0.943127  0  0.648092  0  0.28557  0.376289  0  0.973224  0
H  H10  1  0.42261921  0.11580209  0.27557016  1  0  0.116901  0  0.951613  0  0  0.123453  0  1.019048  0  0  0.127619  0  1.016081  0  0.119456  0  0.1109  0.120432  0  1.021038  0
H  H11  1  0.57738027  0.88419713  0.72442940  1  0  0.116889  0  0.951657  0  0  0.123463  0  1.019064  0  0  0.12763  0  1.016104  0  0.11946  0  0.110914  0.120442  0  1.021053  0
H  H12  1  0.80364714  0.36265816  0.28543548  1  0  0.104973  0  0.938453  0  0  0.116463  0  0.997405  0  0  0.120402  0  0.994644  0  0.095249  0  0.105232  0.113302  0  1.00021  0
H  H13  1  0.19635129  0.63734106  0.71456392  1  0  0.104941  0  0.938453  0  0  0.116429  0  0.997409  0  0  0.120365  0  0.994654  0  0.095242  0  0.10522  0.113269  0  1.000215  0
H  H14  1  0.92545458  0.56085224  0.43778948  1  0  0.09504  0  0.94437  0  0  0.108899  0  0.997819  0  0  0.111805  0  0.997148  0  0.087217  0  0.102771  0.106924  0  0.998419  0
H  H15  1  0.07454625  0.43914790  0.56221055  1  0  0.095125  0  0.944364  0  0  0.108944  0  0.997846  0  0  0.111851  0  0.997174  0  0.087224  0  0.102781  0.106969  0  0.998445  0
H  H16  1  0.94580574  0.69827000  0.61237706  1  0  0.095402  0  0.957661  0  0  0.107263  0  1.019051  0  0  0.109315  0  1.019489  0  0.080073  0  0.101258  0.105541  0  1.019539  0
H  H17  1  0.05419509  0.30173014  0.38762297  1  0  0.09538  0  0.957663  0  0  0.107241  0  1.019056  0  0  0.109293  0  1.019494  0  0.080077  0  0.101249  0.105519  0  1.019544  0
H  H18  1  0.85400723  0.74433457  0.76115218  1  0  0.113093  0  0.947672  0  0  0.125416  0  1.005056  0  0  0.128267  0  1.003967  0  0.101326  0  0.110557  0.123032  0  1.006487  0
H  H19  1  0.14599360  0.25566557  0.23884785  1  0  0.113078  0  0.947714  0  0  0.125416  0  1.005081  0  0  0.128266  0  1.003994  0  0.10133  0  0.110566  0.123032  0  1.006512  0
H  H20  1  0.47901421  0.49426233  0.75416429  1  0  0.094431  0  0.957091  0  0  0.102287  0  1.02478  0  0  0.106244  0  1.021915  0  0.058921  0  0.100914  0.099435  0  1.026982  0
H  H21  1  0.52098662  0.50573781  0.24583574  1  0  0.094408  0  0.957113  0  0  0.102277  0  1.024791  0  0  0.106236  0  1.021923  0  0.058908  0  0.100909  0.099425  0  1.026993  0
H  H22  1  0.35829042  0.29523474  0.60271514  1  0  0.088342  0  0.944887  0  0  0.1027  0  0.999226  0  0  0.105789  0  0.998151  0  0.060799  0  0.100272  0.100506  0  1.000113  0
H  H23  1  0.64171041  0.70476540  0.39728489  1  0  0.088345  0  0.94489  0  0  0.102705  0  0.999229  0  0  0.105793  0  0.998154  0  0.060793  0  0.100267  0.10051  0  1.000116  0
H  H24  1  0.33875751  0.15756656  0.42869143  1  0  0.09262  0  0.974544  0  0  0.103994  0  1.035907  0  0  0.10592  0  1.036746  0  0.051786  0  0.0975  0.102466  0  1.035623  0
H  H25  1  0.66124227  0.84243358  0.57130912  1  0  0.092633  0  0.974525  0  0  0.104  0  1.035895  0  0  0.105925  0  1.036734  0  0.051785  0  0.097497  0.102472  0  1.035611  0
H  H26  1  0.86402786  0.08173760  0.25590787  1  0  0.113435  0  0.962598  0  0  0.118412  0  1.033385  0  0  0.122311  0  1.030666  0  0.112907  0  0.110547  0.115892  0  1.034704  0
H  H27  1  0.13597266  0.91826163  0.74409186  1  0  0.113436  0  0.962599  0  0  0.118413  0  1.033389  0  0  0.122312  0  1.030671  0  0.112975  0  0.110544  0.115893  0  1.034709  0
H  H28  1  0.21670030  0.91928341  0.29632031  1  0  0.104383  0  0.946667  0  0  0.114097  0  1.009008  0  0  0.118351  0  1.005724  0  0.093463  0  0.103837  0.110706  0  1.012187  0
H  H29  1  0.78329918  0.08071581  0.70367857  1  0  0.104393  0  0.946654  0  0  0.114107  0  1.008993  0  0  0.11836  0  1.005709  0  0.093451  0  0.103848  0.110715  0  1.012173  0
H  H30  1  0.73922939  0.13327395  0.38806519  1  0  0.09073  0  0.992677  0  0  0.100223  0  1.057284  0  0  0.101737  0  1.059049  0  0.088504  0  0.095405  0.099064  0  1.0563  0
H  H31  1  0.26076934  0.86672619  0.61193451  1  0  0.090726  0  0.992699  0  0  0.100256  0  1.057268  0  0  0.10177  0  1.05903  0  0.088517  0  0.095414  0.099079  0  1.056301  0
H  H32  1  0.29100757  0.86641637  0.44914611  1  0  0.09432  0  0.947271  0  0  0.106343  0  1.005096  0  0  0.10954  0  1.004068  0  0.052329  0  0.099823  0.103959  0  1.006163  0
H  H33  1  0.70899221  0.13358377  0.55085445  1  0  0.094251  0  0.947256  0  0  0.106294  0  1.00507  0  0  0.109491  0  1.004043  0  0.052336  0  0.099788  0.10391  0  1.006137  0
H  H34  1  0.72823914  0.33677346  0.05680408  1  0  0.052492  0  0.898644  0  0  0.062367  0  0.963003  0  0  0.064754  0  0.957078  0  0.145014  0  0.134  0.060336  0  0.967592  0
H  H35  1  0.27176034  0.66322576  0.94319549  1  0  0.052503  0  0.89864  0  0  0.062377  0  0.962995  0  0  0.064767  0  0.957068  0  0.14501  0  0.134011  0.060345  0  0.967585  0
H  H36  1  0.70580995  0.50508434  0.03935771  1  0  0.102341  0  0.925921  0  0  0.12416  0  0.985062  0  0  0.124855  0  0.984764  0  0.034127  0  0.11304  0.123486  0  0.985498  0
H  H37  1  0.29419088  0.49491580  0.96064233  1  0  0.102341  0  0.92592  0  0  0.124171  0  0.985048  0  0  0.124857  0  0.984762  0  0.034133  0  0.113045  0.123499  0  0.985484  0
H  H38  1  0.56408956  0.49254869  0.93113687  1  0  0.108749  0  0.94867  0  0  0.126637  0  1.013975  0  0  0.127676  0  1.013605  0  0.071423  0  0.106083  0.125787  0  1.014369  0
H  H39  1  0.43591096  0.50745053  0.06886286  1  0  0.108735  0  0.948654  0  0  0.126624  0  1.013961  0  0  0.127662  0  1.013591  0  0.07124  0  0.106077  0.125773  0  1.014356  0
H  H40  1  0.74523931  0.51255034  0.92764861  1  0  0.102002  0  0.925439  0  0  0.122931  0  0.984748  0  0  0.123244  0  0.985303  0  0.069304  0  0.104969  0.122513  0  0.984629  0
H  H41  1  0.25476017  0.48744889  0.07235096  1  0  0.101991  0  0.925426  0  0  0.122919  0  0.984737  0  0  0.123231  0  0.985292  0  0.069297  0  0.104965  0.122502  0  0.984617  0
H  H42  1  0.56957794  0.17398372  0.78473487  1  0  0.125147  0  0.930768  0  0  0.145718  0  0.986351  0  0  0.147664  0  0.984821  0  0.097568  0  0.119062  0.14391  0  0.988174  0
H  H43  1  0.43042184  0.82601642  0.21526500  1  0  0.125149  0  0.930765  0  0  0.145717  0  0.986352  0  0  0.147664  0  0.984821  0  0.097567  0  0.11906  0.143908  0  0.988175  0
H  H44  1  0.64395499  0.30697343  0.76400989  1  0  0.097927  0  0.930735  0  0  0.118915  0  0.992185  0  0  0.118706  0  0.993374  0  0.051553  0  0.105591  0.119063  0  0.991274  0
H  H45  1  0.35604510  0.69302762  0.23599096  1  0  0.097935  0  0.930725  0  0  0.118918  0  0.992179  0  0  0.118709  0  0.993368  0  0.051554  0  0.105592  0.119066  0  0.991268  0
H  H46  1  0.46722040  0.28118378  0.77808130  1  0  0.098746  0  0.923144  0  0  0.121522  0  0.981764  0  0  0.121655  0  0.981891  0  0.043888  0  0.107723  0.121308  0  0.981835  0
H  H47  1  0.53277908  0.71881545  0.22191894  1  0  0.098743  0  0.923169  0  0  0.121519  0  0.981786  0  0  0.121652  0  0.981914  0  0.043883  0  0.107721  0.121304  0  0.981858  0
C  C48  1  0.51187440  0.19971762  0.31815663  1  0  -0.116462  0  3.676508  0  0  -0.148605  0  3.928977  0  0  -0.149152  0  3.947092  0  -0.0468  0  -0.079676  -0.147103  0  3.916495  0
C  C49  1  0.48812538  0.80028252  0.68184392  1  0  -0.116472  0  3.676597  0  0  -0.148635  0  3.929065  0  0  -0.149187  0  3.947178  0  -0.046822  0  -0.079691  -0.147131  0  3.91658  0
C  C50  1  0.61266334  0.23180891  0.27155414  1  0  -0.066675  0  3.781568  0  0  -0.046587  0  4.021899  0  0  -0.053953  0  4.044653  0  -0.033526  0  -0.01925  -0.042641  0  4.007976  0
C  C51  1  0.38733749  0.76819123  0.72844521  1  0  -0.066694  0  3.781581  0  0  -0.046611  0  4.021919  0  0  -0.053977  0  4.044674  0  -0.033222  0  -0.019263  -0.042666  0  4.007994  0
C  C52  1  0.72625282  0.34031865  0.32344330  1  0  -0.113374  0  3.691286  0  0  -0.146756  0  3.944732  0  0  -0.147639  0  3.963842  0  -0.063469  0  -0.080738  -0.145938  0  3.933511  0
C  C53  1  0.27374666  0.65968058  0.67655626  1  0  -0.113356  0  3.691275  0  0  -0.146737  0  3.944718  0  0  -0.147615  0  3.96383  0  -0.063737  0  -0.080747  -0.145919  0  3.933499  0
C  C54  1  0.85009508  0.53519785  0.47602582  1  0  -0.114076  0  3.772596  0  0  -0.135497  0  4.026825  0  0  -0.138322  0  4.048056  0  -0.120293  0  -0.090761  -0.132725  0  4.013783  0
C  C55  1  0.14990545  0.46480137  0.52397391  1  0  -0.114177  0  3.772638  0  0  -0.135573  0  4.026871  0  0  -0.138398  0  4.048101  0  -0.120284  0  -0.090752  -0.132801  0  4.01383  0
C  C56  1  0.86187411  0.61084859  0.57270417  1  0  -0.103271  0  3.750698  0  0  -0.124802  0  4.00372  0  0  -0.126927  0  4.025355  0  0.023307  0  -0.087769  -0.124181  0  3.990535  0
C  C57  1  0.13812567  0.38915155  0.42729570  1  0  -0.103229  0  3.750733  0  0  -0.124754  0  4.003741  0  0  -0.126878  0  4.025376  0  0.023294  0  -0.087767  -0.124133  0  3.990556  0
C  C58  1  0.77020296  0.65704385  0.72178209  1  0  -0.101514  0  3.665338  0  0  -0.1332  0  3.912082  0  0  -0.133475  0  3.931499  0  -0.04623  0  -0.08023  -0.133038  0  3.899685  0
C  C59  1  0.22979682  0.34295629  0.27821846  1  0  -0.101524  0  3.665344  0  0  -0.133225  0  3.912083  0  0  -0.1335  0  3.931501  0  -0.046234  0  -0.080242  -0.133063  0  3.899687  0
C  C60  1  0.66845720  0.62630794  0.76838750  1  0  -0.070244  0  3.787577  0  0  -0.050038  0  4.031106  0  0  -0.057519  0  4.055086  0  0.020124  0  -0.022712  -0.045488  0  4.015965  0
C  C61  1  0.33154363  0.37369220  0.23161321  1  0  -0.070206  0  3.787548  0  0  -0.04999  0  4.031088  0  0  -0.057471  0  4.05507  0  0.020437  0  -0.022688  -0.04544  0  4.015948  0
C  C62  1  0.55923054  0.51511121  0.71771710  1  0  -0.120588  0  3.724435  0  0  -0.154374  0  3.984628  0  0  -0.155414  0  4.005521  0  -0.027325  0  -0.084609  -0.153906  0  3.971266  0
C  C63  1  0.44077029  0.48488893  0.28228293  1  0  -0.120586  0  3.724492  0  0  -0.154388  0  3.984688  0  0  -0.155424  0  4.005575  0  -0.02733  0  -0.084619  -0.15392  0  3.971326  0
C  C64  1  0.43715095  0.31908226  0.56613151  1  0  -0.110191  0  3.77805  0  0  -0.131826  0  4.032915  0  0  -0.134263  0  4.054215  0  -0.048976  0  -0.090154  -0.130266  0  4.018687  0
C  C65  1  0.56284883  0.68091788  0.43386835  1  0  -0.110237  0  3.778085  0  0  -0.131879  0  4.032952  0  0  -0.134317  0  4.054253  0  -0.048814  0  -0.090169  -0.130318  0  4.018725  0
C  C66  1  0.42596475  0.24291332  0.46971369  1  0  -0.107849  0  3.755879  0  0  -0.12721  0  4.005149  0  0  -0.129689  0  4.027026  0  -0.018097  0  -0.090076  -0.125176  0  3.99017  0
C  C67  1  0.57403503  0.75708682  0.53028686  1  0  -0.107852  0  3.755851  0  0  -0.127204  0  4.005112  0  0  -0.129681  0  4.026988  0  -0.018322  0  -0.090065  -0.125169  0  3.990133  0
C  C68  1  0.52522818  0.27424238  0.41877098  1  0  0.063083  0  3.810393  0  0  0.077449  0  4.04516  0  0  0.07724  0  4.069046  0  0.013896  0  -0.005899  0.077216  0  4.028896  0
C  C69  1  0.47477161  0.72575776  0.58122888  1  0  0.063122  0  3.810343  0  0  0.07749  0  4.045108  0  0  0.077281  0  4.068995  0  0.013899  0  -0.005882  0.077256  0  4.028845  0
C  C70  1  0.63952634  0.38626989  0.47155874  1  0  -0.007562  0  3.704467  0  0  0.001326  0  3.924988  0  0  0.000752  0  3.947546  0  -0.012806  0  0.00433  0.001767  0  3.909984  0
C  C71  1  0.36047344  0.61373025  0.52844113  1  0  -0.007588  0  3.704442  0  0  0.001294  0  3.924967  0  0  0.00072  0  3.947524  0  -0.012807  0  0.004304  0.001736  0  3.909962  0
C  C72  1  0.73984912  0.42017992  0.42239430  1  0  0.058726  0  3.815603  0  0  0.07148  0  4.054454  0  0  0.071323  0  4.078997  0  -0.008733  0  -0.009106  0.071146  0  4.039146  0
C  C73  1  0.26015066  0.57982022  0.57760556  1  0  0.058781  0  3.815539  0  0  0.071544  0  4.054376  0  0  0.071388  0  4.078916  0  -0.008736  0  -0.009082  0.071209  0  4.039068  0
C  C74  1  0.76330039  0.57886149  0.62400803  1  0  0.058513  0  3.820339  0  0  0.07349  0  4.055081  0  0  0.073043  0  4.079004  0  -0.02767  0  -0.007851  0.073675  0  4.038653  0
C  C75  1  0.23669939  0.42113865  0.37599184  1  0  0.058501  0  3.820341  0  0  0.073482  0  4.055075  0  0  0.073035  0  4.078997  0  -0.027678  0  -0.007857  0.073668  0  4.038648  0
C  C76  1  0.65139591  0.46527114  0.57207086  1  0  -0.008855  0  3.708632  0  0  -0.002179  0  3.930593  0  0  -0.002713  0  3.952811  0  -0.047972  0  0.002542  -0.001507  0  3.915623  0
C  C77  1  0.34860387  0.53472900  0.42792900  1  0  -0.008853  0  3.708624  0  0  -0.002176  0  3.930579  0  0  -0.00271  0  3.952797  0  -0.047963  0  0.002548  -0.001504  0  3.915609  0
C  C78  1  0.54896249  0.43301900  0.62031455  1  0  0.05182  0  3.827351  0  0  0.064188  0  4.068101  0  0  0.063901  0  4.092109  0  -0.065943  0  -0.011076  0.064262  0  4.052579  0
C  C79  1  0.45103834  0.56698114  0.37968548  1  0  0.051827  0  3.827345  0  0  0.064197  0  4.068095  0  0  0.06391  0  4.092103  0  -0.065872  0  -0.011073  0.064271  0  4.052573  0
C  C80  1  0.60012717  0.14738340  0.16638867  1  0  0.72214  0  3.844701  0  0  0.675854  0  4.13639  0  0  0.711167  0  4.125063  0  1.5733  0  0.233801  0.650886  0  4.139267  0
C  C81  1  0.39987366  0.85261674  0.83361205  1  0  0.722088  0  3.844701  0  0  0.675808  0  4.136379  0  0  0.71112  0  4.125053  0  1.5733  0  0.233791  0.650841  0  4.139255  0
C  C82  1  0.67128940  0.71474657  0.87019517  1  0  0.667069  0  3.876915  0  0  0.618008  0  4.172265  0  0  0.651714  0  4.164251  0  1.571675  0  0.218011  0.595002  0  4.174692  0
C  C83  1  0.32871039  0.28525357  0.12980539  1  0  0.667124  0  3.876863  0  0  0.618036  0  4.172268  0  0  0.651742  0  4.164256  0  1.57163  0  0.218049  0.59503  0  4.174695  0
C  C84  1  0.04219344  0.00073390  0.26776821  1  0  -0.068029  0  3.784451  0  0  -0.047411  0  4.02232  0  0  -0.055355  0  4.045972  0  -0.071003  0  -0.020336  -0.042756  0  4.008052  0
C  C85  1  0.95780530  0.99926624  0.73223149  1  0  -0.068057  0  3.784393  0  0  -0.047453  0  4.022298  0  0  -0.055394  0  4.045946  0  -0.070977  0  -0.020403  -0.0428  0  4.008034  0
C  C86  1  0.93432457  0.04679938  0.30206069  1  0  -0.098714  0  3.674684  0  0  -0.13069  0  3.925426  0  0  -0.130378  0  3.9432  0  0.020681  0  -0.074541  -0.13064  0  3.91368  0
C  C87  1  0.06567521  0.95320076  0.69793918  1  0  -0.098728  0  3.674708  0  0  -0.130699  0  3.925464  0  0  -0.130388  0  3.943236  0  0.020599  0  -0.074538  -0.130648  0  3.913718  0
C  C88  1  0.91659652  0.04828454  0.39479129  1  0  0.057159  0  3.816743  0  0  0.072305  0  4.049456  0  0  0.071867  0  4.072861  0  0.004287  0  -0.008186  0.072525  0  4.033458  0
C  C89  1  0.08340296  0.95171469  0.60520827  1  0  0.057108  0  3.816862  0  0  0.072235  0  4.049603  0  0  0.071796  0  4.07301  0  0.004397  0  -0.008193  0.072457  0  4.033601  0
C  C90  1  0.00854483  0.99997912  0.45310173  1  0  -0.009262  0  3.716315  0  0  -0.000557  0  3.933873  0  0  -0.001278  0  3.956605  0  -0.071704  0  0.002588  0.000144  0  3.918249  0
C  C91  1  0.99145464  0.00002011  0.54689852  1  0  -0.00915  0  3.716332  0  0  -0.000421  0  3.933893  0  0  -0.001143  0  3.956625  0  -0.01673  0  0.002652  0.000278  0  3.918269  0
C  C92  1  0.11760975  0.95153464  0.41700284  1  0  0.0563  0  3.836708  0  0  0.069689  0  4.073337  0  0  0.069544  0  4.09742  0  -0.043092  0  -0.011634  0.069804  0  4.056759  0
C  C93  1  0.88239004  0.04846550  0.58299703  1  0  0.05634  0  3.836648  0  0  0.069694  0  4.073321  0  0  0.069549  0  4.097403  0  -0.043031  0  -0.011635  0.06981  0  4.056742  0
C  C94  1  0.13304640  0.95394563  0.32480493  1  0  -0.125504  0  3.720413  0  0  -0.156611  0  3.970838  0  0  -0.157251  0  3.989438  0  -0.024276  0  -0.087427  -0.156172  0  3.959187  0
C  C95  1  0.86695307  0.04605360  0.67519463  1  0  -0.125469  0  3.720347  0  0  -0.156554  0  3.970775  0  0  -0.157194  0  3.989373  0  -0.024375  0  -0.087374  -0.156115  0  3.959125  0
C  C96  1  0.06092428  0.00049444  0.16922320  1  0  0.712733  0  3.871009  0  0  0.667236  0  4.165312  0  0  0.702598  0  4.15303  0  1.561683  0  0.232509  0.642297  0  4.168597  0
C  C97  1  0.93907655  0.99950570  0.83077752  1  0  0.712674  0  3.871073  0  0  0.667164  0  4.165412  0  0  0.702524  0  4.153129  0  1.561697  0  0.232472  0.642225  0  4.168695  0
C  C98  1  0.80857259  0.09657181  0.43297900  1  0  -0.10513  0  3.758337  0  0  -0.125367  0  4.006347  0  0  -0.12725  0  4.028162  0  -0.045452  0  -0.09208  -0.124  0  3.99147  0
C  C99  1  0.19142628  0.90342558  0.56701927  1  0  -0.105129  0  3.758317  0  0  -0.125387  0  4.006304  0  0  -0.12727  0  4.028119  0  -0.045674  0  -0.092102  -0.124005  0  3.991438  0
C  C100  1  0.20794892  0.90333236  0.47691086  1  0  -0.118244  0  3.771408  0  0  -0.139111  0  4.022422  0  0  -0.141942  0  4.042977  0  -0.061769  0  -0.094302  -0.136855  0  4.008382  0
C  C101  1  0.79205160  0.09666686  0.52308818  1  0  -0.118226  0  3.771415  0  0  -0.139102  0  4.022432  0  0  -0.141933  0  4.042988  0  -0.061942  0  -0.094291  -0.136846  0  4.008394  0
C  C102  1  0.67959253  0.27861834  0.97428714  1  0  0.431619  0  3.780568  0  0  0.354997  0  4.072462  0  0  0.383898  0  4.071188  0  1.364796  0  0.192417  0.335232  0  4.070701  0
C  C103  1  0.32040695  0.72138089  0.02571311  1  0  0.431618  0  3.780554  0  0  0.354993  0  4.072451  0  0  0.383891  0  4.071178  0  1.364826  0  0.192415  0.335228  0  4.070689  0
C  C104  1  0.66549552  0.46895250  0.95549047  1  0  -0.172571  0  3.682146  0  0  -0.276572  0  3.934845  0  0  -0.273119  0  3.946461  0  0.302609  0  -0.128824  -0.278655  0  3.927029  0
C  C105  1  0.33450426  0.53104764  0.04451008  1  0  -0.17255  0  3.68213  0  0  -0.27656  0  3.934824  0  0  -0.273098  0  3.946448  0  0.302613  0  -0.128824  -0.278645  0  3.927008  0
C  C106  1  0.57694390  0.27075112  0.80348146  1  0  -0.164609  0  3.643796  0  0  -0.265339  0  3.887133  0  0  -0.261405  0  3.897318  0  0.279045  0  -0.127307  -0.26784  0  3.880662  0
C  C107  1  0.42305693  0.72924902  0.19651857  1  0  -0.164595  0  3.643806  0  0  -0.265319  0  3.887136  0  0  -0.261387  0  3.897322  0  0.279047  0  -0.127291  -0.267819  0  3.880664  0
N  N108  1  0.64174144  0.33741231  0.91398823  1  0  -0.086244  0  3.493011  0  0  0.020094  0  3.726804  0  0  -0.00036  0  3.75211  0  -1.202889  0  -0.276681  0.033631  0  3.709823  0
N  N109  1  0.35825803  0.66258692  0.08601202  1  0  -0.086262  0  3.493067  0  0  0.020076  0  3.726877  0  0  -0.000378  0  3.752181  0  -1.202918  0  -0.276691  0.033611  0  3.709897  0
O  O110  1  0.95748640  0.21138319  0.04400576  1  0  -0.8813  0  1.842987  0  0  -0.846473  0  2.017763  0  0  -0.864207  0  1.991419  0  -1.243033  0  -0.620732  -0.825788  0  2.040293  0
O  O111  1  0.04251308  0.78861603  0.95599380  1  0  -0.881339  0  1.842936  0  0  -0.84652  0  2.01773  0  0  -0.864254  0  1.991384  0  -1.243047  0  -0.620737  -0.825835  0  2.04026  0
O  O112  1  0.64915753  0.89411616  0.07384761  1  0  -0.910711  0  1.87354  0  0  -0.871727  0  2.048611  0  0  -0.890408  0  2.017569  0  -1.273214  0  -0.647061  -0.849802  0  2.075047  0
O  O113  1  0.35084225  0.10588398  0.92615226  1  0  -0.910708  0  1.873537  0  0  -0.871721  0  2.048601  0  0  -0.890403  0  2.017559  0  -1.273222  0  -0.647059  -0.849796  0  2.075038  0
O  O114  1  0.71334831  0.15589770  0.13832350  1  0  -0.722046  0  2.004995  0  0  -0.680939  0  2.252703  0  0  -0.70597  0  2.241048  0  -1.182818  0  -0.391115  -0.653043  0  2.263197  0
O  O115  1  0.28665117  0.84410153  0.86167606  1  0  -0.722006  0  2.004979  0  0  -0.680896  0  2.252676  0  0  -0.705927  0  2.241023  0  -1.182826  0  -0.391106  -0.653  0  2.263172  0
O  O116  1  0.47826193  0.06778443  0.11140748  1  0  -0.775363  0  2.126754  0  0  -0.73338  0  2.391781  0  0  -0.757181  0  2.376959  0  -1.221505  0  -0.407428  -0.703876  0  2.401535  0
O  O117  1  0.52173754  0.93221480  0.88859208  1  0  -0.775328  0  2.126811  0  0  -0.733365  0  2.391871  0  0  -0.757163  0  2.377051  0  -1.221512  0  -0.40742  -0.703861  0  2.401625  0
O  O118  1  0.77203195  0.81790700  0.91177314  1  0  -0.770601  0  2.096439  0  0  -0.714804  0  2.337785  0  0  -0.741097  0  2.327654  0  -1.219264  0  -0.393702  -0.686924  0  2.345988  0
O  O119  1  0.22796888  0.18209314  0.08822757  1  0  -0.770608  0  2.096387  0  0  -0.71482  0  2.337758  0  0  -0.741114  0  2.327629  0  -1.219259  0  -0.393735  -0.68694  0  2.345962  0
O  O120  1  0.57700215  0.68651030  0.91012524  1  0  -0.609739  0  1.934687  0  0  -0.558054  0  2.151603  0  0  -0.582501  0  2.1431  0  -1.179534  0  -0.308926  -0.54123  0  2.156948  0
O  O121  1  0.42299733  0.31348893  0.08987501  1  0  -0.609778  0  1.934719  0  0  -0.558083  0  2.151655  0  0  -0.582531  0  2.143153  0  -1.179787  0  -0.308942  -0.54126  0  2.157001  0
O  O122  1  0.96264330  0.02218232  0.10923185  1  0  -0.763177  0  2.102598  0  0  -0.725114  0  2.375618  0  0  -0.749091  0  2.35985  0  -1.212635  0  -0.416614  -0.694262  0  2.385791  0
O  O123  1  0.03735753  0.97781782  0.89076818  1  0  -0.763123  0  2.102667  0  0  -0.725047  0  2.375686  0  0  -0.749027  0  2.359925  0  -1.212644  0  -0.416583  -0.694194  0  2.385857  0
O  O124  1  0.17492655  0.97731241  0.14959578  1  0  -0.7321  0  2.038439  0  0  -0.693807  0  2.289691  0  0  -0.717467  0  2.276869  0  -1.196926  0  -0.387547  -0.668009  0  2.300381  0
O  O125  1  0.82507428  0.02268773  0.85040426  1  0  -0.732092  0  2.038437  0  0  -0.693799  0  2.289705  0  0  -0.717457  0  2.276884  0  -1.196927  0  -0.387542  -0.668001  0  2.300395  0
O  O126  1  0.66120580  0.16546668  0.94037827  1  0  -0.618362  0  2.182017  0  0  -0.570394  0  2.4409  0  0  -0.594194  0  2.433567  0  -1.190855  0  -0.35894  -0.545711  0  2.447632  0
O  O127  1  0.33879398  0.83453346  0.05962160  1  0  -0.618369  0  2.181987  0  0  -0.57039  0  2.440863  0  0  -0.594191  0  2.433531  0  -1.190831  0  -0.358941  -0.545706  0  2.447594  0
