# generated using pymatgen
data_CuH16C16S2Cl
_symmetry_space_group_name_H-M   'P 1'
_cell_length_a   7.25691386
_cell_length_b   11.91442296
_cell_length_c   20.56892171
_cell_angle_alpha   90.00049193
_cell_angle_beta   89.99976229
_cell_angle_gamma   104.40737728
_symmetry_Int_Tables_number   1
_chemical_formula_structural   CuH16C16S2Cl
_chemical_formula_sum   'Cu4 H64 C64 S8 Cl4'
_cell_volume   1722.49932163
_cell_formula_units_Z   4
loop_
 _symmetry_equiv_pos_site_id
 _symmetry_equiv_pos_as_xyz
  1  'x, y, z'
loop_
 _atom_site_type_symbol
 _atom_site_label
 _atom_site_symmetry_multiplicity
 _atom_site_fract_x
 _atom_site_fract_y
 _atom_site_fract_z
 _atom_site_occupancy
 _atom_site_hle17_bader_spin_density
 _atom_site_hle17_ddec_charge
 _atom_site_hle17_ddec_spin_density
 _atom_site_hle17_ddec_sum_bond_order
 _atom_site_hle17_magmom
 _atom_site_hse06_10hf_bader_spin_density
 _atom_site_hse06_10hf_ddec_charge
 _atom_site_hse06_10hf_ddec_spin_density
 _atom_site_hse06_10hf_ddec_sum_bond_order
 _atom_site_hse06_10hf_magmom
 _atom_site_hse06_bader_spin_density
 _atom_site_hse06_ddec_charge
 _atom_site_hse06_ddec_spin_density
 _atom_site_hse06_ddec_sum_bond_order
 _atom_site_hse06_magmom
 _atom_site_pbe_bader_spin_density
 _atom_site_pbe_cm5_charge
 _atom_site_pbe_ddec_charge
 _atom_site_pbe_ddec_spin_density
 _atom_site_pbe_ddec_sum_bond_order
 _atom_site_pbe_magmom
Cu  Cu0  1  0.06986535  0.89432565  0.99728391  1  0  0.245605  0  2.257652  0  0  0.165559  0  2.769313  0  0  0.168967  0  2.72155  0  0  0.301549  0.165286  0  2.800072  0
Cu  Cu1  1  0.56986176  0.39432377  0.50272162  1  0  0.245633  0  2.257678  0  0  0.165581  0  2.769313  0  0  0.168971  0  2.721544  0  0  0.301568  0.16531  0  2.800036  0
Cu  Cu2  1  0.93013650  0.10566954  0.00272166  1  0  0.245579  0  2.257509  0  0  0.165518  0  2.769198  0  0  0.168888  0  2.721405  0  0  0.30149  0.165234  0  2.799935  0
Cu  Cu3  1  0.43014670  0.60566714  0.49727520  1  0  0.245631  0  2.257596  0  0  0.16553  0  2.769287  0  0  0.168929  0  2.721522  0  0  0.30157  0.165339  0  2.799926  0
H  H4  1  0.20565533  0.52140414  0.85824789  1  0  0.084177  0  0.949266  0  0  0.095423  0  1.009204  0  0  0.098581  0  1.007561  0  0  0.096387  0.093101  0  1.010544  0
H  H5  1  0.70566732  0.02141813  0.64174247  1  0  0.084183  0  0.949297  0  0  0.095419  0  1.009237  0  0  0.098578  0  1.007593  0  0  0.096407  0.093126  0  1.010573  0
H  H6  1  0.79434490  0.47857980  0.14174796  1  0  0.084169  0  0.949265  0  0  0.095406  0  1.009226  0  0  0.098563  0  1.007583  0  0  0.096396  0.093104  0  1.010558  0
H  H7  1  0.29435280  0.97858150  0.35826067  1  0  0.084087  0  0.949339  0  0  0.095386  0  1.009212  0  0  0.098545  0  1.007569  0  0  0.096367  0.093075  0  1.010551  0
H  H8  1  0.27203955  0.46604527  0.74630017  1  0  0.082769  0  0.983758  0  0  0.094742  0  1.047814  0  0  0.096795  0  1.047298  0  0  0.096418  0.093272  0  1.048234  0
H  H9  1  0.77203639  0.96604977  0.75368939  1  0  0.082705  0  0.983819  0  0  0.094683  0  1.047825  0  0  0.096717  0  1.047354  0  0  0.09641  0.093244  0  1.048237  0
H  H10  1  0.72797572  0.53395606  0.25369519  1  0  0.082709  0  0.983783  0  0  0.094613  0  1.047897  0  0  0.096663  0  1.047389  0  0  0.096391  0.093152  0  1.048328  0
H  H11  1  0.22797396  0.03396017  0.24631327  1  0  0.082755  0  0.983676  0  0  0.094721  0  1.047714  0  0  0.096775  0  1.047197  0  0  0.096399  0.093237  0  1.04815  0
H  H12  1  0.62774854  0.80658248  0.71307685  1  0  0.088085  0  0.958737  0  0  0.100826  0  1.018727  0  0  0.103209  0  1.018124  0  0  0.09725  0.099081  0  1.019266  0
H  H13  1  0.12772623  0.30657749  0.78692476  1  0  0.088048  0  0.958692  0  0  0.100806  0  1.018666  0  0  0.103187  0  1.01806  0  0  0.097261  0.099085  0  1.019177  0
H  H14  1  0.37223215  0.19342205  0.28692143  1  0  0.088095  0  0.958796  0  0  0.100808  0  1.018825  0  0  0.103173  0  1.018229  0  0  0.09729  0.099088  0  1.019342  0
H  H15  1  0.87226693  0.69342367  0.21307449  1  0  0.088074  0  0.95868  0  0  0.100808  0  1.018686  0  0  0.103182  0  1.018083  0  0  0.097216  0.099069  0  1.019205  0
H  H16  1  0.56175071  0.86320221  0.82553700  1  0  0.084099  0  0.964845  0  0  0.095118  0  1.030878  0  0  0.097941  0  1.029216  0  0  0.09455  0.09298  0  1.03235  0
H  H17  1  0.06174289  0.36319922  0.67447180  1  0  0.084188  0  0.964849  0  0  0.095128  0  1.03098  0  0  0.097947  0  1.029325  0  0  0.094601  0.093005  0  1.032416  0
H  H18  1  0.43823241  0.13680147  0.17446420  1  0  0.084172  0  0.964885  0  0  0.09513  0  1.030978  0  0  0.097951  0  1.02932  0  0  0.094531  0.092967  0  1.032434  0
H  H19  1  0.93825559  0.63678730  0.32553134  1  0  0.084332  0  0.964542  0  0  0.095227  0  1.030721  0  0  0.098045  0  1.029067  0  0  0.094593  0.093097  0  1.032175  0
H  H20  1  0.43489212  0.78654281  0.94153325  1  0  0.11306  0  0.96575  0  0  0.126812  0  1.029474  0  0  0.128465  0  1.029083  0  0  0.090626  0.125511  0  1.029891  0
H  H21  1  0.93491050  0.28655656  0.55846830  1  0  0.112929  0  0.965727  0  0  0.12661  0  1.029618  0  0  0.128246  0  1.02924  0  0  0.090571  0.125313  0  1.029999  0
H  H22  1  0.56508046  0.21344092  0.05846600  1  0  0.112995  0  0.965735  0  0  0.126661  0  1.029618  0  0  0.128303  0  1.029241  0  0  0.090593  0.12536  0  1.029994  0
H  H23  1  0.06509890  0.71344387  0.44153338  1  0  0.112997  0  0.965571  0  0  0.126707  0  1.029413  0  0  0.128356  0  1.029013  0  0  0.090567  0.125389  0  1.029769  0
H  H24  1  0.23273465  0.66465030  0.94246411  1  0  0.096263  0  0.924928  0  0  0.112544  0  0.980892  0  0  0.114526  0  0.979399  0  0  0.097949  0.111051  0  0.982098  0
H  H25  1  0.73274798  0.16465104  0.55753178  1  0  0.096205  0  0.92496  0  0  0.112497  0  0.980915  0  0  0.114484  0  0.979411  0  0  0.097886  0.110986  0  0.982118  0
H  H26  1  0.76724994  0.33534302  0.05753125  1  0  0.096238  0  0.924825  0  0  0.112503  0  0.980803  0  0  0.114488  0  0.979303  0  0  0.097927  0.111015  0  0.982012  0
H  H27  1  0.26726048  0.83533987  0.44246504  1  0  0.096277  0  0.924947  0  0  0.11252  0  0.980948  0  0  0.114501  0  0.979455  0  0  0.097952  0.111024  0  0.982172  0
H  H28  1  0.89874278  0.67684794  0.89142842  1  0  0.100377  0  0.917594  0  0  0.119182  0  0.970112  0  0  0.121114  0  0.968738  0  0  0.101852  0.117758  0  0.971186  0
H  H29  1  0.39877222  0.17685727  0.60857216  1  0  0.100288  0  0.917591  0  0  0.119109  0  0.970134  0  0  0.121041  0  0.96876  0  0  0.101796  0.117693  0  0.971208  0
H  H30  1  0.10122695  0.32314614  0.10856597  1  0  0.100403  0  0.917481  0  0  0.119139  0  0.970078  0  0  0.121073  0  0.968703  0  0  0.101828  0.117726  0  0.971169  0
H  H31  1  0.60125694  0.82313725  0.39143195  1  0  0.100453  0  0.917528  0  0  0.119228  0  0.970016  0  0  0.121161  0  0.968651  0  0  0.101817  0.117794  0  0.971081  0
H  H32  1  0.84891721  0.81027760  0.87258822  1  0  0.100759  0  0.968959  0  0  0.113335  0  1.038598  0  0  0.114585  0  1.038529  0  0  0.092081  0.112338  0  1.03875  0
H  H33  1  0.34893186  0.31026721  0.62741017  1  0  0.100771  0  0.968934  0  0  0.113402  0  1.038551  0  0  0.114668  0  1.03846  0  0  0.092107  0.112392  0  1.038711  0
H  H34  1  0.15107005  0.18972612  0.12740617  1  0  0.100759  0  0.968959  0  0  0.113361  0  1.038557  0  0  0.114612  0  1.038482  0  0  0.092125  0.112378  0  1.038708  0
H  H35  1  0.65108640  0.68970996  0.37259005  1  0  0.100734  0  0.969034  0  0  0.113238  0  1.038685  0  0  0.114488  0  1.03862  0  0  0.092004  0.112225  0  1.038865  0
H  H36  1  0.18660234  0.86150661  0.65463039  1  0  0.081702  0  0.956954  0  0  0.092475  0  1.018628  0  0  0.095612  0  1.016768  0  0  0.092826  0.090193  0  1.020092  0
H  H37  1  0.68660291  0.36150089  0.84536946  1  0  0.081666  0  0.957083  0  0  0.092449  0  1.018732  0  0  0.095587  0  1.016871  0  0  0.092823  0.090185  0  1.020178  0
H  H38  1  0.81340498  0.13849553  0.34536448  1  0  0.081695  0  0.956972  0  0  0.092508  0  1.018612  0  0  0.095646  0  1.016748  0  0  0.092815  0.090232  0  1.020059  0
H  H39  1  0.31340128  0.63850382  0.15463028  1  0  0.081642  0  0.956963  0  0  0.092444  0  1.01861  0  0  0.095581  0  1.016749  0  0  0.092815  0.090167  0  1.020069  0
H  H40  1  0.11385422  0.90886316  0.76731513  1  0  0.0867  0  0.97718  0  0  0.098413  0  1.041322  0  0  0.100254  0  1.041564  0  0  0.09494  0.097071  0  1.04122  0
H  H41  1  0.61387346  0.40885601  0.73268507  1  0  0.086759  0  0.977113  0  0  0.098431  0  1.041301  0  0  0.100271  0  1.041542  0  0  0.094962  0.097115  0  1.04118  0
H  H42  1  0.88614450  0.09113459  0.23268023  1  0  0.086791  0  0.977099  0  0  0.098497  0  1.041231  0  0  0.100342  0  1.041472  0  0  0.094979  0.097172  0  1.04111  0
H  H43  1  0.38613872  0.59114443  0.26731370  1  0  0.086665  0  0.977299  0  0  0.098353  0  1.041478  0  0  0.100191  0  1.041726  0  0  0.094894  0.09702  0  1.041367  0
H  H44  1  0.82650452  0.55222826  0.80056486  1  0  0.084275  0  0.954289  0  0  0.09798  0  1.013265  0  0  0.10033  0  1.012428  0  0  0.097546  0.09626  0  1.013944  0
H  H45  1  0.32649652  0.05222907  0.69943374  1  0  0.08428  0  0.954245  0  0  0.097973  0  1.013245  0  0  0.100326  0  1.012402  0  0  0.097541  0.096265  0  1.013914  0
H  H46  1  0.17348965  0.44777550  0.19942953  1  0  0.084298  0  0.954254  0  0  0.097992  0  1.013251  0  0  0.100348  0  1.01241  0  0  0.097541  0.096285  0  1.013926  0
H  H47  1  0.67350874  0.94777132  0.30057281  1  0  0.08438  0  0.954251  0  0  0.098079  0  1.013272  0  0  0.100424  0  1.012431  0  0  0.097599  0.096365  0  1.013945  0
H  H48  1  0.89825799  0.50473812  0.68740757  1  0  0.072856  0  1.010742  0  0  0.07649  0  1.090015  0  0  0.07879  0  1.089764  0  0  0.087395  0.074771  0  1.090315  0
H  H49  1  0.39824173  0.00473526  0.81258875  1  0  0.072788  0  1.010757  0  0  0.076415  0  1.09004  0  0  0.078721  0  1.089788  0  0  0.087409  0.074723  0  1.090325  0
H  H50  1  0.10174784  0.49527438  0.31258828  1  0  0.072795  0  1.01076  0  0  0.076406  0  1.090031  0  0  0.078721  0  1.089773  0  0  0.08741  0.074706  0  1.09032  0
H  H51  1  0.60174765  0.99526329  0.18742315  1  0  0.072867  0  1.01112  0  0  0.07646  0  1.090367  0  0  0.07879  0  1.090105  0  0  0.087476  0.074754  0  1.090643  0
H  H52  1  0.07355393  0.68863903  0.55868238  1  0  0.109148  0  0.939833  0  0  0.125938  0  0.997918  0  0  0.127043  0  0.997612  0  0  0.094975  0.125022  0  0.998295  0
H  H53  1  0.57353765  0.18863538  0.94132018  1  0  0.109176  0  0.93985  0  0  0.125916  0  0.997963  0  0  0.127016  0  0.997657  0  0  0.094942  0.125009  0  0.998347  0
H  H54  1  0.92644792  0.31135615  0.44131493  1  0  0.109167  0  0.939678  0  0  0.125946  0  0.997827  0  0  0.127057  0  0.997518  0  0  0.094995  0.125033  0  0.998205  0
H  H55  1  0.42647369  0.81138061  0.05868393  1  0  0.109225  0  0.939754  0  0  0.125954  0  0.997898  0  0  0.127059  0  0.997583  0  0  0.094977  0.125053  0  0.998283  0
H  H56  1  0.07826301  0.55231447  0.59080186  1  0  0.106408  0  0.942519  0  0  0.11794  0  1.00926  0  0  0.119492  0  1.009063  0  0  0.091676  0.116719  0  1.009605  0
H  H57  1  0.57824457  0.05230431  0.90919808  1  0  0.106514  0  0.942449  0  0  0.118054  0  1.009146  0  0  0.119603  0  1.008947  0  0  0.091708  0.116841  0  1.009504  0
H  H58  1  0.92174044  0.44769541  0.40919351  1  0  0.106437  0  0.942299  0  0  0.117999  0  1.009062  0  0  0.119553  0  1.008867  0  0  0.0917  0.116786  0  1.009403  0
H  H59  1  0.42174429  0.94771410  0.09081381  1  0  0.106538  0  0.942405  0  0  0.118058  0  1.009142  0  0  0.119609  0  1.008945  0  0  0.091735  0.116858  0  1.009495  0
H  H60  1  0.39851683  0.51060315  0.64139824  1  0  0.0973  0  0.95023  0  0  0.110517  0  1.017711  0  0  0.112044  0  1.016773  0  0  0.092614  0.109286  0  1.018558  0
H  H61  1  0.89848903  0.01059222  0.85859422  1  0  0.097415  0  0.949941  0  0  0.110576  0  1.017438  0  0  0.112119  0  1.016504  0  0  0.092685  0.109368  0  1.018316  0
H  H62  1  0.60149321  0.48940246  0.35859566  1  0  0.097312  0  0.950211  0  0  0.110498  0  1.017675  0  0  0.112038  0  1.016743  0  0  0.092624  0.109256  0  1.018555  0
H  H63  1  0.10149593  0.98939851  0.14140893  1  0  0.097344  0  0.950271  0  0  0.110522  0  1.01771  0  0  0.112071  0  1.016785  0  0  0.09267  0.109309  0  1.018576  0
H  H64  1  0.62077082  0.61450841  0.63765191  1  0  0.111862  0  0.934525  0  0  0.126592  0  0.996934  0  0  0.127494  0  0.997532  0  0  0.100572  0.125749  0  0.99679  0
H  H65  1  0.12075225  0.11449758  0.86234633  1  0  0.111727  0  0.934478  0  0  0.126461  0  0.996851  0  0  0.127394  0  0.997437  0  0  0.100601  0.125651  0  0.996688  0
H  H66  1  0.37923674  0.38550496  0.36234491  1  0  0.111954  0  0.934448  0  0  0.126627  0  0.996866  0  0  0.127561  0  0.997451  0  0  0.100621  0.12575  0  0.996691  0
H  H67  1  0.87922961  0.88549227  0.13765827  1  0  0.111968  0  0.934378  0  0  0.12662  0  0.996824  0  0  0.127563  0  0.997412  0  0  0.100664  0.125787  0  0.996664  0
C  C68  1  0.30094306  0.58430222  0.82702369  1  0  -0.118313  0  3.767477  0  0  -0.136238  0  4.011005  0  0  -0.139422  0  4.033415  0  0  -0.095982  -0.1341  0  3.995971  0
C  C69  1  0.80096046  0.08430978  0.67297268  1  0  -0.118461  0  3.76781  0  0  -0.13635  0  4.01136  0  0  -0.139533  0  4.033768  0  0  -0.095949  -0.134171  0  3.996319  0
C  C70  1  0.69904288  0.41569457  0.17297508  1  0  -0.118396  0  3.76756  0  0  -0.136302  0  4.011119  0  0  -0.139485  0  4.033529  0  0  -0.095992  -0.134159  0  3.996126  0
C  C71  1  0.19905448  0.91569069  0.32703338  1  0  -0.118486  0  3.767609  0  0  -0.136436  0  4.011166  0  0  -0.139624  0  4.033581  0  0  -0.096088  -0.134266  0  3.996117  0
C  C72  1  0.33721746  0.55312592  0.76377962  1  0  -0.112705  0  3.761526  0  0  -0.131711  0  4.006095  0  0  -0.133974  0  4.028669  0  0  -0.093413  -0.130156  0  3.990851  0
C  C73  1  0.83722067  0.05313080  0.73621459  1  0  -0.112453  0  3.761727  0  0  -0.131386  0  4.006265  0  0  -0.133652  0  4.028823  0  0  -0.093237  -0.129807  0  3.990997  0
C  C74  1  0.66276913  0.44687606  0.23621720  1  0  -0.112507  0  3.761623  0  0  -0.131392  0  4.006192  0  0  -0.133651  0  4.02875  0  0  -0.093252  -0.129838  0  3.990958  0
C  C75  1  0.16278662  0.94687479  0.26379050  1  0  -0.11236  0  3.761382  0  0  -0.131323  0  4.00594  0  0  -0.133584  0  4.0285  0  0  -0.09314  -0.129773  0  3.990671  0
C  C76  1  0.44853835  0.63336051  0.72122720  1  0  0.096608  0  3.763489  0  0  0.118515  0  3.99571  0  0  0.117627  0  4.021397  0  0  -0.017821  0.119047  0  3.978283  0
C  C77  1  0.94853310  0.13335555  0.77877066  1  0  0.096485  0  3.763994  0  0  0.11826  0  3.996298  0  0  0.117399  0  4.021993  0  0  -0.017918  0.118786  0  3.978875  0
C  C78  1  0.55145748  0.36665104  0.27877060  1  0  0.096659  0  3.763817  0  0  0.11844  0  3.996093  0  0  0.117579  0  4.021782  0  0  -0.017903  0.118972  0  3.978633  0
C  C79  1  0.05147668  0.86664229  0.22123345  1  0  0.09666  0  3.764222  0  0  0.118493  0  3.996391  0  0  0.117642  0  4.022096  0  0  -0.0179  0.119018  0  3.978943  0
C  C80  1  0.53489963  0.74429190  0.74511879  1  0  -0.10747  0  3.749425  0  0  -0.129144  0  3.998918  0  0  -0.131461  0  4.021542  0  0  -0.091579  -0.127472  0  3.983493  0
C  C81  1  0.03489204  0.24428484  0.75488216  1  0  -0.107315  0  3.749474  0  0  -0.128956  0  3.998951  0  0  -0.131271  0  4.021566  0  0  -0.091513  -0.127267  0  3.983504  0
C  C82  1  0.46509107  0.25571357  0.25488192  1  0  -0.107524  0  3.749539  0  0  -0.129142  0  3.99907  0  0  -0.13144  0  4.021669  0  0  -0.091588  -0.12748  0  3.983586  0
C  C83  1  0.96513017  0.75571308  0.24512147  1  0  -0.107459  0  3.749845  0  0  -0.129094  0  3.999266  0  0  -0.131401  0  4.021876  0  0  -0.091353  -0.127407  0  3.983818  0
C  C84  1  0.49884239  0.77560114  0.80801962  1  0  -0.114434  0  3.746539  0  0  -0.135135  0  3.999202  0  0  -0.138109  0  4.021076  0  0  -0.095782  -0.133174  0  3.984507  0
C  C85  1  0.99884796  0.27560369  0.69198471  1  0  -0.114621  0  3.746465  0  0  -0.135232  0  3.999178  0  0  -0.138209  0  4.021052  0  0  -0.095824  -0.133263  0  3.984462  0
C  C86  1  0.50114322  0.22439479  0.19198547  1  0  -0.11448  0  3.746599  0  0  -0.13511  0  3.999262  0  0  -0.138083  0  4.021128  0  0  -0.095761  -0.133137  0  3.984524  0
C  C87  1  0.00115837  0.72439239  0.30801698  1  0  -0.114675  0  3.746397  0  0  -0.135256  0  3.999088  0  0  -0.138233  0  4.020964  0  0  -0.095913  -0.133297  0  3.984389  0
C  C88  1  0.37546758  0.69729893  0.84922342  1  0  0.096221  0  3.774313  0  0  0.117361  0  4.006797  0  0  0.116892  0  4.033275  0  0  -0.020387  0.11755  0  3.988932  0
C  C89  1  0.87547514  0.19730179  0.65077486  1  0  0.096221  0  3.773959  0  0  0.117276  0  4.006574  0  0  0.116809  0  4.033045  0  0  -0.020409  0.117469  0  3.988722  0
C  C90  1  0.62452284  0.30269876  0.15077486  1  0  0.096225  0  3.773941  0  0  0.117303  0  4.006499  0  0  0.116834  0  4.032976  0  0  -0.020379  0.117479  0  3.98867  0
C  C91  1  0.12452530  0.80269684  0.34922585  1  0  0.096217  0  3.773967  0  0  0.117314  0  4.006503  0  0  0.116846  0  4.032983  0  0  -0.020397  0.117511  0  3.988655  0
C  C92  1  0.31335641  0.73712823  0.91290799  1  0  -0.190569  0  3.650262  0  0  -0.231715  0  3.905651  0  0  -0.232012  0  3.915727  0  0  -0.146138  -0.23134  0  3.898801  0
C  C93  1  0.81336362  0.23713538  0.58708280  1  0  -0.19032  0  3.649877  0  0  -0.231424  0  3.90535  0  0  -0.231703  0  3.915394  0  0  -0.146095  -0.231045  0  3.898469  0
C  C94  1  0.68662339  0.26285988  0.08708688  1  0  -0.190505  0  3.650082  0  0  -0.231547  0  3.905468  0  0  -0.231834  0  3.915523  0  0  -0.146149  -0.231133  0  3.898577  0
C  C95  1  0.18665310  0.76285905  0.41291111  1  0  -0.190522  0  3.650044  0  0  -0.231621  0  3.905499  0  0  -0.231908  0  3.915562  0  0  -0.146108  -0.231228  0  3.898613  0
C  C96  1  0.95073559  0.75720372  0.86357782  1  0  -0.186569  0  3.657139  0  0  -0.226846  0  3.907563  0  0  -0.227092  0  3.918202  0  0  -0.145874  -0.226534  0  3.900287  0
C  C97  1  0.45075353  0.25720558  0.63642162  1  0  -0.18632  0  3.656661  0  0  -0.226681  0  3.907112  0  0  -0.226984  0  3.917861  0  0  -0.145767  -0.226324  0  3.899818  0
C  C98  1  0.04925929  0.24279832  0.13642046  1  0  -0.18641  0  3.656717  0  0  -0.226602  0  3.906933  0  0  -0.226898  0  3.917692  0  0  -0.14581  -0.226295  0  3.899669  0
C  C99  1  0.54927431  0.74278202  0.36358201  1  0  -0.186704  0  3.657279  0  0  -0.226718  0  3.90726  0  0  -0.226981  0  3.917913  0  0  -0.145777  -0.226411  0  3.900018  0
C  C100  1  0.10479908  0.79358428  0.68633151  1  0  -0.115354  0  3.763248  0  0  -0.134443  0  4.008984  0  0  -0.137232  0  4.030857  0  0  -0.096508  -0.132561  0  3.994247  0
C  C101  1  0.60480227  0.29357728  0.81366959  1  0  -0.115382  0  3.763356  0  0  -0.134457  0  4.009082  0  0  -0.13725  0  4.030962  0  0  -0.096483  -0.132538  0  3.994324  0
C  C102  1  0.89519475  0.20641862  0.31366580  1  0  -0.115457  0  3.762953  0  0  -0.134563  0  4.00871  0  0  -0.137355  0  4.030589  0  0  -0.096534  -0.132662  0  3.993927  0
C  C103  1  0.39521094  0.70642231  0.18633258  1  0  -0.115206  0  3.763206  0  0  -0.134289  0  4.008965  0  0  -0.137079  0  4.030842  0  0  -0.096492  -0.132397  0  3.994224  0
C  C104  1  0.06497864  0.82009358  0.74978802  1  0  -0.117711  0  3.757704  0  0  -0.13792  0  4.005489  0  0  -0.140507  0  4.028496  0  0  -0.096912  -0.136076  0  3.989839  0
C  C105  1  0.56499086  0.32008663  0.75021424  1  0  -0.117833  0  3.757471  0  0  -0.137995  0  4.005259  0  0  -0.140588  0  4.028272  0  0  -0.09696  -0.136156  0  3.989614  0
C  C106  1  0.93501320  0.17990066  0.25020832  1  0  -0.117698  0  3.757296  0  0  -0.137917  0  4.005071  0  0  -0.140511  0  4.028074  0  0  -0.096844  -0.136075  0  3.98941  0
C  C107  1  0.43501652  0.67990860  0.24978598  1  0  -0.117793  0  3.757661  0  0  -0.138034  0  4.005481  0  0  -0.140628  0  4.028491  0  0  -0.096969  -0.136197  0  3.98985  0
C  C108  1  0.97213867  0.73278390  0.79268682  1  0  0.09324  0  3.773951  0  0  0.115242  0  4.005363  0  0  0.114386  0  4.031685  0  0  -0.018175  0.115799  0  3.987421  0
C  C109  1  0.47215900  0.23277985  0.70731393  1  0  0.093251  0  3.77366  0  0  0.115234  0  4.005153  0  0  0.114382  0  4.031474  0  0  -0.018186  0.115787  0  3.987226  0
C  C110  1  0.02785378  0.26721898  0.20731146  1  0  0.093189  0  3.773903  0  0  0.115249  0  4.005215  0  0  0.114401  0  4.031531  0  0  -0.01821  0.115811  0  3.987287  0
C  C111  1  0.52785360  0.76721109  0.29269407  1  0  0.093417  0  3.773585  0  0  0.115467  0  4.004826  0  0  0.114626  0  4.031141  0  0  -0.018054  0.116024  0  3.986897  0
C  C112  1  0.90461234  0.62056961  0.76840432  1  0  -0.107898  0  3.755567  0  0  -0.127447  0  4.000583  0  0  -0.130044  0  4.023019  0  0  -0.092683  -0.125565  0  3.985226  0
C  C113  1  0.40461347  0.12057007  0.73159597  1  0  -0.107947  0  3.755624  0  0  -0.127473  0  4.000614  0  0  -0.130069  0  4.023045  0  0  -0.092673  -0.125592  0  3.985263  0
C  C114  1  0.09537664  0.37943498  0.23159250  1  0  -0.108068  0  3.755719  0  0  -0.127644  0  4.0007  0  0  -0.13025  0  4.023142  0  0  -0.09274  -0.125748  0  3.985341  0
C  C115  1  0.59539836  0.87942951  0.26841252  1  0  -0.108178  0  3.755338  0  0  -0.127795  0  4.000387  0  0  -0.130392  0  4.022821  0  0  -0.092804  -0.125907  0  3.98501  0
C  C116  1  0.94511192  0.59374830  0.70485009  1  0  -0.119427  0  3.760019  0  0  -0.137326  0  4.009271  0  0  -0.140165  0  4.031169  0  0  -0.097566  -0.135342  0  3.994505  0
C  C117  1  0.44510473  0.09374700  0.79514855  1  0  -0.119376  0  3.759928  0  0  -0.137251  0  4.0092  0  0  -0.140099  0  4.031093  0  0  -0.097571  -0.135296  0  3.994445  0
C  C118  1  0.05487945  0.40625889  0.29514430  1  0  -0.119229  0  3.760009  0  0  -0.137038  0  4.009205  0  0  -0.139894  0  4.031097  0  0  -0.097429  -0.135032  0  3.994413  0
C  C119  1  0.55488971  0.90626455  0.20485751  1  0  -0.119406  0  3.760012  0  0  -0.13721  0  4.009269  0  0  -0.140089  0  4.031144  0  0  -0.097656  -0.135251  0  3.994483  0
C  C120  1  0.05341934  0.67881075  0.66399805  1  0  0.098826  0  3.763808  0  0  0.120583  0  3.993033  0  0  0.120152  0  4.018752  0  0  -0.019806  0.120766  0  3.975716  0
C  C121  1  0.55341994  0.17880835  0.83600206  1  0  0.099018  0  3.763531  0  0  0.120703  0  3.992794  0  0  0.12027  0  4.01851  0  0  -0.019705  0.120917  0  3.975493  0
C  C122  1  0.94657722  0.32119563  0.33599877  1  0  0.098739  0  3.763877  0  0  0.120467  0  3.993197  0  0  0.120039  0  4.018923  0  0  -0.019836  0.120676  0  3.97586  0
C  C123  1  0.44657181  0.82119626  0.16400011  1  0  0.098836  0  3.763765  0  0  0.120495  0  3.993083  0  0  0.12006  0  4.018809  0  0  -0.019747  0.120705  0  3.975776  0
C  C124  1  0.12415390  0.64587491  0.59995421  1  0  -0.184834  0  3.641969  0  0  -0.224044  0  3.89207  0  0  -0.22408  0  3.902696  0  0  -0.148067  -0.224007  0  3.885089  0
C  C125  1  0.62414755  0.14587076  0.90004758  1  0  -0.185042  0  3.641986  0  0  -0.224133  0  3.891976  0  0  -0.224149  0  3.902568  0  0  -0.148075  -0.224155  0  3.885062  0
C  C126  1  0.87584826  0.35412460  0.40003969  1  0  -0.184773  0  3.641705  0  0  -0.224074  0  3.892005  0  0  -0.224125  0  3.902651  0  0  -0.148073  -0.224056  0  3.885053  0
C  C127  1  0.37584999  0.85414167  0.09996285  1  0  -0.18513  0  3.642289  0  0  -0.224215  0  3.892297  0  0  -0.224237  0  3.902898  0  0  -0.148111  -0.22419  0  3.885364  0
C  C128  1  0.47041093  0.60149235  0.65149715  1  0  -0.181127  0  3.627701  0  0  -0.221929  0  3.879125  0  0  -0.221088  0  3.888469  0  0  -0.145946  -0.222431  0  3.872956  0
C  C129  1  0.97039078  0.10148306  0.84849274  1  0  -0.181011  0  3.627329  0  0  -0.221786  0  3.878914  0  0  -0.221037  0  3.888346  0  0  -0.145921  -0.222287  0  3.872735  0
C  C130  1  0.52959325  0.39851236  0.34849530  1  0  -0.18129  0  3.627798  0  0  -0.222035  0  3.879408  0  0  -0.221284  0  3.888837  0  0  -0.146082  -0.222549  0  3.873206  0
C  C131  1  0.02959028  0.89851888  0.15150991  1  0  -0.181288  0  3.627656  0  0  -0.221949  0  3.879029  0  0  -0.221246  0  3.888527  0  0  -0.146084  -0.222456  0  3.872864  0
S  S132  1  0.16790098  0.84235814  0.90228359  1  0  0.04296  0  2.76141  0  0  0.061182  0  3.202324  0  0  0.064009  0  3.185222  0  0  -0.031091  0.05881  0  3.213806  0
S  S133  1  0.66792026  0.34236121  0.59771425  1  0  0.042783  0  2.76145  0  0  0.061021  0  3.202443  0  0  0.063867  0  3.185323  0  0  -0.03116  0.058684  0  3.213863  0
S  S134  1  0.83208496  0.15763865  0.09771663  1  0  0.042879  0  2.7614  0  0  0.061079  0  3.20226  0  0  0.063935  0  3.18513  0  0  -0.031086  0.058723  0  3.213716  0
S  S135  1  0.33209231  0.65763318  0.40228111  1  0  0.043044  0  2.761747  0  0  0.061218  0  3.202535  0  0  0.064054  0  3.185425  0  0  -0.031076  0.058881  0  3.213951  0
S  S136  1  0.38413194  0.69049244  0.59141844  1  0  0.016544  0  2.684631  0  0  0.036786  0  3.098763  0  0  0.037162  0  3.083998  0  0  -0.044544  0.036286  0  3.108518  0
S  S137  1  0.88413002  0.19048930  0.90857833  1  0  0.016563  0  2.684415  0  0  0.036757  0  3.098496  0  0  0.037163  0  3.083739  0  0  -0.044558  0.036271  0  3.108264  0
S  S138  1  0.61587224  0.30951227  0.40857838  1  0  0.016509  0  2.684616  0  0  0.036782  0  3.098729  0  0  0.037188  0  3.083998  0  0  -0.044581  0.036275  0  3.108507  0
S  S139  1  0.11587889  0.80952753  0.09141946  1  0  0.016587  0  2.684677  0  0  0.036746  0  3.098771  0  0  0.037156  0  3.084048  0  0  -0.044587  0.036265  0  3.108569  0
Cl  Cl140  1  0.75534047  0.90444016  0.98625467  1  0  -0.533481  0  1.204902  0  0  -0.465627  0  1.525685  0  0  -0.480233  0  1.496968  0  0  -0.323064  -0.455118  0  1.544554  0
Cl  Cl141  1  0.25534151  0.40444450  0.51374627  1  0  -0.533484  0  1.204925  0  0  -0.465624  0  1.525711  0  0  -0.48022  0  1.496994  0  0  -0.323093  -0.455147  0  1.544567  0
Cl  Cl142  1  0.24466378  0.09555764  0.01374750  1  0  -0.533472  0  1.20487  0  0  -0.46563  0  1.52569  0  0  -0.480224  0  1.496965  0  0  -0.323058  -0.455101  0  1.544546  0
Cl  Cl143  1  0.74465896  0.59555067  0.48625395  1  0  -0.533473  0  1.204998  0  0  -0.465628  0  1.525822  0  0  -0.480231  0  1.497104  0  0  -0.323053  -0.455106  0  1.544661  0
