# generated using pymatgen
data_YbH18C18(NO2)4
_symmetry_space_group_name_H-M   'P 1'
_cell_length_a   9.79844900
_cell_length_b   10.24579671
_cell_length_c   10.99041598
_cell_angle_alpha   77.11287211
_cell_angle_beta   76.37378121
_cell_angle_gamma   65.35516611
_symmetry_Int_Tables_number   1
_chemical_formula_structural   YbH18C18(NO2)4
_chemical_formula_sum   'Yb2 H36 C36 N8 O16'
_cell_volume   964.85257566
_cell_formula_units_Z   2
loop_
 _symmetry_equiv_pos_site_id
 _symmetry_equiv_pos_as_xyz
  1  'x, y, z'
loop_
 _atom_site_type_symbol
 _atom_site_label
 _atom_site_symmetry_multiplicity
 _atom_site_fract_x
 _atom_site_fract_y
 _atom_site_fract_z
 _atom_site_occupancy
 _atom_site_hle17_bader_spin_density
 _atom_site_hle17_ddec_charge
 _atom_site_hle17_ddec_spin_density
 _atom_site_hle17_ddec_sum_bond_order
 _atom_site_hle17_magmom
 _atom_site_hse06_10hf_bader_spin_density
 _atom_site_hse06_10hf_ddec_charge
 _atom_site_hse06_10hf_ddec_spin_density
 _atom_site_hse06_10hf_ddec_sum_bond_order
 _atom_site_hse06_10hf_magmom
 _atom_site_hse06_bader_spin_density
 _atom_site_hse06_ddec_charge
 _atom_site_hse06_ddec_spin_density
 _atom_site_hse06_ddec_sum_bond_order
 _atom_site_hse06_magmom
 _atom_site_pbe_bader_spin_density
 _atom_site_pbe_cm5_charge
 _atom_site_pbe_ddec_charge
 _atom_site_pbe_ddec_spin_density
 _atom_site_pbe_ddec_sum_bond_order
 _atom_site_pbe_magmom
Yb  Yb0  1  0.05544513  0.77159883  0.67548579  1  0  2.241676  0  1.65296  0  0  2.095618  0  2.134425  0  0  2.233864  0  1.925042  0  0  1.59611  2.059164  0  2.164674  0
Yb  Yb1  1  0.94455382  0.22840212  0.32451401  1  0  2.241654  0  1.652998  0  0  2.095612  0  2.134457  0  0  2.233853  0  1.925081  0  0  1.596122  2.059145  0  2.16472  0
H  H2  1  0.07757631  0.46173947  0.86619365  1  0  0.321361  0  0.899856  0  0  0.306899  0  0.954292  0  0  0.314376  0  0.94871  0  0  0.319476  0.301488  0  0.958652  0
H  H3  1  0.92242413  0.53826040  0.13380615  1  0  0.321344  0  0.899832  0  0  0.306882  0  0.954278  0  0  0.31436  0  0.948694  0  0  0.319464  0.30147  0  0.958638  0
H  H4  1  0.96807745  0.38232777  0.56122925  1  0  0.325618  0  0.896126  0  0  0.306695  0  0.958542  0  0  0.315235  0  0.951239  0  0  0.314499  0.300582  0  0.963854  0
H  H5  1  0.03192299  0.61767210  0.43877055  1  0  0.325596  0  0.896125  0  0  0.306683  0  0.958537  0  0  0.315222  0  0.951236  0  0  0.314501  0.300572  0  0.963848  0
H  H6  1  0.44840584  0.63436798  0.56737818  1  0  0.326687  0  0.912681  0  0  0.310795  0  0.969578  0  0  0.319043  0  0.96241  0  0  0.318516  0.305147  0  0.9743  0
H  H7  1  0.55159404  0.36563082  0.43262162  1  0  0.32667  0  0.912704  0  0  0.310779  0  0.969598  0  0  0.319026  0  0.96243  0  0  0.318522  0.30513  0  0.97432  0
H  H8  1  0.28065628  0.85057731  0.24858153  1  0  0.305734  0  0.907233  0  0  0.289066  0  0.971441  0  0  0.296102  0  0.966101  0  0  0.31137  0.28428  0  0.974866  0
H  H9  1  0.71934369  0.14942364  0.75141827  1  0  0.305746  0  0.907215  0  0  0.289087  0  0.971435  0  0  0.296127  0  0.966096  0  0  0.311372  0.284293  0  0.974863  0
H  H10  1  0.56703819  0.58750393  0.77307461  1  0  0.106256  0  0.93036  0  0  0.119252  0  0.983117  0  0  0.12297  0  0.980773  0  0  0.109744  0.116731  0  0.984552  0
H  H11  1  0.43296243  0.41249610  0.22692424  1  0  0.106252  0  0.930336  0  0  0.119239  0  0.98311  0  0  0.122957  0  0.980765  0  0  0.10974  0.116718  0  0.984545  0
H  H12  1  0.24037075  0.49988573  0.08294668  1  0  0.113053  0  0.960004  0  0  0.117442  0  1.028604  0  0  0.121826  0  1.025443  0  0  0.108238  0.114431  0  1.03077  0
H  H13  1  0.75962968  0.50011414  0.91705312  1  0  0.113067  0  0.959989  0  0  0.117457  0  1.028588  0  0  0.121841  0  1.025428  0  0  0.108247  0.114447  0  1.030755  0
H  H14  1  0.60849512  0.12802493  0.30745599  1  0  0.103745  0  0.954988  0  0  0.111313  0  1.019997  0  0  0.115157  0  1.017306  0  0  0.105503  0.108448  0  1.022063  0
H  H15  1  0.39150364  0.87197586  0.69254476  1  0  0.103731  0  0.954993  0  0  0.111304  0  1.019999  0  0  0.115161  0  1.017291  0  0  0.105502  0.10844  0  1.022064  0
H  H16  1  0.66396047  0.84865490  0.66205378  1  0  0.107389  0  0.977269  0  0  0.114008  0  1.042714  0  0  0.11768  0  1.04052  0  0  0.106417  0.111217  0  1.044598  0
H  H17  1  0.33603774  0.15134482  0.33794696  1  0  0.107388  0  0.977268  0  0  0.114009  0  1.042709  0  0  0.117681  0  1.040515  0  0  0.106415  0.111218  0  1.044594  0
H  H18  1  0.70730756  0.08239251  0.99509281  1  0  0.106051  0  0.930967  0  0  0.118815  0  0.983673  0  0  0.122641  0  0.981255  0  0  0.109944  0.116189  0  0.985274  0
H  H19  1  0.29269223  0.91760828  0.00490794  1  0  0.106038  0  0.930974  0  0  0.118806  0  0.983675  0  0  0.122632  0  0.981256  0  0  0.10994  0.116179  0  0.985277  0
H  H20  1  0.55258246  0.79781387  0.88418830  1  0  0.096086  0  0.976734  0  0  0.105513  0  1.041245  0  0  0.107895  0  1.040944  0  0  0.102712  0.103578  0  1.041925  0
H  H21  1  0.44741761  0.20218569  0.11581339  1  0  0.096086  0  0.97676  0  0  0.105513  0  1.041269  0  0  0.107899  0  1.040964  0  0  0.10272  0.103579  0  1.041954  0
H  H22  1  0.67490410  0.56544974  0.37358472  1  0  0.066149  0  0.965677  0  0  0.073858  0  1.037207  0  0  0.074779  0  1.037477  0  0  0.102602  0.072582  0  1.03812  0
H  H23  1  0.32509606  0.43455137  0.62641414  1  0  0.066166  0  0.965641  0  0  0.07388  0  1.037169  0  0  0.074803  0  1.037438  0  0  0.102602  0.072604  0  1.038081  0
H  H24  1  0.63967150  0.73560396  0.41666138  1  0  0.058828  0  0.944614  0  0  0.071593  0  1.009492  0  0  0.07141  0  1.011142  0  0  0.097611  0.071795  0  1.007916  0
H  H25  1  0.36032745  0.26439698  0.58333842  1  0  0.058836  0  0.944611  0  0  0.071603  0  1.009491  0  0  0.071419  0  1.011144  0  0  0.097604  0.071804  0  1.007915  0
H  H26  1  0.53190141  0.85999821  0.23185208  1  0  0.049652  0  0.966883  0  0  0.062997  0  1.035567  0  0  0.061803  0  1.039178  0  0  0.094667  0.062916  0  1.034525  0
H  H27  1  0.46809819  0.14000182  0.76814677  1  0  0.04966  0  0.96684  0  0  0.062993  0  1.035523  0  0  0.061796  0  1.039136  0  0  0.094665  0.062912  0  1.034483  0
H  H28  1  0.58245262  0.69012510  0.18170735  1  0  0.054742  0  0.943797  0  0  0.068295  0  1.008709  0  0  0.067896  0  1.010255  0  0  0.094542  0.068333  0  1.007673  0
H  H29  1  0.41754680  0.30987477  0.81829245  1  0  0.054769  0  0.943795  0  0  0.06827  0  1.008753  0  0  0.067872  0  1.010296  0  0  0.094531  0.068308  0  1.007718  0
H  H30  1  0.98478688  0.24926784  0.95014700  1  0  0.087668  0  0.942622  0  0  0.102494  0  1.000989  0  0  0.103935  0  1.000358  0  0  0.109927  0.101516  0  1.00123  0
H  H31  1  0.01521337  0.75073188  0.04985375  1  0  0.087681  0  0.942628  0  0  0.102515  0  1.000989  0  0  0.103956  0  1.000357  0  0  0.109936  0.101537  0  1.001229  0
H  H32  1  0.16300708  0.18121797  0.84778974  1  0  0.051706  0  0.925663  0  0  0.068737  0  0.986548  0  0  0.068712  0  0.987558  0  0  0.096309  0.068359  0  0.986321  0
H  H33  1  0.83699317  0.81878175  0.15221100  1  0  0.051716  0  0.925662  0  0  0.068752  0  0.986547  0  0  0.068728  0  0.987556  0  0  0.096315  0.068375  0  0.986319  0
H  H34  1  0.00648808  0.14778001  0.72592869  1  0  0.097997  0  0.952228  0  0  0.113491  0  1.008045  0  0  0.115349  0  1.006923  0  0  0.113624  0.112222  0  1.008643  0
H  H35  1  0.99351217  0.85221971  0.27407205  1  0  0.09803  0  0.95223  0  0  0.11351  0  1.008043  0  0  0.115374  0  1.006921  0  0  0.113633  0.112239  0  1.008639  0
H  H36  1  0.84118523  0.29389157  0.78309540  1  0  0.052694  0  0.94617  0  0  0.063963  0  1.018148  0  0  0.064343  0  1.018346  0  0  0.096099  0.063742  0  1.017955  0
H  H37  1  0.15881622  0.70610831  0.21690441  1  0  0.052765  0  0.946146  0  0  0.063988  0  1.018139  0  0  0.064372  0  1.018339  0  0  0.096105  0.063766  0  1.017942  0
C  C38  1  0.39145262  0.55064027  0.91942898  1  0  -0.054844  0  3.742843  0  0  -0.032487  0  3.973627  0  0  -0.038004  0  3.994373  0  0  -0.013184  -0.028545  0  3.958569  0
C  C39  1  0.60854596  0.44935976  0.08056987  1  0  -0.054848  0  3.742816  0  0  -0.03248  0  3.973588  0  0  -0.037997  0  3.994334  0  0  -0.013153  -0.028539  0  3.958529  0
C  C40  1  0.53861264  0.54846410  0.87257030  1  0  -0.062734  0  3.707332  0  0  -0.086743  0  3.960643  0  0  -0.086826  0  3.978162  0  0  -0.077193  -0.086007  0  3.947746  0
C  C41  1  0.46138668  0.45153715  0.12742761  1  0  -0.062714  0  3.707342  0  0  -0.08672  0  3.960647  0  0  -0.086804  0  3.978166  0  0  -0.077193  -0.085984  0  3.947748  0
C  C42  1  0.35349138  0.50125544  0.04749521  1  0  -0.064899  0  3.702951  0  0  -0.088255  0  3.956144  0  0  -0.088729  0  3.973918  0  0  -0.07684  -0.087796  0  3.943832  0
C  C43  1  0.64650971  0.49874352  0.95250364  1  0  -0.064888  0  3.702907  0  0  -0.088252  0  3.956107  0  0  -0.088726  0  3.973882  0  0  -0.076847  -0.087793  0  3.943797  0
C  C44  1  0.27515286  0.60879704  0.83370830  1  0  0.629599  0  3.950048  0  0  0.585064  0  4.241405  0  0  0.617223  0  4.242972  0  0  0.196751  0.56252  0  4.246814  0
C  C45  1  0.72484758  0.39120284  0.16629150  1  0  0.629574  0  3.949934  0  0  0.585029  0  4.241308  0  0  0.617188  0  4.242876  0  0  0.196734  0.562486  0  4.246714  0
C  C46  1  0.65045290  0.98687936  0.48269497  1  0  -0.070148  0  3.74073  0  0  -0.04856  0  3.970046  0  0  -0.054059  0  3.988614  0  0  -0.014512  -0.044564  0  3.955121  0
C  C47  1  0.34954634  0.01312036  0.51730578  1  0  -0.070089  0  3.740483  0  0  -0.048541  0  3.969878  0  0  -0.054041  0  3.988449  0  0  -0.01447  -0.044548  0  3.954955  0
C  C48  1  0.55952422  0.07173499  0.39057392  1  0  -0.073201  0  3.735512  0  0  -0.098651  0  3.989634  0  0  -0.098958  0  4.007675  0  0  -0.083367  -0.098136  0  3.9771  0
C  C49  1  0.44047418  0.92826489  0.60942588  1  0  -0.073188  0  3.735502  0  0  -0.098619  0  3.989632  0  0  -0.098938  0  4.007671  0  0  -0.083355  -0.098104  0  3.9771  0
C  C50  1  0.59061276  0.91488570  0.59218019  1  0  -0.076246  0  3.720256  0  0  -0.097246  0  3.967717  0  0  -0.097646  0  3.985743  0  0  -0.083013  -0.096296  0  3.954872  0
C  C51  1  0.40938499  0.08511509  0.40782055  1  0  -0.076304  0  3.720186  0  0  -0.097287  0  3.967673  0  0  -0.097684  0  3.985692  0  0  -0.08304  -0.096337  0  3.954829  0
C  C52  1  0.80940037  0.97822271  0.46753490  1  0  0.745012  0  3.84202  0  0  0.698193  0  4.129002  0  0  0.735344  0  4.119882  0  0  0.243736  0.674135  0  4.136393  0
C  C53  1  0.19059849  0.02177609  0.53246490  1  0  0.745126  0  3.841837  0  0  0.698257  0  4.128932  0  0  0.735408  0  4.119809  0  0  0.243782  0.674202  0  4.136319  0
C  C54  1  0.64544586  0.93274770  0.93206383  1  0  -0.051857  0  3.735329  0  0  -0.03003  0  3.966658  0  0  -0.034539  0  3.985524  0  0  -0.012649  -0.026395  0  3.952754  0
C  C55  1  0.35455447  0.06725416  0.06793692  1  0  -0.051949  0  3.735312  0  0  -0.030149  0  3.966684  0  0  -0.034657  0  3.985549  0  0  -0.012694  -0.026513  0  3.952778  0
C  C56  1  0.61607148  0.04657751  0.99802126  1  0  -0.077508  0  3.730534  0  0  -0.09992  0  3.982881  0  0  -0.099981  0  3.999841  0  0  -0.079453  -0.099649  0  3.970632  0
C  C57  1  0.38392757  0.95342205  0.00198043  1  0  -0.077448  0  3.730459  0  0  -0.09985  0  3.982806  0  0  -0.09991  0  3.999764  0  0  -0.079433  -0.09958  0  3.970556  0
C  C58  1  0.52834201  0.88666576  0.93507811  1  0  -0.074102  0  3.729201  0  0  -0.098031  0  3.979968  0  0  -0.098684  0  3.999519  0  0  -0.080808  -0.097446  0  3.966943  0
C  C59  1  0.47165777  0.11333503  0.06492264  1  0  -0.074082  0  3.729242  0  0  -0.098003  0  3.980013  0  0  -0.098658  0  3.999564  0  0  -0.080836  -0.097422  0  3.966988  0
C  C60  1  0.79683299  0.86677485  0.85195705  1  0  0.626872  0  3.948305  0  0  0.583264  0  4.239921  0  0  0.615462  0  4.241529  0  0  0.187489  0.560617  0  4.24469  0
C  C61  1  0.20316661  0.13322579  0.14804464  1  0  0.626878  0  3.948195  0  0  0.583272  0  4.23982  0  0  0.615469  0  4.241429  0  0  0.1875  0.560626  0  4.244586  0
C  C62  1  0.32806962  0.72549856  0.41925393  1  0  0.743557  0  3.886058  0  0  0.676749  0  4.186215  0  0  0.712328  0  4.181351  0  0  0.336416  0.653157  0  4.190205  0
C  C63  1  0.67192877  0.27450131  0.58074587  1  0  0.743598  0  3.885998  0  0  0.676783  0  4.186196  0  0  0.712371  0  4.18133  0  0  0.336452  0.653181  0  4.19019  0
C  C64  1  0.58869738  0.67465889  0.38424752  1  0  0.04721  0  3.591732  0  0  -0.005231  0  3.846512  0  0  -0.000956  0  3.856625  0  0  -0.055575  -0.007806  0  3.839065  0
C  C65  1  0.41130222  0.32534114  0.61575134  1  0  0.047114  0  3.59175  0  0  -0.00534  0  3.846535  0  0  -0.001072  0  3.856654  0  0  -0.055607  -0.007916  0  3.839091  0
C  C66  1  0.52319671  0.75365461  0.26030820  1  0  0.041871  0  3.609551  0  0  -0.016068  0  3.871828  0  0  -0.012251  0  3.88467  0  0  -0.060116  -0.018296  0  3.863456  0
C  C67  1  0.47680224  0.24634633  0.73969160  1  0  0.041856  0  3.609582  0  0  -0.015998  0  3.87184  0  0  -0.012167  0  3.884685  0  0  -0.060119  -0.018237  0  3.863466  0
C  C68  1  0.03136555  0.45568652  0.69321654  1  0  0.741151  0  3.889674  0  0  0.673496  0  4.191531  0  0  0.708457  0  4.1887  0  0  0.34141  0.649988  0  4.194566  0
C  C69  1  0.96863572  0.54431319  0.30678420  1  0  0.741242  0  3.889595  0  0  0.673615  0  4.191442  0  0  0.708576  0  4.18861  0  0  0.341469  0.650108  0  4.194477  0
C  C70  1  0.04524774  0.26290524  0.85385027  1  0  0.043858  0  3.602079  0  0  -0.013259  0  3.864194  0  0  -0.009345  0  3.874467  0  0  -0.053449  -0.015345  0  3.856371  0
C  C71  1  0.95475251  0.73709448  0.14615048  1  0  0.043839  0  3.60215  0  0  -0.013304  0  3.864267  0  0  -0.009385  0  3.874543  0  0  -0.053464  -0.015393  0  3.85644  0
C  C72  1  0.96515562  0.25616682  0.75211714  1  0  0.035019  0  3.596465  0  0  -0.024969  0  3.861247  0  0  -0.020474  0  3.870053  0  0  -0.057876  -0.027634  0  3.854379  0
C  C73  1  0.03484566  0.74383290  0.24788361  1  0  0.034841  0  3.596583  0  0  -0.025046  0  3.861283  0  0  -0.020571  0  3.870111  0  0  -0.057894  -0.027698  0  3.854406  0
N  N74  1  0.04468283  0.40940029  0.81702010  1  0  -0.485872  0  3.224249  0  0  -0.42582  0  3.475217  0  0  -0.446119  0  3.479727  0  0  -0.428681  -0.412013  0  3.472052  0
N  N75  1  0.95531742  0.59059943  0.18298064  1  0  -0.48586  0  3.22428  0  0  -0.425829  0  3.475265  0  0  -0.446129  0  3.479773  0  0  -0.42867  -0.412018  0  3.472095  0
N  N76  1  0.00168321  0.35966942  0.64751153  1  0  -0.477852  0  3.18331  0  0  -0.41668  0  3.432201  0  0  -0.436893  0  3.434686  0  0  -0.426319  -0.40249  0  3.429018  0
N  N77  1  0.99831722  0.64033046  0.35248827  1  0  -0.477777  0  3.183281  0  0  -0.416657  0  3.432173  0  0  -0.436864  0  3.434664  0  0  -0.426343  -0.402483  0  3.428999  0
N  N78  1  0.45517155  0.66732788  0.47228650  1  0  -0.488407  0  3.273719  0  0  -0.42806  0  3.521553  0  0  -0.449029  0  3.526606  0  0  -0.434727  -0.414019  0  3.516852  0
N  N79  1  0.54482954  0.33267108  0.52771235  1  0  -0.488393  0  3.273795  0  0  -0.428032  0  3.521626  0  0  -0.448996  0  3.526677  0  0  -0.434749  -0.413991  0  3.516929  0
N  N80  1  0.36395984  0.76854762  0.29280886  1  0  -0.495445  0  3.182705  0  0  -0.437911  0  3.436648  0  0  -0.458114  0  3.440977  0  0  -0.43708  -0.424436  0  3.432609  0
N  N81  1  0.63603837  0.23145210  0.70719189  1  0  -0.49546  0  3.182717  0  0  -0.437977  0  3.436682  0  0  -0.458208  0  3.441034  0  0  -0.437059  -0.424473  0  3.432626  0
O  O82  1  0.13663737  0.62502078  0.87639645  1  0  -0.695919  0  1.996468  0  0  -0.648472  0  2.232462  0  0  -0.681066  0  2.223972  0  0  -0.360017  -0.632228  0  2.238198  0
O  O83  1  0.86336362  0.37498016  0.12360335  1  0  -0.695917  0  1.996396  0  0  -0.648465  0  2.23239  0  0  -0.681056  0  2.223899  0  0  -0.360015  -0.632221  0  2.238127  0
O  O84  1  0.31357684  0.64714831  0.71607067  1  0  -0.715574  0  2.08546  0  0  -0.667268  0  2.335063  0  0  -0.701876  0  2.327218  0  0  -0.369988  -0.65033  0  2.340795  0
O  O85  1  0.68642258  0.35285156  0.28392913  1  0  -0.715551  0  2.085441  0  0  -0.667243  0  2.335047  0  0  -0.701852  0  2.327205  0  0  -0.369978  -0.650304  0  2.340776  0
O  O86  1  0.88529917  0.90089537  0.55455885  1  0  -0.747006  0  2.109719  0  0  -0.698767  0  2.384108  0  0  -0.738709  0  2.365448  0  0  -0.431581  -0.680925  0  2.392336  0
O  O87  1  0.11469923  0.09910450  0.44544095  1  0  -0.747025  0  2.109693  0  0  -0.698774  0  2.38413  0  0  -0.738717  0  2.36547  0  0  -0.431584  -0.680931  0  2.392358  0
O  O88  1  0.85816258  0.05006566  0.36996644  1  0  -0.75187  0  2.074254  0  0  -0.701077  0  2.33332  0  0  -0.740157  0  2.316074  0  0  -0.416765  -0.683063  0  2.34134  0
O  O89  1  0.14183684  0.94993421  0.63003335  1  0  -0.751915  0  2.074251  0  0  -0.7011  0  2.333349  0  0  -0.740175  0  2.316091  0  0  -0.416779  -0.683089  0  2.341366  0
O  O90  1  0.83154109  0.74794364  0.81167568  1  0  -0.680474  0  1.986631  0  0  -0.636418  0  2.225568  0  0  -0.669799  0  2.217181  0  0  -0.373671  -0.619634  0  2.230728  0
O  O91  1  0.16845665  0.25205715  0.18832506  1  0  -0.680453  0  1.986589  0  0  -0.636382  0  2.2255  0  0  -0.669766  0  2.217123  0  0  -0.373649  -0.619597  0  2.23066  0
O  O92  1  0.88673372  0.93531915  0.81992434  1  0  -0.707741  0  1.939824  0  0  -0.661903  0  2.174873  0  0  -0.69577  0  2.164358  0  0  -0.386874  -0.645486  0  2.180826  0
O  O93  1  0.11326607  0.06468164  0.18007641  1  0  -0.707738  0  1.939817  0  0  -0.661902  0  2.174867  0  0  -0.695768  0  2.164351  0  0  -0.386892  -0.645481  0  2.180817  0
O  O94  1  0.04792324  0.56920593  0.62892838  1  0  -0.753816  0  2.067407  0  0  -0.703165  0  2.332921  0  0  -0.739105  0  2.316082  0  0  -0.405891  -0.687029  0  2.341598  0
O  O95  1  0.95207795  0.43079164  0.37107236  1  0  -0.753857  0  2.067315  0  0  -0.703219  0  2.33284  0  0  -0.739154  0  2.315989  0  0  -0.40592  -0.687081  0  2.341516  0
O  O96  1  0.19630450  0.73701465  0.47509315  1  0  -0.721788  0  2.033764  0  0  -0.672662  0  2.295955  0  0  -0.706789  0  2.280822  0  0  -0.394109  -0.657609  0  2.303845  0
O  O97  1  0.80369567  0.26298292  0.52490759  1  0  -0.721748  0  2.033698  0  0  -0.672623  0  2.295899  0  0  -0.706748  0  2.280761  0  0  -0.394101  -0.657564  0  2.303783  0
