# generated using pymatgen
data_ZnH30C40(N3O2)2
_symmetry_space_group_name_H-M   'P 1'
_cell_length_a   10.28398516
_cell_length_b   12.45697001
_cell_length_c   15.59962111
_cell_angle_alpha   89.99886726
_cell_angle_beta   104.47423269
_cell_angle_gamma   89.99993349
_symmetry_Int_Tables_number   1
_chemical_formula_structural   ZnH30C40(N3O2)2
_chemical_formula_sum   'Zn2 H60 C80 N12 O8'
_cell_volume   1934.99552883
_cell_formula_units_Z   2
loop_
 _symmetry_equiv_pos_site_id
 _symmetry_equiv_pos_as_xyz
  1  'x, y, z'
loop_
 _atom_site_type_symbol
 _atom_site_label
 _atom_site_symmetry_multiplicity
 _atom_site_fract_x
 _atom_site_fract_y
 _atom_site_fract_z
 _atom_site_occupancy
 _atom_site_pbe_bader_charge
 _atom_site_pbe_bader_spin_density
 _atom_site_pbe_cm5_charge
 _atom_site_pbe_ddec_charge
 _atom_site_pbe_ddec_spin_density
 _atom_site_pbe_ddec_sum_bond_order
 _atom_site_pbe_magmom
Zn  Zn0  1  0.75000119  0.82337504  0.49999953  1  1.277938  0  0.67368  0.781585  0  2.357909  0
Zn  Zn1  1  0.24998779  0.17661849  0.49999760  1  1.278024  0  0.67368  0.781588  0  2.357888  0
H  H2  1  0.47692430  0.83988433  0.34438926  1  0.151228  0  0.147596  0.120658  0  0.973035  0
H  H3  1  0.02307821  0.83988712  0.65560703  1  0.151327  0  0.147601  0.120656  0  0.972973  0
H  H4  1  0.52305360  0.16011643  0.65561180  1  0.151003  0  0.147609  0.120684  0  0.972863  0
H  H5  1  0.97691177  0.16010641  0.34438899  1  0.151269  0  0.147618  0.120734  0  0.972928  0
H  H6  1  0.78160694  0.07059014  0.42677420  1  0.135948  0  0.122667  0.115462  0  1.004929  0
H  H7  1  0.71838123  0.07058916  0.57322988  1  0.136026  0  0.122655  0.115423  0  1.004913  0
H  H8  1  0.21840316  0.92938493  0.57321555  1  0.13602  0  0.122678  0.115438  0  1.004991  0
H  H9  1  0.28160067  0.92940357  0.42677569  1  0.136263  0  0.122714  0.115504  0  1.004935  0
H  H10  1  0.59514861  0.14991151  0.27950618  1  0.151869  0  0.124988  0.122009  0  1.02607  0
H  H11  1  0.90482990  0.14990107  0.72049761  1  0.151747  0  0.125008  0.121983  0  1.026264  0
H  H12  1  0.40485547  0.85007560  0.72048449  1  0.152265  0  0.124993  0.122008  0  1.026334  0
H  H13  1  0.09515703  0.85009085  0.27950688  1  0.151885  0  0.125025  0.122044  0  1.026242  0
H  H14  1  0.36650075  0.83536105  0.19558315  1  0.109233  0  0.110102  0.116675  0  1.018718  0
H  H15  1  0.13349169  0.83536165  0.80442692  1  0.109377  0  0.110125  0.116653  0  1.018752  0
H  H16  1  0.63346908  0.16463168  0.80442554  1  0.109059  0  0.110146  0.116697  0  1.018725  0
H  H17  1  0.86648919  0.16463669  0.19558426  1  0.109301  0  0.110097  0.116708  0  1.018735  0
H  H18  1  0.15604123  0.85136172  0.07513635  1  0.112168  0  0.104883  0.102837  0  1.038705  0
H  H19  1  0.34395914  0.85135511  0.92487029  1  0.11213  0  0.104877  0.102836  0  1.03872  0
H  H20  1  0.84393365  0.14864867  0.92486741  1  0.112462  0  0.104903  0.102828  0  1.038754  0
H  H21  1  0.65603282  0.14864885  0.07513503  1  0.112001  0  0.104884  0.102838  0  1.03873  0
H  H22  1  0.16984164  0.19477472  0.10464073  1  0.109219  0  0.10999  0.115715  0  1.004902  0
H  H23  1  0.33016802  0.19477206  0.89533999  1  0.109145  0  0.109961  0.115631  0  1.005  0
H  H24  1  0.83019463  0.80523086  0.89534055  1  0.109676  0  0.109986  0.115627  0  1.004981  0
H  H25  1  0.66983511  0.80522708  0.10463578  1  0.109357  0  0.109984  0.115711  0  1.004821  0
H  H26  1  0.37542185  0.17963779  0.22752394  1  0.106789  0  0.105377  0.110743  0  1.063624  0
H  H27  1  0.12457784  0.17963277  0.77246497  1  0.106835  0  0.105409  0.110811  0  1.063642  0
H  H28  1  0.62460435  0.82036377  0.77246079  1  0.106976  0  0.105447  0.110795  0  1.06367  0
H  H29  1  0.87541721  0.82035996  0.22752099  1  0.106917  0  0.10533  0.110725  0  1.063624  0
H  H30  1  0.05437680  0.68853053  0.35948642  1  0.086241  0  0.105981  0.111266  0  0.996836  0
H  H31  1  0.44562790  0.68853167  0.64051069  1  0.08629  0  0.105971  0.111267  0  0.996775  0
H  H32  1  0.94565236  0.31147584  0.64051484  1  0.086508  0  0.105944  0.111232  0  0.996695  0
H  H33  1  0.55434297  0.31146989  0.35948984  1  0.086655  0  0.105922  0.11133  0  0.996612  0
H  H34  1  0.12588875  0.61791143  0.22758391  1  0.072327  0  0.098879  0.103619  0  1.00711  0
H  H35  1  0.37411850  0.61790856  0.77241795  1  0.072493  0  0.098869  0.103599  0  1.007113  0
H  H36  1  0.87413538  0.38208933  0.77241779  1  0.07233  0  0.098879  0.103574  0  1.007121  0
H  H37  1  0.62586742  0.38208978  0.22758894  1  0.071859  0  0.098899  0.103586  0  1.007082  0
H  H38  1  0.71679544  0.52896804  0.10674327  1  0.099052  0  0.092935  0.089002  0  1.074443  0
H  H39  1  0.78321722  0.52900242  0.89327304  1  0.098539  0  0.09289  0.088997  0  1.074367  0
H  H40  1  0.28322461  0.47101746  0.89327314  1  0.098927  0  0.092878  0.088906  0  1.074532  0
H  H41  1  0.21677577  0.47101439  0.10672412  1  0.098893  0  0.092865  0.088917  0  1.074534  0
H  H42  1  0.64756793  0.60100001  0.23882902  1  0.089227  0  0.100679  0.103652  0  1.036107  0
H  H43  1  0.85244419  0.60101591  0.76118030  1  0.089525  0  0.100737  0.103691  0  1.036268  0
H  H44  1  0.35246117  0.39899673  0.76118633  1  0.089337  0  0.100767  0.103698  0  1.036481  0
H  H45  1  0.14753877  0.39899688  0.23881391  1  0.089343  0  0.100764  0.103762  0  1.036427  0
H  H46  1  0.92306329  0.35889444  0.17461174  1  0.03857  0  0.093778  0.134057  0  1.006541  0
H  H47  1  0.57694372  0.35890582  0.82539413  1  0.038646  0  0.093722  0.134066  0  1.006563  0
H  H48  1  0.07695077  0.64110150  0.82539405  1  0.038655  0  0.093733  0.134074  0  1.006597  0
H  H49  1  0.42305928  0.64109333  0.17461367  1  0.038469  0  0.093735  0.133992  0  1.006536  0
H  H50  1  0.94123979  0.26097514  0.09471301  1  0.042062  0  0.087239  0.118835  0  1.035367  0
H  H51  1  0.55877000  0.26098295  0.90529295  1  0.042056  0  0.087258  0.11886  0  1.035381  0
H  H52  1  0.05877027  0.73902401  0.90528891  1  0.041989  0  0.087249  0.118894  0  1.035347  0
H  H53  1  0.44124203  0.73902182  0.09471956  1  0.042138  0  0.087229  0.11882  0  1.035402  0
H  H54  1  0.78783337  0.33161373  0.08226071  1  0.024597  0  0.087682  0.125802  0  1.023964  0
H  H55  1  0.71217486  0.33162349  0.91774387  1  0.024253  0  0.087669  0.125795  0  1.023967  0
H  H56  1  0.21217667  0.66838381  0.91774505  1  0.02412  0  0.087645  0.125781  0  1.023967  0
H  H57  1  0.28783518  0.66838449  0.08226318  1  0.02461  0  0.08769  0.125788  0  1.02398  0
H  H58  1  0.02081616  0.69021221  0.04579147  1  0.080392  0  0.095598  0.097428  0  1.029849  0
H  H59  1  0.47919653  0.69021678  0.95421591  1  0.080313  0  0.095575  0.097384  0  1.029878  0
H  H60  1  0.97920192  0.30978935  0.95421563  1  0.080385  0  0.095604  0.097432  0  1.029881  0
H  H61  1  0.52079243  0.30978558  0.04578442  1  0.08035  0  0.095603  0.097449  0  1.029879  0
C  C62  1  0.53386957  0.91355626  0.34790768  1  0.98527  0  0.156021  0.114415  0  3.873538  0
C  C63  1  0.96612205  0.91355870  0.65209202  1  0.985141  0  0.156056  0.114523  0  3.873727  0
C  C64  1  0.46611237  0.08643566  0.65208893  1  0.985722  0  0.155945  0.114235  0  3.873644  0
C  C65  1  0.03386389  0.08643563  0.34790974  1  0.985304  0  0.156023  0.114331  0  3.873474  0
C  C66  1  0.68924618  0.03514143  0.38806217  1  0.396897  0  0.002835  -0.032707  0  3.995477  0
C  C67  1  0.81074029  0.03514502  0.61193578  1  0.397025  0  0.002866  -0.032549  0  3.995088  0
C  C68  1  0.31074584  0.96483604  0.61192650  1  0.395933  0  0.002777  -0.032646  0  3.994635  0
C  C69  1  0.18924264  0.96484931  0.38806676  1  0.396684  0  0.002818  -0.032731  0  3.99527  0
C  C70  1  0.59850185  0.07551897  0.31566560  1  0.264133  0  0.006859  -0.085863  0  3.912833  0
C  C71  1  0.90148126  0.07552067  0.68433948  1  0.264597  0  0.00682  -0.085886  0  3.912845  0
C  C72  1  0.40150821  0.92445610  0.68433825  1  0.264293  0  0.006954  -0.085867  0  3.911978  0
C  C73  1  0.09850067  0.92446965  0.31565968  1  0.26421  0  0.006772  -0.085933  0  3.91244  0
C  C74  1  0.38286786  0.00641358  0.21955483  1  0.321442  0  0.103089  0.177518  0  4.00382  0
C  C75  1  0.11712112  0.00641559  0.78043824  1  0.321803  0  0.103071  0.177674  0  4.003783  0
C  C76  1  0.61712716  0.99358397  0.78043882  1  0.321687  0  0.102975  0.177454  0  4.003893  0
C  C77  1  0.88286786  0.99358436  0.21955697  1  0.321971  0  0.1031  0.177481  0  4.003887  0
C  C78  1  0.32147324  0.91367730  0.17658356  1  -0.093963  0  -0.088181  -0.168241  0  3.99938  0
C  C79  1  0.17852063  0.91367739  0.82341589  1  -0.094356  0  -0.088258  -0.16827  0  3.999374  0
C  C80  1  0.67851069  0.08632024  0.82341786  1  -0.09403  0  -0.088336  -0.168396  0  3.999666  0
C  C81  1  0.82147033  0.08632096  0.17658542  1  -0.094407  0  -0.088237  -0.168282  0  3.999543  0
C  C82  1  0.20493210  0.92233198  0.10930930  1  0.020048  0  -0.080786  -0.122521  0  3.953418  0
C  C83  1  0.29506372  0.92233029  0.89068970  1  0.020476  0  -0.08071  -0.122545  0  3.953674  0
C  C84  1  0.79504984  0.07767198  0.89068859  1  0.01972  0  -0.08066  -0.122465  0  3.953797  0
C  C85  1  0.70493229  0.07767127  0.10930732  1  0.020456  0  -0.080704  -0.122477  0  3.953566  0
C  C86  1  0.14873616  0.02409865  0.08353553  1  0.302496  0  0.082647  0.153508  0  4.056557  0
C  C87  1  0.35126881  0.02409786  0.91644646  1  0.302428  0  0.082642  0.153623  0  4.056572  0
C  C88  1  0.85126795  0.97591093  0.91644746  1  0.302756  0  0.082638  0.153726  0  4.056557  0
C  C89  1  0.64873429  0.97590771  0.08353636  1  0.302016  0  0.082761  0.153644  0  4.056504  0
C  C90  1  0.21309244  0.11625374  0.12544993  1  0.00725  0  -0.071693  -0.110032  0  3.926587  0
C  C91  1  0.28690677  0.11625164  0.87453478  1  0.007381  0  -0.071585  -0.109789  0  3.926649  0
C  C92  1  0.78692573  0.88375344  0.87453476  1  0.006932  0  -0.071607  -0.109839  0  3.926472  0
C  C93  1  0.71309331  0.88374911  0.12545010  1  0.007162  0  -0.071766  -0.110148  0  3.9264  0
C  C94  1  0.32913718  0.10780134  0.19348906  1  -0.004822  0  -0.086306  -0.147778  0  3.952125  0
C  C95  1  0.17086007  0.10779704  0.80649801  1  -0.004682  0  -0.086448  -0.148105  0  3.952525  0
C  C96  1  0.67087294  0.89220744  0.80649620  1  -0.004768  0  -0.086359  -0.147917  0  3.952337  0
C  C97  1  0.82914202  0.89220050  0.19348656  1  -0.00491  0  -0.086288  -0.14774  0  3.952054  0
C  C98  1  0.79711156  0.70471124  0.37750617  1  1.548264  0  0.187302  0.556839  0  4.22561  0
C  C99  1  0.70288874  0.70470985  0.62249057  1  1.548434  0  0.187288  0.556764  0  4.225658  0
C  C100  1  0.20292058  0.29529353  0.62250135  1  1.549018  0  0.18767  0.557243  0  4.225504  0
C  C101  1  0.29708113  0.29529090  0.37750851  1  1.549101  0  0.18764  0.557163  0  4.225469  0
C  C102  1  0.84617486  0.65091571  0.30557318  1  -0.069129  0  -0.01686  -0.023945  0  3.961742  0
C  C103  1  0.65384190  0.65092063  0.69443612  1  -0.068914  0  -0.016743  -0.023561  0  3.961601  0
C  C104  1  0.15385327  0.34909788  0.69443431  1  -0.069138  0  -0.0168  -0.023706  0  3.961484  0
C  C105  1  0.34614103  0.34908173  0.30556578  1  -0.06876  0  -0.01677  -0.02342  0  3.961404  0
C  C106  1  0.98150419  0.65403040  0.30321399  1  -0.060278  0  -0.083585  -0.093952  0  3.985663  0
C  C107  1  0.51850454  0.65402656  0.69678495  1  -0.059849  0  -0.083671  -0.094136  0  3.985438  0
C  C108  1  0.01852595  0.34597277  0.69678999  1  -0.059728  0  -0.083598  -0.09415  0  3.985248  0
C  C109  1  0.48147538  0.34597580  0.30321644  1  -0.059847  0  -0.083645  -0.094445  0  3.985476  0
C  C110  1  0.02054868  0.61530007  0.22949298  1  -0.066985  0  -0.094436  -0.14475  0  3.982096  0
C  C111  1  0.47946259  0.61531240  0.77051279  1  -0.067582  0  -0.094394  -0.144707  0  3.982068  0
C  C112  1  0.97947544  0.38470229  0.77051128  1  -0.06715  0  -0.094437  -0.144586  0  3.982014  0
C  C113  1  0.52052535  0.38468996  0.22949187  1  -0.067035  0  -0.094434  -0.144549  0  3.981963  0
C  C114  1  0.92517758  0.57074632  0.15767224  1  -0.067323  0  -0.007862  0.0782  0  4.000241  0
C  C115  1  0.57483077  0.57075648  0.84233372  1  -0.067233  0  -0.007904  0.077967  0  4.000384  0
C  C116  1  0.07483447  0.42925122  0.84233386  1  -0.067361  0  -0.007897  0.077944  0  4.000481  0
C  C117  1  0.42516220  0.42924989  0.15766921  1  -0.066824  0  -0.007903  0.077917  0  4.000421  0
C  C118  1  0.79090809  0.56369727  0.16218027  1  -0.029954  0  -0.094607  -0.134606  0  3.977032  0
C  C119  1  0.70909928  0.56371463  0.83783269  1  -0.029227  0  -0.094497  -0.134412  0  3.977008  0
C  C120  1  0.20910795  0.43630027  0.83783226  1  -0.030392  0  -0.094536  -0.134345  0  3.977152  0
C  C121  1  0.29088967  0.43629174  0.16216893  1  -0.0301  0  -0.094504  -0.13429  0  3.977075  0
C  C122  1  0.75185687  0.60368685  0.23511746  1  -0.04379  0  -0.086188  -0.094227  0  3.974352  0
C  C123  1  0.74815923  0.60370518  0.76489888  1  -0.044748  0  -0.086319  -0.094469  0  3.974788  0
C  C124  1  0.24817020  0.39630828  0.76490268  1  -0.044002  0  -0.08632  -0.094428  0  3.975131  0
C  C125  1  0.25183173  0.39630361  0.23510435  1  -0.044701  0  -0.08635  -0.094657  0  3.975062  0
C  C126  1  0.96313416  0.53231580  0.07734184  1  -0.033877  0  -0.00865  0.011785  0  3.982978  0
C  C127  1  0.53687951  0.53232963  0.92266626  1  -0.033627  0  -0.008633  0.012027  0  3.98268  0
C  C128  1  0.03688493  0.46767773  0.92266223  1  -0.033787  0  -0.008597  0.011991  0  3.982819  0
C  C129  1  0.46311948  0.46767514  0.07733895  1  -0.033522  0  -0.008591  0.01202  0  3.98265  0
C  C130  1  0.94811200  0.42376165  0.05087301  1  -0.01754  0  -0.010658  0.122819  0  3.961888  0
C  C131  1  0.55188749  0.42377240  0.94912610  1  -0.017389  0  -0.010707  0.12267  0  3.961833  0
C  C132  1  0.05189605  0.57623108  0.94912858  1  -0.017355  0  -0.010715  0.122652  0  3.961843  0
C  C133  1  0.44810848  0.57623317  0.05087925  1  -0.017555  0  -0.010763  0.122614  0  3.961925  0
C  C134  1  0.89785858  0.33941547  0.10371306  1  -0.064557  0  -0.242886  -0.418303  0  3.964407  0
C  C135  1  0.60214959  0.33942346  0.89629074  1  -0.064734  0  -0.242821  -0.418287  0  3.964354  0
C  C136  1  0.10215147  0.66057966  0.89629014  1  -0.064672  0  -0.242821  -0.418342  0  3.964476  0
C  C137  1  0.39785743  0.66058130  0.10371644  1  -0.064872  0  -0.242827  -0.418153  0  3.964366  0
C  C138  1  0.01415175  0.60578904  0.02601175  1  -0.050619  0  -0.095783  -0.200649  0  3.983051  0
C  C139  1  0.48585456  0.60579392  0.97399783  1  -0.050569  0  -0.095675  -0.200574  0  3.983076  0
C  C140  1  0.98585529  0.39421011  0.97399095  1  -0.05053  0  -0.095744  -0.200669  0  3.983033  0
C  C141  1  0.51414946  0.39420925  0.02600630  1  -0.050557  0  -0.095749  -0.200689  0  3.983054  0
N  N142  1  0.64716969  0.93463603  0.40773207  1  -1.208366  0  -0.340794  -0.264403  0  3.550658  0
N  N143  1  0.85282174  0.93463926  0.59227047  1  -1.208407  0  -0.340783  -0.26444  0  3.550686  0
N  N144  1  0.35282130  0.06534947  0.59226348  1  -1.208289  0  -0.34074  -0.264347  0  3.550545  0
N  N145  1  0.14715916  0.06535427  0.40773366  1  -1.208248  0  -0.340764  -0.264304  0  3.550587  0
N  N146  1  0.49984748  0.99763763  0.29011156  1  -1.264558  0  -0.219052  0.010273  0  3.784652  0
N  N147  1  0.00014072  0.99763831  0.70988499  1  -1.265017  0  -0.219055  0.010115  0  3.784794  0
N  N148  1  0.50014653  0.00236312  0.70988193  1  -1.26467  0  -0.219096  0.010341  0  3.784196  0
N  N149  1  0.99984523  0.00236164  0.29011357  1  -1.26475  0  -0.219056  0.010219  0  3.784409  0
N  N150  1  0.02985051  0.04228052  0.01729362  1  -0.519201  0  -0.153106  -0.141885  0  3.301395  0
N  N151  1  0.47015328  0.04227636  0.98269429  1  -0.475694  0  -0.153099  -0.141943  0  3.301232  0
N  N152  1  0.97015256  0.95773308  0.98269560  1  -0.475495  0  -0.152983  -0.14178  0  3.301258  0
N  N153  1  0.52985182  0.95772600  0.01728950  1  -0.519016  0  -0.153038  -0.141763  0  3.301243  0
O  O154  1  0.67587758  0.69459164  0.37948979  1  -1.16398  0  -0.336014  -0.558721  0  2.108706  0
O  O155  1  0.82412280  0.69459901  0.62050840  1  -1.163986  0  -0.33604  -0.558782  0  2.108814  0
O  O156  1  0.32415854  0.30540350  0.62052929  1  -1.164732  0  -0.336104  -0.558925  0  2.10882  0
O  O157  1  0.17584310  0.30540576  0.37947912  1  -1.164721  0  -0.336168  -0.559028  0  2.108772  0
O  O158  1  0.88100763  0.76506146  0.43250257  1  -1.156824  0  -0.346591  -0.561393  0  2.206784  0
O  O159  1  0.61898619  0.76506073  0.56749021  1  -1.157015  0  -0.346575  -0.561369  0  2.206673  0
O  O160  1  0.11900847  0.23496096  0.56749651  1  -1.156876  0  -0.346849  -0.561597  0  2.206838  0
O  O161  1  0.38098872  0.23494886  0.43250651  1  -1.157067  0  -0.346734  -0.561439  0  2.206766  0
