# generated using pymatgen
data_AgH10C5SNO2
_symmetry_space_group_name_H-M   'P 1'
_cell_length_a   7.71861878
_cell_length_b   11.02919516
_cell_length_c   8.98482060
_cell_angle_alpha   93.86498505
_cell_angle_beta   89.99924526
_cell_angle_gamma   89.99860255
_symmetry_Int_Tables_number   1
_chemical_formula_structural   AgH10C5SNO2
_chemical_formula_sum   'Ag4 H40 C20 S4 N4 O8'
_cell_volume   763.13955474
_cell_formula_units_Z   4
loop_
 _symmetry_equiv_pos_site_id
 _symmetry_equiv_pos_as_xyz
  1  'x, y, z'
loop_
 _atom_site_type_symbol
 _atom_site_label
 _atom_site_symmetry_multiplicity
 _atom_site_fract_x
 _atom_site_fract_y
 _atom_site_fract_z
 _atom_site_occupancy
 _atom_site_hle17_bader_spin_density
 _atom_site_hle17_ddec_charge
 _atom_site_hle17_ddec_spin_density
 _atom_site_hle17_ddec_sum_bond_order
 _atom_site_hle17_magmom
 _atom_site_hse06_10hf_bader_spin_density
 _atom_site_hse06_10hf_ddec_charge
 _atom_site_hse06_10hf_ddec_spin_density
 _atom_site_hse06_10hf_ddec_sum_bond_order
 _atom_site_hse06_10hf_magmom
 _atom_site_hse06_bader_spin_density
 _atom_site_hse06_ddec_charge
 _atom_site_hse06_ddec_spin_density
 _atom_site_hse06_ddec_sum_bond_order
 _atom_site_hse06_magmom
 _atom_site_pbe_bader_spin_density
 _atom_site_pbe_cm5_charge
 _atom_site_pbe_ddec_charge
 _atom_site_pbe_ddec_spin_density
 _atom_site_pbe_ddec_sum_bond_order
 _atom_site_pbe_magmom
Ag  Ag0  1  0.20872932  0.10017505  0.39248667  1  0  0.463409  0  1.496301  0  0  0.341715  0  1.942509  0  0  0.36932  0  1.89828  0  0  0.410444  0.32178  0  1.973821  0
Ag  Ag1  1  0.70872394  0.39982475  0.60751925  1  0  0.46356  0  1.496052  0  0  0.34182  0  1.942319  0  0  0.36943  0  1.898085  0  0  0.410482  0.321889  0  1.973648  0
Ag  Ag2  1  0.79126429  0.89982108  0.60751623  1  0  0.463468  0  1.496225  0  0  0.341732  0  1.942458  0  0  0.369338  0  1.898235  0  0  0.410429  0.3218  0  1.973774  0
Ag  Ag3  1  0.29128003  0.60019077  0.39247026  1  0  0.463519  0  1.496021  0  0  0.341805  0  1.942189  0  0  0.369416  0  1.897964  0  0  0.410467  0.321875  0  1.973522  0
H  H4  1  0.11580356  0.25780947  0.80585255  1  0  0.035904  0  0.938453  0  0  0.050659  0  1.00144  0  0  0.051125  0  1.001688  0  0  0.097392  0.050239  0  1.001685  0
H  H5  1  0.61583537  0.24218516  0.19415359  1  0  0.035858  0  0.938447  0  0  0.050593  0  1.00143  0  0  0.051056  0  1.001682  0  0  0.097385  0.050149  0  1.001702  0
H  H6  1  0.88420041  0.74219398  0.19414895  1  0  0.035874  0  0.938517  0  0  0.050616  0  1.00148  0  0  0.051083  0  1.001727  0  0  0.097388  0.050197  0  1.001726  0
H  H7  1  0.38417119  0.75781085  0.80585486  1  0  0.035816  0  0.938452  0  0  0.050547  0  1.001409  0  0  0.051012  0  1.001658  0  0  0.097379  0.05013  0  1.001649  0
H  H8  1  0.68354005  0.16082249  0.97782709  1  0  0.121657  0  0.965455  0  0  0.139182  0  1.029397  0  0  0.140603  0  1.029495  0  0  0.093506  0.137896  0  1.029848  0
H  H9  1  0.18354539  0.33917216  0.02218466  1  0  0.12159  0  0.965426  0  0  0.139173  0  1.029301  0  0  0.140594  0  1.029396  0  0  0.093522  0.137889  0  1.029751  0
H  H10  1  0.31642764  0.83920135  0.02215669  1  0  0.121582  0  0.965737  0  0  0.139172  0  1.029591  0  0  0.14059  0  1.029694  0  0  0.093537  0.137881  0  1.030052  0
H  H11  1  0.81644044  0.66079599  0.97785069  1  0  0.121527  0  0.96578  0  0  0.139155  0  1.029613  0  0  0.140573  0  1.029709  0  0  0.09351  0.137867  0  1.03007  0
H  H12  1  0.87253573  0.07332685  0.93260733  1  0  0.139678  0  0.925336  0  0  0.164154  0  0.974962  0  0  0.165953  0  0.97402  0  0  0.10454  0.162837  0  0.975632  0
H  H13  1  0.37254091  0.42666680  0.06738853  1  0  0.13961  0  0.925384  0  0  0.164095  0  0.975017  0  0  0.165907  0  0.974042  0  0  0.104518  0.162779  0  0.975689  0
H  H14  1  0.12744491  0.92670273  0.06740716  1  0  0.139776  0  0.92528  0  0  0.164192  0  0.974974  0  0  0.166005  0  0.973998  0  0  0.104573  0.162877  0  0.97564  0
H  H15  1  0.62745917  0.57330208  0.93261127  1  0  0.13973  0  0.925355  0  0  0.164166  0  0.975024  0  0  0.165971  0  0.974064  0  0  0.104572  0.16285  0  0.975696  0
H  H16  1  0.78815292  0.17316205  0.79992988  1  0  0.126529  0  0.961637  0  0  0.144787  0  1.027926  0  0  0.146403  0  1.027267  0  0  0.096769  0.14338  0  1.028882  0
H  H17  1  0.28816296  0.32684208  0.20008107  1  0  0.126461  0  0.961721  0  0  0.144739  0  1.027986  0  0  0.146353  0  1.02733  0  0  0.096748  0.143332  0  1.028939  0
H  H18  1  0.21183420  0.82685075  0.20005932  1  0  0.126477  0  0.961806  0  0  0.144758  0  1.028049  0  0  0.146372  0  1.027388  0  0  0.096759  0.143347  0  1.029008  0
H  H19  1  0.71183583  0.67315514  0.79995758  1  0  0.126475  0  0.961707  0  0  0.144707  0  1.02801  0  0  0.146323  0  1.027347  0  0  0.096765  0.1433  0  1.028963  0
H  H20  1  0.39923471  0.00026146  0.63410944  1  0  0.094065  0  0.967435  0  0  0.109291  0  1.034763  0  0  0.110386  0  1.03444  0  0  0.097155  0.10836  0  1.035239  0
H  H21  1  0.89922843  0.49973176  0.36589125  1  0  0.094005  0  0.967502  0  0  0.10929  0  1.034776  0  0  0.110384  0  1.034444  0  0  0.097169  0.108354  0  1.035253  0
H  H22  1  0.60076149  0.99972745  0.36589041  1  0  0.093986  0  0.967554  0  0  0.109265  0  1.034833  0  0  0.110362  0  1.034502  0  0  0.097195  0.108329  0  1.035313  0
H  H23  1  0.10077554  0.50026637  0.63410297  1  0  0.094023  0  0.967467  0  0  0.109305  0  1.034737  0  0  0.110401  0  1.034414  0  0  0.097166  0.108371  0  1.035211  0
H  H24  1  0.53372953  0.13092158  0.63639824  1  0  0.101471  0  0.962607  0  0  0.116087  0  1.028899  0  0  0.117674  0  1.028047  0  0  0.096516  0.114898  0  1.02959  0
H  H25  1  0.03374402  0.36907268  0.36358079  1  0  0.101473  0  0.962729  0  0  0.116109  0  1.028992  0  0  0.117689  0  1.028147  0  0  0.096549  0.114928  0  1.029668  0
H  H26  1  0.46626667  0.86907219  0.36358657  1  0  0.101434  0  0.962712  0  0  0.116069  0  1.028987  0  0  0.117653  0  1.028136  0  0  0.096527  0.11488  0  1.029681  0
H  H27  1  0.96626254  0.63092829  0.63640818  1  0  0.10148  0  0.962664  0  0  0.116124  0  1.028931  0  0  0.11771  0  1.028079  0  0  0.096512  0.114937  0  1.029623  0
H  H28  1  0.26464162  0.07230254  0.87615622  1  0  0.080091  0  0.944252  0  0  0.096472  0  1.006112  0  0  0.097471  0  1.006871  0  0  0.089336  0.095719  0  1.005647  0
H  H29  1  0.76464901  0.42768888  0.12383315  1  0  0.080106  0  0.944302  0  0  0.096464  0  1.006159  0  0  0.097469  0  1.006915  0  0  0.089343  0.095708  0  1.005699  0
H  H30  1  0.73535328  0.92769205  0.12383314  1  0  0.080045  0  0.944279  0  0  0.096415  0  1.006174  0  0  0.097418  0  1.006928  0  0  0.089334  0.095662  0  1.00571  0
H  H31  1  0.23535756  0.57230400  0.87615046  1  0  0.080088  0  0.944438  0  0  0.096442  0  1.006275  0  0  0.097447  0  1.007034  0  0  0.089324  0.095688  0  1.005817  0
H  H32  1  0.40178508  0.20237759  0.88860926  1  0  0.077624  0  0.952713  0  0  0.095188  0  1.015318  0  0  0.095999  0  1.015962  0  0  0.091437  0.094505  0  1.015041  0
H  H33  1  0.90180722  0.29761867  0.11138312  1  0  0.077718  0  0.952578  0  0  0.095271  0  1.015135  0  0  0.096087  0  1.015776  0  0  0.091491  0.094594  0  1.014844  0
H  H34  1  0.59821500  0.79761682  0.11138899  1  0  0.07765  0  0.952521  0  0  0.095187  0  1.01517  0  0  0.095999  0  1.015811  0  0  0.091485  0.094507  0  1.014894  0
H  H35  1  0.09819805  0.70237110  0.88861906  1  0  0.077668  0  0.95252  0  0  0.095194  0  1.015121  0  0  0.096007  0  1.015767  0  0  0.091469  0.094517  0  1.014837  0
H  H36  1  0.08889470  0.04308472  0.66286628  1  0  0.2839  0  0.961296  0  0  0.271647  0  1.024018  0  0  0.278893  0  1.018517  0  0  0.271186  0.266069  0  1.028509  0
H  H37  1  0.58890298  0.45691301  0.33713754  1  0  0.283921  0  0.961321  0  0  0.271676  0  1.024019  0  0  0.278923  0  1.018513  0  0  0.271198  0.266098  0  1.028518  0
H  H38  1  0.91110279  0.95691868  0.33713744  1  0  0.28395  0  0.961223  0  0  0.271692  0  1.023967  0  0  0.27894  0  1.01846  0  0  0.271185  0.266115  0  1.028462  0
H  H39  1  0.41109451  0.54309154  0.66285406  1  0  0.283964  0  0.961425  0  0  0.271698  0  1.024132  0  0  0.278944  0  1.018622  0  0  0.271214  0.266131  0  1.028608  0
H  H40  1  0.98144399  0.15968491  0.59645610  1  0  0.284964  0  0.964877  0  0  0.271439  0  1.028722  0  0  0.278297  0  1.02377  0  0  0.273426  0.266563  0  1.032245  0
H  H41  1  0.48145790  0.34030941  0.40353617  1  0  0.284943  0  0.964892  0  0  0.271458  0  1.0287  0  0  0.278316  0  1.023745  0  0  0.273439  0.266582  0  1.032225  0
H  H42  1  0.01855739  0.84031501  0.40353944  1  0  0.284949  0  0.964798  0  0  0.271427  0  1.028645  0  0  0.278284  0  1.023697  0  0  0.273417  0.26655  0  1.032169  0
H  H43  1  0.51854736  0.65969217  0.59646735  1  0  0.285002  0  0.965011  0  0  0.271539  0  1.028752  0  0  0.278393  0  1.0238  0  0  0.273556  0.266664  0  1.032272  0
C  C44  1  0.29686446  0.31118279  0.64395439  1  0  0.619956  0  3.874607  0  0  0.573611  0  4.172496  0  0  0.604802  0  4.168438  0  0  0.191588  0.552435  0  4.174488  0
C  C45  1  0.79689755  0.18881837  0.35604707  1  0  0.619922  0  3.874852  0  0  0.573684  0  4.172535  0  0  0.604885  0  4.168464  0  0  0.19154  0.552502  0  4.174522  0
C  C46  1  0.70312915  0.68882165  0.35604277  1  0  0.619676  0  3.875107  0  0  0.573304  0  4.172976  0  0  0.604504  0  4.168913  0  0  0.191384  0.552119  0  4.174976  0
C  C47  1  0.20311938  0.81118619  0.64394454  1  0  0.619639  0  3.874868  0  0  0.573328  0  4.172595  0  0  0.604525  0  4.168545  0  0  0.19159  0.55213  0  4.174608  0
C  C48  1  0.20274970  0.20973050  0.72356498  1  0  0.075222  0  3.622233  0  0  0.058848  0  3.856088  0  0  0.058222  0  3.872519  0  0  -0.005313  0.058977  0  3.845072  0
C  C49  1  0.70277137  0.29026278  0.27643182  1  0  0.0752  0  3.622182  0  0  0.058857  0  3.855882  0  0  0.058242  0  3.872302  0  0  -0.005316  0.059002  0  3.844843  0
C  C50  1  0.79724650  0.79026492  0.27642782  1  0  0.075199  0  3.622316  0  0  0.058912  0  3.856032  0  0  0.058293  0  3.872457  0  0  -0.005293  0.059046  0  3.845009  0
C  C51  1  0.29723519  0.70973521  0.72356907  1  0  0.07545  0  3.621979  0  0  0.059185  0  3.855564  0  0  0.058561  0  3.871995  0  0  -0.005264  0.059325  0  3.84453  0
C  C52  1  0.75484168  0.11211393  0.88695587  1  0  -0.320214  0  3.608616  0  0  -0.396319  0  3.857256  0  0  -0.396862  0  3.86491  0  0  -0.225561  -0.395798  0  3.852459  0
C  C53  1  0.25484829  0.38788755  0.11304924  1  0  -0.32006  0  3.608541  0  0  -0.396257  0  3.857215  0  0  -0.396793  0  3.864866  0  0  -0.225556  -0.395733  0  3.852409  0
C  C54  1  0.24514026  0.88790332  0.11303828  1  0  -0.320285  0  3.608818  0  0  -0.396434  0  3.857436  0  0  -0.396969  0  3.865091  0  0  -0.225674  -0.395914  0  3.852644  0
C  C55  1  0.74514920  0.61209723  0.88697463  1  0  -0.320178  0  3.608861  0  0  -0.396306  0  3.857435  0  0  -0.396838  0  3.865084  0  0  -0.225638  -0.395783  0  3.852637  0
C  C56  1  0.46331322  0.07013673  0.70740684  1  0  -0.153462  0  3.62831  0  0  -0.19098  0  3.88266  0  0  -0.191156  0  3.895991  0  0  -0.157341  -0.190685  0  3.873388  0
C  C57  1  0.96332311  0.42986028  0.29258282  1  0  -0.153365  0  3.628281  0  0  -0.190966  0  3.882639  0  0  -0.191197  0  3.89613  0  0  -0.157328  -0.19066  0  3.873343  0
C  C58  1  0.53668557  0.92985584  0.29259231  1  0  -0.153365  0  3.628313  0  0  -0.190954  0  3.882725  0  0  -0.19115  0  3.896115  0  0  -0.15737  -0.190654  0  3.873444  0
C  C59  1  0.03668475  0.57014151  0.70741070  1  0  -0.153447  0  3.628354  0  0  -0.191075  0  3.882713  0  0  -0.191262  0  3.896082  0  0  -0.157325  -0.190772  0  3.873434  0
C  C60  1  0.33407373  0.13766418  0.81091490  1  0  -0.147106  0  3.695665  0  0  -0.190678  0  3.945413  0  0  -0.192688  0  3.961038  0  0  -0.170031  -0.18899  0  3.934532  0
C  C61  1  0.83408112  0.36233380  0.18907652  1  0  -0.14725  0  3.695727  0  0  -0.19072  0  3.945311  0  0  -0.192734  0  3.960908  0  0  -0.170085  -0.189022  0  3.934403  0
C  C62  1  0.66592895  0.86233120  0.18908012  1  0  -0.146998  0  3.695424  0  0  -0.190563  0  3.94516  0  0  -0.192592  0  3.960821  0  0  -0.17008  -0.188873  0  3.934276  0
C  C63  1  0.16592544  0.63766154  0.81092072  1  0  -0.147147  0  3.695715  0  0  -0.190617  0  3.94525  0  0  -0.19262  0  3.960841  0  0  -0.170053  -0.188932  0  3.934372  0
S  S64  1  0.62458084  0.98749388  0.80799981  1  0  0.053031  0  2.741972  0  0  0.094988  0  3.184095  0  0  0.087459  0  3.17633  0  0  -0.016547  0.10023  0  3.189862  0
S  S65  1  0.12458647  0.51251210  0.19199843  1  0  0.05302  0  2.741812  0  0  0.094964  0  3.184006  0  0  0.087435  0  3.176242  0  0  -0.016536  0.100212  0  3.189766  0
S  S66  1  0.37542054  0.01251502  0.19200231  1  0  0.053105  0  2.741647  0  0  0.095063  0  3.183795  0  0  0.087531  0  3.176034  0  0  -0.016494  0.100311  0  3.189544  0
S  S67  1  0.87542398  0.48748512  0.80799568  1  0  0.053072  0  2.741726  0  0  0.095029  0  3.183901  0  0  0.087495  0  3.176134  0  0  -0.016505  0.10028  0  3.189652  0
N  N68  1  0.10301545  0.12756497  0.62079582  1  0  -0.63535  0  3.198393  0  0  -0.568636  0  3.436148  0  0  -0.590202  0  3.436416  0  0  -0.657518  -0.552959  0  3.435741  0
N  N69  1  0.60302563  0.37242716  0.37920877  1  0  -0.635318  0  3.198275  0  0  -0.568665  0  3.436032  0  0  -0.590231  0  3.436284  0  0  -0.657481  -0.55301  0  3.435689  0
N  N70  1  0.89697945  0.87243120  0.37920486  1  0  -0.63543  0  3.19813  0  0  -0.568693  0  3.435775  0  0  -0.590287  0  3.43609  0  0  -0.65747  -0.553014  0  3.435366  0
N  N71  1  0.39698093  0.62757904  0.62079193  1  0  -0.635533  0  3.198657  0  0  -0.568855  0  3.436367  0  0  -0.590454  0  3.436696  0  0  -0.657634  -0.553186  0  3.435963  0
O  O72  1  0.27237115  0.31804329  0.50470236  1  0  -0.651812  0  2.030053  0  0  -0.588437  0  2.286116  0  0  -0.613761  0  2.274136  0  0  -0.335749  -0.570425  0  2.293952  0
O  O73  1  0.77240800  0.18195579  0.49528975  1  0  -0.651861  0  2.030536  0  0  -0.588429  0  2.286428  0  0  -0.613729  0  2.274383  0  0  -0.335725  -0.570413  0  2.294259  0
O  O74  1  0.72764060  0.68194582  0.49528749  1  0  -0.651631  0  2.030188  0  0  -0.588249  0  2.286248  0  0  -0.613541  0  2.274199  0  0  -0.33564  -0.570228  0  2.29408  0
O  O75  1  0.22763483  0.81806651  0.50472502  1  0  -0.651547  0  2.030838  0  0  -0.58811  0  2.286763  0  0  -0.613378  0  2.274676  0  0  -0.335667  -0.570093  0  2.2946  0
O  O76  1  0.39218996  0.38161975  0.72659337  1  0  -0.649529  0  1.960976  0  0  -0.593069  0  2.204439  0  0  -0.617995  0  2.194944  0  0  -0.345307  -0.575101  0  2.210357  0
O  O77  1  0.89222274  0.11837248  0.27339203  1  0  -0.649524  0  1.96099  0  0  -0.593094  0  2.204332  0  0  -0.618024  0  2.194827  0  0  -0.345271  -0.575121  0  2.210263  0
O  O78  1  0.60780105  0.61838739  0.27340521  1  0  -0.649428  0  1.961231  0  0  -0.592982  0  2.204723  0  0  -0.617914  0  2.195226  0  0  -0.345221  -0.574996  0  2.210633  0
O  O79  1  0.10776180  0.88162370  0.72660864  1  0  -0.649669  0  1.960725  0  0  -0.593205  0  2.204087  0  0  -0.618149  0  2.194596  0  0  -0.345425  -0.575228  0  2.210032  0
