# generated using pymatgen
data_ZnH10(C2N)4
_symmetry_space_group_name_H-M   'P 1'
_cell_length_a   14.75129158
_cell_length_b   14.75153709
_cell_length_c   14.75154357
_cell_angle_alpha   109.47164794
_cell_angle_beta   109.47092584
_cell_angle_gamma   109.47091175
_symmetry_Int_Tables_number   1
_chemical_formula_structural   ZnH10(C2N)4
_chemical_formula_sum   'Zn6 H60 C48 N24'
_cell_volume   2471.06314756
_cell_formula_units_Z   6
loop_
 _symmetry_equiv_pos_site_id
 _symmetry_equiv_pos_as_xyz
  1  'x, y, z'
loop_
 _atom_site_type_symbol
 _atom_site_label
 _atom_site_symmetry_multiplicity
 _atom_site_fract_x
 _atom_site_fract_y
 _atom_site_fract_z
 _atom_site_occupancy
 _atom_site_hle17_bader_spin_density
 _atom_site_hle17_ddec_charge
 _atom_site_hle17_ddec_spin_density
 _atom_site_hle17_ddec_sum_bond_order
 _atom_site_hle17_magmom
 _atom_site_hse06_10hf_bader_spin_density
 _atom_site_hse06_10hf_ddec_charge
 _atom_site_hse06_10hf_ddec_spin_density
 _atom_site_hse06_10hf_ddec_sum_bond_order
 _atom_site_hse06_10hf_magmom
 _atom_site_hse06_bader_spin_density
 _atom_site_hse06_ddec_charge
 _atom_site_hse06_ddec_spin_density
 _atom_site_hse06_ddec_sum_bond_order
 _atom_site_hse06_magmom
 _atom_site_pbe_bader_spin_density
 _atom_site_pbe_cm5_charge
 _atom_site_pbe_ddec_charge
 _atom_site_pbe_ddec_spin_density
 _atom_site_pbe_ddec_sum_bond_order
 _atom_site_pbe_magmom
Zn  Zn0  1  0.50000059  0.75000083  0.24999872  1  0  0.860487  0  2.066711  0  0  0.665562  0  2.542052  0  0  0.701398  0  2.503261  0  0  0.714877  0.64112  0  2.568443  0
Zn  Zn1  1  0.74999886  0.49999774  0.24999874  1  0  0.860502  0  2.066734  0  0  0.665588  0  2.542057  0  0  0.701409  0  2.503265  0  0  0.71489  0.64114  0  2.568445  0
Zn  Zn2  1  0.25000139  0.50000156  0.75000044  1  0  0.860508  0  2.066719  0  0  0.66558  0  2.542059  0  0  0.701415  0  2.503269  0  0  0.714893  0.641139  0  2.568449  0
Zn  Zn3  1  0.50000079  0.24999895  0.75000076  1  0  0.86049  0  2.066703  0  0  0.665567  0  2.542039  0  0  0.701401  0  2.503248  0  0  0.714879  0.641125  0  2.568429  0
Zn  Zn4  1  0.74999912  0.24999845  0.49999743  1  0  0.860513  0  2.066704  0  0  0.665596  0  2.542024  0  0  0.701431  0  2.503234  0  0  0.714907  0.641157  0  2.568413  0
Zn  Zn5  1  0.25000154  0.75000017  0.50000133  1  0  0.860523  0  2.066702  0  0  0.665602  0  2.542033  0  0  0.701439  0  2.50324  0  0  0.714878  0.641163  0  2.568423  0
H  H6  1  0.76308741  0.88468335  0.41888646  1  0  0.090214  0  0.968491  0  0  0.103237  0  1.02514  0  0  0.105448  0  1.024511  0  0  0.108121  0.101632  0  1.025673  0
H  H7  1  0.23691454  0.65579904  0.12159926  1  0  0.090188  0  0.968548  0  0  0.103216  0  1.025186  0  0  0.105424  0  1.024559  0  0  0.1081  0.101614  0  1.025715  0
H  H8  1  0.65579783  0.23691346  0.12159726  1  0  0.09018  0  0.96851  0  0  0.103204  0  1.025156  0  0  0.105413  0  1.024528  0  0  0.108102  0.101601  0  1.025685  0
H  H9  1  0.11531642  0.53419976  0.87840117  1  0  0.090226  0  0.968545  0  0  0.103248  0  1.025188  0  0  0.105454  0  1.024562  0  0  0.108124  0.101646  0  1.025717  0
H  H10  1  0.53420104  0.11531698  0.87840215  1  0  0.09023  0  0.968461  0  0  0.103244  0  1.025116  0  0  0.105453  0  1.024488  0  0  0.108134  0.101642  0  1.025646  0
H  H11  1  0.23691393  0.12159886  0.65579888  1  0  0.090202  0  0.968489  0  0  0.103227  0  1.025136  0  0  0.105436  0  1.024508  0  0  0.108107  0.101625  0  1.025666  0
H  H12  1  0.12159550  0.23691499  0.65580064  1  0  0.090233  0  0.968544  0  0  0.10324  0  1.025206  0  0  0.105452  0  1.024578  0  0  0.108125  0.101636  0  1.025739  0
H  H13  1  0.58111534  0.46580030  0.34420091  1  0  0.090194  0  0.968468  0  0  0.103222  0  1.025109  0  0  0.10543  0  1.024482  0  0  0.108114  0.10162  0  1.025638  0
H  H14  1  0.46579486  0.58111518  0.34419896  1  0  0.090226  0  0.968536  0  0  0.103222  0  1.025209  0  0  0.10543  0  1.024581  0  0  0.108121  0.101619  0  1.02574  0
H  H15  1  0.65579790  0.12159788  0.23691429  1  0  0.090231  0  0.968449  0  0  0.103244  0  1.025105  0  0  0.105453  0  1.024476  0  0  0.108137  0.101642  0  1.025634  0
H  H16  1  0.12159557  0.65580066  0.23691578  1  0  0.090226  0  0.968541  0  0  0.103232  0  1.025206  0  0  0.105444  0  1.024576  0  0  0.108119  0.101628  0  1.025738  0
H  H17  1  0.41888420  0.88468306  0.76308522  1  0  0.090238  0  0.968437  0  0  0.10325  0  1.025096  0  0  0.105459  0  1.024468  0  0  0.108137  0.101648  0  1.025626  0
H  H18  1  0.88468123  0.41888575  0.76308477  1  0  0.090235  0  0.968516  0  0  0.10323  0  1.025195  0  0  0.105438  0  1.024566  0  0  0.108125  0.101627  0  1.025725  0
H  H19  1  0.11531619  0.87840064  0.53420020  1  0  0.090215  0  0.96853  0  0  0.103247  0  1.025163  0  0  0.105454  0  1.024536  0  0  0.108115  0.101645  0  1.025692  0
H  H20  1  0.58111562  0.34420089  0.46580057  1  0  0.090212  0  0.968488  0  0  0.103244  0  1.025123  0  0  0.105452  0  1.024495  0  0  0.108123  0.101642  0  1.025652  0
H  H21  1  0.87840467  0.11531727  0.53420299  1  0  0.090208  0  0.968534  0  0  0.103237  0  1.025174  0  0  0.105448  0  1.024546  0  0  0.108111  0.101634  0  1.025705  0
H  H22  1  0.34420075  0.58111398  0.46579632  1  0  0.090227  0  0.968502  0  0  0.103256  0  1.025137  0  0  0.105468  0  1.024509  0  0  0.108127  0.101652  0  1.02567  0
H  H23  1  0.53420118  0.87840265  0.11531746  1  0  0.090184  0  0.968512  0  0  0.103212  0  1.02515  0  0  0.105422  0  1.024522  0  0  0.108113  0.10161  0  1.025679  0
H  H24  1  0.41888459  0.76308589  0.88468332  1  0  0.090177  0  0.968504  0  0  0.1032  0  1.025148  0  0  0.105409  0  1.024523  0  0  0.108102  0.101597  0  1.025679  0
H  H25  1  0.87840473  0.53420294  0.11531812  1  0  0.090231  0  0.968532  0  0  0.103262  0  1.025167  0  0  0.105473  0  1.02454  0  0  0.108116  0.101658  0  1.025699  0
H  H26  1  0.76308701  0.41888638  0.88468368  1  0  0.090219  0  0.968493  0  0  0.103246  0  1.025133  0  0  0.105459  0  1.024504  0  0  0.10812  0.101644  0  1.025665  0
H  H27  1  0.46579449  0.34419836  0.58111493  1  0  0.090222  0  0.968513  0  0  0.103226  0  1.025177  0  0  0.105434  0  1.02455  0  0  0.108118  0.101622  0  1.025708  0
H  H28  1  0.88468048  0.76308372  0.41888578  1  0  0.090236  0  0.968534  0  0  0.10323  0  1.025212  0  0  0.105437  0  1.024585  0  0  0.108129  0.101627  0  1.025743  0
H  H29  1  0.34420040  0.46579636  0.58111377  1  0  0.090201  0  0.968491  0  0  0.103233  0  1.025124  0  0  0.105446  0  1.024495  0  0  0.108115  0.101629  0  1.025657  0
H  H30  1  0.45052353  0.92595916  0.23619456  1  0  0.122188  0  0.95113  0  0  0.142649  0  1.011815  0  0  0.144815  0  1.01066  0  0  0.09681  0.141092  0  1.012641  0
H  H31  1  0.54947741  0.78567026  0.47543444  1  0  0.122251  0  0.951126  0  0  0.142693  0  1.011834  0  0  0.14486  0  1.010678  0  0  0.096817  0.141136  0  1.01266  0
H  H32  1  0.78566894  0.54947520  0.47543436  1  0  0.122243  0  0.951058  0  0  0.142681  0  1.01178  0  0  0.144847  0  1.010625  0  0  0.096817  0.141123  0  1.012607  0
H  H33  1  0.07404315  0.31023590  0.52456518  1  0  0.122237  0  0.95116  0  0  0.14267  0  1.011881  0  0  0.144836  0  1.010726  0  0  0.096811  0.141114  0  1.012707  0
H  H34  1  0.31023529  0.07404179  0.52456737  1  0  0.122214  0  0.951084  0  0  0.142678  0  1.011773  0  0  0.144847  0  1.010613  0  0  0.096819  0.141121  0  1.012599  0
H  H35  1  0.54947756  0.47543505  0.78567022  1  0  0.122255  0  0.951135  0  0  0.142691  0  1.011848  0  0  0.144856  0  1.010694  0  0  0.096823  0.141135  0  1.012675  0
H  H36  1  0.47543612  0.54947661  0.78567020  1  0  0.122225  0  0.951098  0  0  0.142681  0  1.011793  0  0  0.144848  0  1.010635  0  0  0.096831  0.141125  0  1.012618  0
H  H37  1  0.76380764  0.68976402  0.21432896  1  0  0.122227  0  0.951096  0  0  0.142659  0  1.011818  0  0  0.144824  0  1.010664  0  0  0.096813  0.141103  0  1.012645  0
H  H38  1  0.68976651  0.76380673  0.21433008  1  0  0.122238  0  0.951107  0  0  0.142694  0  1.011795  0  0  0.14486  0  1.010638  0  0  0.096841  0.141137  0  1.012621  0
H  H39  1  0.78566854  0.47543436  0.54947556  1  0  0.1222  0  0.951098  0  0  0.142662  0  1.011786  0  0  0.144829  0  1.010628  0  0  0.096809  0.141105  0  1.012612  0
H  H40  1  0.47543588  0.78567010  0.54947676  1  0  0.122218  0  0.951098  0  0  0.142674  0  1.011795  0  0  0.14484  0  1.010639  0  0  0.096831  0.141117  0  1.012621  0
H  H41  1  0.23619354  0.92595956  0.45052555  1  0  0.122228  0  0.951136  0  0  0.142678  0  1.011837  0  0  0.144844  0  1.01068  0  0  0.096818  0.141121  0  1.012663  0
H  H42  1  0.92595994  0.23619337  0.45052368  1  0  0.12222  0  0.95113  0  0  0.142679  0  1.011816  0  0  0.144844  0  1.010661  0  0  0.096829  0.141122  0  1.012642  0
H  H43  1  0.07404318  0.52456524  0.31023554  1  0  0.122232  0  0.951164  0  0  0.142665  0  1.011886  0  0  0.144831  0  1.010731  0  0  0.09681  0.141109  0  1.012713  0
H  H44  1  0.76380701  0.21432947  0.68976420  1  0  0.122239  0  0.951136  0  0  0.142675  0  1.011853  0  0  0.14484  0  1.010698  0  0  0.096819  0.141118  0  1.012679  0
H  H45  1  0.52456569  0.07404140  0.31023597  1  0  0.122172  0  0.95116  0  0  0.142613  0  1.011879  0  0  0.144781  0  1.010721  0  0  0.096792  0.141056  0  1.012704  0
H  H46  1  0.21432985  0.76380659  0.68976543  1  0  0.122189  0  0.951102  0  0  0.142652  0  1.011789  0  0  0.14482  0  1.010631  0  0  0.096814  0.141095  0  1.012614  0
H  H47  1  0.31023416  0.52456591  0.07404088  1  0  0.122216  0  0.951139  0  0  0.14268  0  1.011819  0  0  0.144848  0  1.010661  0  0  0.096814  0.141123  0  1.012646  0
H  H48  1  0.23619344  0.45052521  0.92595882  1  0  0.122249  0  0.951089  0  0  0.142696  0  1.011792  0  0  0.144862  0  1.010636  0  0  0.096821  0.141138  0  1.012618  0
H  H49  1  0.52456514  0.31023577  0.07404139  1  0  0.122173  0  0.951144  0  0  0.14263  0  1.011841  0  0  0.144798  0  1.010684  0  0  0.096801  0.141073  0  1.012667  0
H  H50  1  0.45052370  0.23619391  0.92595861  1  0  0.122177  0  0.95115  0  0  0.142634  0  1.011844  0  0  0.144801  0  1.010689  0  0  0.096801  0.141077  0  1.01267  0
H  H51  1  0.68976590  0.21432999  0.76380610  1  0  0.122201  0  0.951113  0  0  0.142656  0  1.011813  0  0  0.144822  0  1.010656  0  0  0.096822  0.141099  0  1.012639  0
H  H52  1  0.92595926  0.45052360  0.23619332  1  0  0.122207  0  0.951139  0  0  0.142672  0  1.011821  0  0  0.144839  0  1.010665  0  0  0.096816  0.141115  0  1.012646  0
H  H53  1  0.21432987  0.68976507  0.76380621  1  0  0.122175  0  0.951125  0  0  0.142637  0  1.011816  0  0  0.144803  0  1.010661  0  0  0.096802  0.14108  0  1.012642  0
H  H54  1  0.47082132  0.00000034  0.37025175  1  0  0.122823  0  0.935701  0  0  0.14454  0  0.992636  0  0  0.14661  0  0.992052  0  0  0.09583  0.143098  0  0.993015  0
H  H55  1  0.52917799  0.89942801  0.52917575  1  0  0.122797  0  0.935597  0  0  0.144525  0  0.992527  0  0  0.14659  0  0.991946  0  0  0.095802  0.143083  0  0.992905  0
H  H56  1  0.89942832  0.52917563  0.52917580  1  0  0.122776  0  0.935626  0  0  0.144511  0  0.992547  0  0  0.146574  0  0.991971  0  0  0.095798  0.143069  0  0.992926  0
H  H57  1  0.00000199  0.37025218  0.47082413  1  0  0.122767  0  0.935586  0  0  0.144485  0  0.992528  0  0  0.146549  0  0.991948  0  0  0.09578  0.143043  0  0.992907  0
H  H58  1  0.37025375  0.00000075  0.47082562  1  0  0.122778  0  0.93562  0  0  0.14451  0  0.992552  0  0  0.146572  0  0.991975  0  0  0.095793  0.143068  0  0.992931  0
H  H59  1  0.52917844  0.52917571  0.89942818  1  0  0.122805  0  0.935594  0  0  0.144533  0  0.992523  0  0  0.146597  0  0.991942  0  0  0.095804  0.14309  0  0.992901  0
H  H60  1  0.62974983  0.62974797  0.10057206  1  0  0.122798  0  0.935591  0  0  0.144525  0  0.99252  0  0  0.146589  0  0.991939  0  0  0.095799  0.143083  0  0.992899  0
H  H61  1  0.00000226  0.47082407  0.37025250  1  0  0.122774  0  0.935563  0  0  0.144489  0  0.99251  0  0  0.146556  0  0.991927  0  0  0.095787  0.143047  0  0.992888  0
H  H62  1  0.62975039  0.10057170  0.62974741  1  0  0.12279  0  0.935589  0  0  0.14452  0  0.992519  0  0  0.146584  0  0.991939  0  0  0.095805  0.143078  0  0.992897  0
H  H63  1  0.10057008  0.62974873  0.62974859  1  0  0.122847  0  0.93568  0  0  0.144564  0  0.992618  0  0  0.146632  0  0.992034  0  0  0.095839  0.143121  0  0.992996  0
H  H64  1  0.37025328  0.47082514  0.00000043  1  0  0.122796  0  0.935608  0  0  0.144526  0  0.992538  0  0  0.146588  0  0.991961  0  0  0.095797  0.143083  0  0.992917  0
H  H65  1  0.47082159  0.37025176  0.00000004  1  0  0.122818  0  0.935615  0  0  0.144533  0  0.992559  0  0  0.146603  0  0.991974  0  0  0.095821  0.14309  0  0.992938  0
C  C66  1  0.61605620  0.00000013  0.36902028  1  0  0.392703  0  3.750284  0  0  0.379041  0  4.009529  0  0  0.393127  0  4.027013  0  0  0.192074  0.369776  0  3.997342  0
C  C67  1  0.38394514  0.75296457  0.38394519  1  0  0.392751  0  3.750251  0  0  0.379139  0  4.009446  0  0  0.393226  0  4.026929  0  0  0.192127  0.369874  0  3.997257  0
C  C68  1  0.75296289  0.38394412  0.38394396  1  0  0.392791  0  3.750144  0  0  0.37913  0  4.009369  0  0  0.393218  0  4.026849  0  0  0.192069  0.369865  0  3.99718  0
C  C69  1  0.99999953  0.36901987  0.61605486  1  0  0.392739  0  3.750244  0  0  0.379118  0  4.009439  0  0  0.393207  0  4.026919  0  0  0.192117  0.369854  0  3.997249  0
C  C70  1  0.36901944  0.00000006  0.61605630  1  0  0.392788  0  3.750164  0  0  0.379138  0  4.009386  0  0  0.393225  0  4.026866  0  0  0.19205  0.369873  0  3.997198  0
C  C71  1  0.38394470  0.38394488  0.75296466  1  0  0.392789  0  3.75021  0  0  0.379176  0  4.009401  0  0  0.393263  0  4.026881  0  0  0.192137  0.369911  0  3.997211  0
C  C72  1  0.63098018  0.63098035  0.24703528  1  0  0.392733  0  3.750252  0  0  0.379094  0  4.009475  0  0  0.393181  0  4.026956  0  0  0.192105  0.369829  0  3.997284  0
C  C73  1  0.00000003  0.61605485  0.36901974  1  0  0.39273  0  3.750177  0  0  0.379125  0  4.009353  0  0  0.393212  0  4.026836  0  0  0.192112  0.369861  0  3.997164  0
C  C74  1  0.63097989  0.24703488  0.63098011  1  0  0.392723  0  3.750257  0  0  0.379113  0  4.009448  0  0  0.3932  0  4.02693  0  0  0.192123  0.369848  0  3.997259  0
C  C75  1  0.24703537  0.63097949  0.63097959  1  0  0.392777  0  3.750312  0  0  0.379136  0  4.009528  0  0  0.393225  0  4.027009  0  0  0.192101  0.369871  0  3.997338  0
C  C76  1  0.36901886  0.61605607  0.99999916  1  0  0.392835  0  3.750033  0  0  0.379139  0  4.009304  0  0  0.393227  0  4.026782  0  0  0.192082  0.369874  0  3.997116  0
C  C77  1  0.61605592  0.36902001  0.00000009  1  0  0.392703  0  3.750221  0  0  0.379068  0  4.009439  0  0  0.393155  0  4.026922  0  0  0.192068  0.369803  0  3.99725  0
C  C78  1  0.73393832  0.94290316  0.41703220  1  0  -0.038682  0  3.837349  0  0  -0.071441  0  4.099725  0  0  -0.070684  0  4.12186  0  0  -0.029738  -0.071896  0  4.084705  0
C  C79  1  0.26606426  0.68309561  0.20896651  1  0  -0.038803  0  3.837416  0  0  -0.071571  0  4.099799  0  0  -0.070814  0  4.121934  0  0  -0.029771  -0.072027  0  4.084779  0
C  C80  1  0.68309473  0.26606404  0.20896654  1  0  -0.038708  0  3.837341  0  0  -0.071478  0  4.099727  0  0  -0.070721  0  4.12186  0  0  -0.029756  -0.071935  0  4.084707  0
C  C81  1  0.05709843  0.47413073  0.79103372  1  0  -0.038765  0  3.837404  0  0  -0.071525  0  4.09978  0  0  -0.070764  0  4.121912  0  0  -0.029768  -0.071981  0  4.08476  0
C  C82  1  0.47412890  0.05709780  0.79103374  1  0  -0.038721  0  3.837318  0  0  -0.071482  0  4.099711  0  0  -0.070723  0  4.121842  0  0  -0.029783  -0.071938  0  4.084691  0
C  C83  1  0.26606445  0.20896713  0.68309662  1  0  -0.038779  0  3.837342  0  0  -0.071546  0  4.099728  0  0  -0.070789  0  4.121861  0  0  -0.029764  -0.072002  0  4.084709  0
C  C84  1  0.20896438  0.26606573  0.68309704  1  0  -0.038657  0  3.837375  0  0  -0.071398  0  4.099739  0  0  -0.070641  0  4.121874  0  0  -0.029694  -0.071854  0  4.084719  0
C  C85  1  0.58296721  0.52586957  0.31690252  1  0  -0.03869  0  3.837235  0  0  -0.071449  0  4.099603  0  0  -0.070692  0  4.121737  0  0  -0.029736  -0.071905  0  4.084583  0
C  C86  1  0.52586641  0.58296838  0.31690222  1  0  -0.038667  0  3.837289  0  0  -0.071395  0  4.099657  0  0  -0.070635  0  4.121791  0  0  -0.029687  -0.071852  0  4.084638  0
C  C87  1  0.68309456  0.20896634  0.26606443  1  0  -0.038692  0  3.83732  0  0  -0.071452  0  4.09971  0  0  -0.070693  0  4.121842  0  0  -0.029758  -0.071909  0  4.084692  0
C  C88  1  0.20896431  0.68309700  0.26606596  1  0  -0.038632  0  3.837343  0  0  -0.071371  0  4.099706  0  0  -0.070613  0  4.12184  0  0  -0.029685  -0.071827  0  4.084686  0
C  C89  1  0.41703076  0.94290217  0.73393553  1  0  -0.038723  0  3.837257  0  0  -0.071481  0  4.099653  0  0  -0.070722  0  4.121783  0  0  -0.029768  -0.071938  0  4.084634  0
C  C90  1  0.94289916  0.41703158  0.73393441  1  0  -0.038711  0  3.837362  0  0  -0.071449  0  4.099752  0  0  -0.070688  0  4.121884  0  0  -0.029707  -0.071905  0  4.084733  0
C  C91  1  0.05709799  0.79103311  0.47413000  1  0  -0.038807  0  3.837427  0  0  -0.07158  0  4.099809  0  0  -0.070821  0  4.12194  0  0  -0.029778  -0.072037  0  4.084789  0
C  C92  1  0.58296791  0.31690296  0.52587038  1  0  -0.038722  0  3.837328  0  0  -0.071485  0  4.0997  0  0  -0.070726  0  4.121832  0  0  -0.029747  -0.071941  0  4.084679  0
C  C93  1  0.79103533  0.05709831  0.47413011  1  0  -0.038718  0  3.837424  0  0  -0.071488  0  4.099804  0  0  -0.070731  0  4.121939  0  0  -0.029745  -0.071944  0  4.084783  0
C  C94  1  0.31690456  0.58296749  0.52586944  1  0  -0.038672  0  3.837343  0  0  -0.071427  0  4.099706  0  0  -0.070673  0  4.121845  0  0  -0.029744  -0.071884  0  4.084685  0
C  C95  1  0.47412922  0.79103348  0.05709811  1  0  -0.038683  0  3.837381  0  0  -0.071455  0  4.099766  0  0  -0.070697  0  4.1219  0  0  -0.029769  -0.071913  0  4.084747  0
C  C96  1  0.41703075  0.73393644  0.94290267  1  0  -0.038716  0  3.837338  0  0  -0.071484  0  4.099724  0  0  -0.070728  0  4.121859  0  0  -0.029749  -0.071941  0  4.084705  0
C  C97  1  0.79103495  0.47413045  0.05709789  1  0  -0.038787  0  3.837479  0  0  -0.071558  0  4.099866  0  0  -0.070802  0  4.122001  0  0  -0.029785  -0.072015  0  4.084846  0
C  C98  1  0.73393719  0.41703254  0.94290317  1  0  -0.038733  0  3.83742  0  0  -0.071501  0  4.099803  0  0  -0.070745  0  4.12194  0  0  -0.029781  -0.071958  0  4.084785  0
C  C99  1  0.52586652  0.31690203  0.58296839  1  0  -0.03871  0  3.837334  0  0  -0.071449  0  4.099718  0  0  -0.07069  0  4.121852  0  0  -0.029714  -0.071905  0  4.084698  0
C  C100  1  0.94289831  0.73393396  0.41703110  1  0  -0.038668  0  3.837389  0  0  -0.071402  0  4.099772  0  0  -0.07064  0  4.121903  0  0  -0.029695  -0.071859  0  4.084752  0
C  C101  1  0.31690438  0.52586980  0.58296732  1  0  -0.038708  0  3.83736  0  0  -0.071473  0  4.099732  0  0  -0.070721  0  4.121871  0  0  -0.029766  -0.071928  0  4.08471  0
C  C102  1  0.51008027  0.00000025  0.31849804  1  0  -0.389307  0  3.732674  0  0  -0.469248  0  3.969951  0  0  -0.472894  0  3.975579  0  0  -0.234405  -0.466539  0  3.965926  0
C  C103  1  0.48992099  0.80841700  0.48991776  1  0  -0.389431  0  3.732583  0  0  -0.469394  0  3.96989  0  0  -0.473033  0  3.975516  0  0  -0.234429  -0.466685  0  3.965867  0
C  C104  1  0.80841582  0.48991778  0.48991749  1  0  -0.389369  0  3.732489  0  0  -0.469334  0  3.96979  0  0  -0.472973  0  3.975417  0  0  -0.234383  -0.466624  0  3.965767  0
C  C105  1  0.00000294  0.31849850  0.51008200  1  0  -0.389384  0  3.732583  0  0  -0.469335  0  3.969905  0  0  -0.472972  0  3.97553  0  0  -0.234402  -0.466628  0  3.965882  0
C  C106  1  0.31849849  0.00000043  0.51008245  1  0  -0.389371  0  3.732543  0  0  -0.469353  0  3.969844  0  0  -0.47299  0  3.97547  0  0  -0.234384  -0.466644  0  3.965822  0
C  C107  1  0.48992097  0.48991763  0.80841674  1  0  -0.389447  0  3.732587  0  0  -0.469406  0  3.969906  0  0  -0.473045  0  3.975531  0  0  -0.234432  -0.4667  0  3.965884  0
C  C108  1  0.68150409  0.68150152  0.19158326  1  0  -0.389406  0  3.732489  0  0  -0.46935  0  3.969809  0  0  -0.472988  0  3.975434  0  0  -0.234417  -0.466644  0  3.965787  0
C  C109  1  0.00000274  0.51008207  0.31849820  1  0  -0.389377  0  3.732572  0  0  -0.469332  0  3.969878  0  0  -0.472973  0  3.975504  0  0  -0.234397  -0.466624  0  3.965855  0
C  C110  1  0.68150382  0.19158332  0.68150073  1  0  -0.389374  0  3.732561  0  0  -0.469332  0  3.969878  0  0  -0.47297  0  3.975504  0  0  -0.234423  -0.466624  0  3.965856  0
C  C111  1  0.19158198  0.68150226  0.68150250  1  0  -0.389352  0  3.732591  0  0  -0.469316  0  3.969859  0  0  -0.472958  0  3.975484  0  0  -0.234434  -0.466606  0  3.965836  0
C  C112  1  0.31849790  0.51008269  0.00000009  1  0  -0.389444  0  3.732531  0  0  -0.469408  0  3.969839  0  0  -0.473046  0  3.975466  0  0  -0.234405  -0.466697  0  3.965816  0
C  C113  1  0.51007898  0.31849704  0.99999970  1  0  -0.389275  0  3.732493  0  0  -0.469232  0  3.969763  0  0  -0.472878  0  3.975388  0  0  -0.234375  -0.466524  0  3.965739  0
N  N114  1  0.62357164  0.90730733  0.35055273  1  0  -0.451942  0  3.292676  0  0  -0.367988  0  3.581328  0  0  -0.388337  0  3.594513  0  0  -0.38065  -0.354263  0  3.572162  0
N  N115  1  0.37643159  0.72698202  0.28373842  1  0  -0.451861  0  3.292606  0  0  -0.367923  0  3.581239  0  0  -0.388271  0  3.594424  0  0  -0.380637  -0.354197  0  3.572073  0
N  N116  1  0.72698051  0.37642982  0.28373700  1  0  -0.451959  0  3.292686  0  0  -0.367982  0  3.581299  0  0  -0.388327  0  3.594477  0  0  -0.380629  -0.354254  0  3.57213  0
N  N117  1  0.09269319  0.44324414  0.71626164  1  0  -0.451905  0  3.29267  0  0  -0.367953  0  3.581293  0  0  -0.388303  0  3.594477  0  0  -0.380642  -0.354228  0  3.572127  0
N  N118  1  0.44324458  0.09269249  0.71626351  1  0  -0.451971  0  3.292689  0  0  -0.367997  0  3.581302  0  0  -0.388345  0  3.594485  0  0  -0.380624  -0.354271  0  3.572137  0
N  N119  1  0.37643187  0.28373813  0.72698203  1  0  -0.451912  0  3.292611  0  0  -0.367971  0  3.581246  0  0  -0.388318  0  3.594426  0  0  -0.380654  -0.354245  0  3.572078  0
N  N120  1  0.28373575  0.37643062  0.72698361  1  0  -0.451948  0  3.292698  0  0  -0.368006  0  3.581339  0  0  -0.388356  0  3.594524  0  0  -0.380719  -0.354281  0  3.572171  0
N  N121  1  0.64944944  0.55675611  0.27301793  1  0  -0.451955  0  3.292683  0  0  -0.368008  0  3.581329  0  0  -0.388352  0  3.594507  0  0  -0.380662  -0.35428  0  3.572159  0
N  N122  1  0.55675241  0.64944648  0.27301611  1  0  -0.451914  0  3.292704  0  0  -0.36796  0  3.581336  0  0  -0.38831  0  3.594521  0  0  -0.380697  -0.354234  0  3.572168  0
N  N123  1  0.72698060  0.28373622  0.37642919  1  0  -0.451979  0  3.292693  0  0  -0.368005  0  3.581314  0  0  -0.388354  0  3.594497  0  0  -0.380657  -0.35428  0  3.572149  0
N  N124  1  0.28373609  0.72698315  0.37643023  1  0  -0.451941  0  3.292736  0  0  -0.368  0  3.581374  0  0  -0.388351  0  3.59456  0  0  -0.380707  -0.354275  0  3.572207  0
N  N125  1  0.35055085  0.90730700  0.62356969  1  0  -0.451968  0  3.292636  0  0  -0.367997  0  3.581248  0  0  -0.388345  0  3.59443  0  0  -0.38065  -0.354272  0  3.572083  0
N  N126  1  0.90730528  0.35055248  0.62356921  1  0  -0.451888  0  3.292657  0  0  -0.367942  0  3.58128  0  0  -0.388292  0  3.594463  0  0  -0.380718  -0.354217  0  3.572114  0
N  N127  1  0.09269311  0.71626148  0.44324392  1  0  -0.451869  0  3.292657  0  0  -0.367932  0  3.581294  0  0  -0.388282  0  3.594478  0  0  -0.380641  -0.354208  0  3.572129  0
N  N128  1  0.64944868  0.27301707  0.55675570  1  0  -0.451907  0  3.292669  0  0  -0.367969  0  3.581303  0  0  -0.388317  0  3.594487  0  0  -0.380644  -0.354243  0  3.572137  0
N  N129  1  0.71626352  0.09269255  0.44324553  1  0  -0.45194  0  3.29276  0  0  -0.36798  0  3.581402  0  0  -0.388329  0  3.594587  0  0  -0.380674  -0.354255  0  3.572236  0
N  N130  1  0.27301851  0.64944699  0.55675471  1  0  -0.452028  0  3.292796  0  0  -0.368082  0  3.581448  0  0  -0.388433  0  3.594632  0  0  -0.380652  -0.354356  0  3.572281  0
N  N131  1  0.44324484  0.71626372  0.09269240  1  0  -0.451971  0  3.29267  0  0  -0.367986  0  3.581305  0  0  -0.388333  0  3.594486  0  0  -0.380625  -0.35426  0  3.572139  0
N  N132  1  0.35055205  0.62357116  0.90730694  1  0  -0.451916  0  3.292585  0  0  -0.367929  0  3.581217  0  0  -0.388277  0  3.594401  0  0  -0.380648  -0.354205  0  3.572052  0
N  N133  1  0.71626344  0.44324575  0.09269255  1  0  -0.451885  0  3.292716  0  0  -0.36794  0  3.581358  0  0  -0.388285  0  3.594538  0  0  -0.380628  -0.354213  0  3.572187  0
N  N134  1  0.62357137  0.35055232  0.90730781  1  0  -0.451906  0  3.292702  0  0  -0.367956  0  3.581342  0  0  -0.388305  0  3.594528  0  0  -0.380624  -0.354229  0  3.572175  0
N  N135  1  0.55675247  0.27301636  0.64944679  1  0  -0.4519  0  3.292694  0  0  -0.367958  0  3.581319  0  0  -0.388308  0  3.594503  0  0  -0.380708  -0.354232  0  3.572151  0
N  N136  1  0.90730509  0.62356962  0.35055303  1  0  -0.451901  0  3.292643  0  0  -0.367956  0  3.581261  0  0  -0.388302  0  3.59444  0  0  -0.380702  -0.354229  0  3.572092  0
N  N137  1  0.27301860  0.55675475  0.64944690  1  0  -0.451925  0  3.292728  0  0  -0.367975  0  3.581374  0  0  -0.388325  0  3.594559  0  0  -0.380617  -0.354249  0  3.572205  0
