# generated using pymatgen
data_CuH8C4SClO
_symmetry_space_group_name_H-M   'P 1'
_cell_length_a   6.30070212
_cell_length_b   9.45311753
_cell_length_c   11.32290199
_cell_angle_alpha   104.47995799
_cell_angle_beta   90.00001917
_cell_angle_gamma   90.00011698
_symmetry_Int_Tables_number   1
_chemical_formula_structural   CuH8C4SClO
_chemical_formula_sum   'Cu4 H32 C16 S4 Cl4 O4'
_cell_volume   652.98409704
_cell_formula_units_Z   4
loop_
 _symmetry_equiv_pos_site_id
 _symmetry_equiv_pos_as_xyz
  1  'x, y, z'
loop_
 _atom_site_type_symbol
 _atom_site_label
 _atom_site_symmetry_multiplicity
 _atom_site_fract_x
 _atom_site_fract_y
 _atom_site_fract_z
 _atom_site_occupancy
 _atom_site_hle17_bader_spin_density
 _atom_site_hle17_ddec_charge
 _atom_site_hle17_ddec_spin_density
 _atom_site_hle17_ddec_sum_bond_order
 _atom_site_hle17_magmom
 _atom_site_hse06_10hf_bader_spin_density
 _atom_site_hse06_10hf_ddec_charge
 _atom_site_hse06_10hf_ddec_spin_density
 _atom_site_hse06_10hf_ddec_sum_bond_order
 _atom_site_hse06_10hf_magmom
 _atom_site_hse06_bader_spin_density
 _atom_site_hse06_ddec_charge
 _atom_site_hse06_ddec_spin_density
 _atom_site_hse06_ddec_sum_bond_order
 _atom_site_hse06_magmom
 _atom_site_pbe_bader_spin_density
 _atom_site_pbe_cm5_charge
 _atom_site_pbe_ddec_charge
 _atom_site_pbe_ddec_spin_density
 _atom_site_pbe_ddec_sum_bond_order
 _atom_site_pbe_magmom
Cu  Cu0  1  0.43910191  0.01080784  0.14062497  1  0  0.279034  0  2.131953  0  0  0.206466  0  2.620523  0  0  0.206357  0  2.57679  0  0  0.315765  0.208714  0  2.648775  0
Cu  Cu1  1  0.93910488  0.98919089  0.35937514  1  0  0.279005  0  2.131944  0  0  0.206449  0  2.620524  0  0  0.206324  0  2.576771  0  0  0.315754  0.208696  0  2.648779  0
Cu  Cu2  1  0.56089797  0.98919149  0.85937429  1  0  0.27903  0  2.131944  0  0  0.206477  0  2.620504  0  0  0.206352  0  2.57676  0  0  0.315768  0.208732  0  2.648747  0
Cu  Cu3  1  0.06089817  0.01080844  0.64062501  1  0  0.278996  0  2.131949  0  0  0.206451  0  2.620535  0  0  0.206303  0  2.576766  0  0  0.315789  0.208702  0  2.648851  0
H  H4  1  0.74273585  0.76277987  0.01202018  1  0  0.102157  0  0.956888  0  0  0.115965  0  1.021126  0  0  0.117942  0  1.020227  0  0  0.092633  0.114453  0  1.022039  0
H  H5  1  0.24273694  0.23722184  0.48797963  1  0  0.102153  0  0.956904  0  0  0.115946  0  1.021139  0  0  0.117922  0  1.020238  0  0  0.092628  0.114437  0  1.022059  0
H  H6  1  0.25726244  0.23722165  0.98797954  1  0  0.10215  0  0.956885  0  0  0.115953  0  1.02113  0  0  0.117931  0  1.020231  0  0  0.092629  0.114443  0  1.022039  0
H  H7  1  0.75726294  0.76277749  0.51201963  1  0  0.10215  0  0.956883  0  0  0.115952  0  1.021124  0  0  0.11793  0  1.020225  0  0  0.092629  0.114445  0  1.022041  0
H  H8  1  0.95243174  0.89056780  0.06511388  1  0  0.105197  0  0.958713  0  0  0.11746  0  1.02763  0  0  0.118954  0  1.027371  0  0  0.091037  0.116276  0  1.027879  0
H  H9  1  0.45243399  0.10943532  0.43488627  1  0  0.105215  0  0.95869  0  0  0.117468  0  1.027581  0  0  0.118946  0  1.027354  0  0  0.091048  0.116288  0  1.027834  0
H  H10  1  0.04756814  0.10943262  0.93488738  1  0  0.105188  0  0.958711  0  0  0.117451  0  1.027627  0  0  0.11894  0  1.027381  0  0  0.091033  0.116267  0  1.027883  0
H  H11  1  0.54756906  0.89056729  0.56511368  1  0  0.105199  0  0.958726  0  0  0.117459  0  1.027639  0  0  0.118951  0  1.027383  0  0  0.091045  0.116279  0  1.027892  0
H  H12  1  0.08850381  0.63407616  0.02878065  1  0  0.084292  0  0.953177  0  0  0.092817  0  1.020015  0  0  0.0942  0  1.019228  0  0  0.102484  0.091603  0  1.020937  0
H  H13  1  0.58850494  0.36592641  0.47121754  1  0  0.084291  0  0.953176  0  0  0.092822  0  1.020028  0  0  0.094203  0  1.019243  0  0  0.102488  0.091611  0  1.020953  0
H  H14  1  0.91149290  0.36592317  0.97121773  1  0  0.08425  0  0.953247  0  0  0.092796  0  1.020081  0  0  0.094179  0  1.019295  0  0  0.102475  0.091583  0  1.021002  0
H  H15  1  0.41149176  0.63407620  0.52878152  1  0  0.084263  0  0.953231  0  0  0.092808  0  1.020055  0  0  0.094192  0  1.019267  0  0  0.102477  0.091596  0  1.020979  0
H  H16  1  0.10373404  0.72837344  0.18721549  1  0  0.039168  0  0.959381  0  0  0.045754  0  1.044038  0  0  0.0475  0  1.041314  0  0  0.084011  0.044562  0  1.045415  0
H  H17  1  0.60373322  0.27162915  0.31278360  1  0  0.039136  0  0.959415  0  0  0.045749  0  1.044069  0  0  0.047497  0  1.041342  0  0  0.084009  0.044556  0  1.045449  0
H  H18  1  0.89626742  0.27162589  0.81278377  1  0  0.039153  0  0.959373  0  0  0.045753  0  1.044041  0  0  0.047498  0  1.041315  0  0  0.084012  0.04456  0  1.045428  0
H  H19  1  0.39626666  0.72837455  0.68721746  1  0  0.039146  0  0.959385  0  0  0.04573  0  1.044055  0  0  0.047468  0  1.041336  0  0  0.084004  0.044537  0  1.045439  0
H  H20  1  0.86372387  0.65170067  0.32373316  1  0  0.045197  0  0.964507  0  0  0.056192  0  1.037072  0  0  0.057261  0  1.035674  0  0  0.086421  0.055176  0  1.03842  0
H  H21  1  0.36372354  0.34829904  0.17626626  1  0  0.045167  0  0.964509  0  0  0.056173  0  1.03706  0  0  0.057243  0  1.035663  0  0  0.086415  0.055153  0  1.038404  0
H  H22  1  0.13627760  0.34829976  0.67626721  1  0  0.045216  0  0.964494  0  0  0.056216  0  1.037056  0  0  0.057285  0  1.03566  0  0  0.086433  0.055198  0  1.038407  0
H  H23  1  0.63627634  0.65170029  0.82373389  1  0  0.045186  0  0.9645  0  0  0.056203  0  1.037045  0  0  0.057273  0  1.035648  0  0  0.086425  0.055185  0  1.038388  0
H  H24  1  0.67895851  0.50900844  0.25947285  1  0  0.076823  0  0.935424  0  0  0.091647  0  0.995192  0  0  0.091877  0  0.995579  0  0  0.108892  0.091329  0  0.995168  0
H  H25  1  0.17895865  0.49098990  0.24052536  1  0  0.076795  0  0.935429  0  0  0.09162  0  0.995194  0  0  0.09185  0  0.995581  0  0  0.108898  0.091302  0  0.99517  0
H  H26  1  0.32104137  0.49099198  0.74052841  1  0  0.076841  0  0.935412  0  0  0.091668  0  0.995178  0  0  0.091899  0  0.995566  0  0  0.108897  0.091351  0  0.995155  0
H  H27  1  0.82103964  0.50900725  0.75947168  1  0  0.076815  0  0.935409  0  0  0.091645  0  0.995186  0  0  0.091876  0  0.995572  0  0  0.108897  0.091327  0  0.99516  0
H  H28  1  0.49102111  0.75002214  0.32647158  1  0  0.116124  0  0.955376  0  0  0.132354  0  1.013698  0  0  0.133429  0  1.015182  0  0  0.096033  0.131517  0  1.012617  0
H  H29  1  0.99102014  0.24997776  0.17352879  1  0  0.116142  0  0.955372  0  0  0.132366  0  1.013687  0  0  0.133441  0  1.015169  0  0  0.096033  0.131525  0  1.0126  0
H  H30  1  0.50898035  0.24997938  0.67352990  1  0  0.116148  0  0.955361  0  0  0.132378  0  1.013673  0  0  0.133452  0  1.015156  0  0  0.096042  0.131539  0  1.012592  0
H  H31  1  0.00897815  0.75002048  0.82647113  1  0  0.11615  0  0.955367  0  0  0.13238  0  1.013681  0  0  0.133455  0  1.015163  0  0  0.096039  0.13154  0  1.012594  0
H  H32  1  0.47533858  0.67962055  0.16492192  1  0  0.107799  0  0.924944  0  0  0.124217  0  0.983096  0  0  0.125765  0  0.983027  0  0  0.103015  0.122837  0  0.98348  0
H  H33  1  0.97533950  0.32037824  0.33507733  1  0  0.107772  0  0.92494  0  0  0.124197  0  0.983069  0  0  0.125747  0  0.983  0  0  0.103017  0.122821  0  0.983458  0
H  H34  1  0.52465971  0.32037988  0.83507933  1  0  0.107817  0  0.924963  0  0  0.124234  0  0.983103  0  0  0.125783  0  0.983035  0  0  0.10302  0.122856  0  0.983486  0
H  H35  1  0.02466038  0.67962000  0.66492259  1  0  0.107829  0  0.924982  0  0  0.124247  0  0.983121  0  0  0.125796  0  0.983052  0  0  0.103032  0.12287  0  0.983511  0
C  C36  1  0.85602013  0.80367417  0.08646198  1  0  -0.18287  0  3.625502  0  0  -0.221073  0  3.882282  0  0  -0.223161  0  3.893068  0  0  -0.163231  -0.219471  0  3.875196  0
C  C37  1  0.35602105  0.19632771  0.41353790  1  0  -0.182973  0  3.625642  0  0  -0.221109  0  3.882415  0  0  -0.223191  0  3.893187  0  0  -0.163279  -0.219511  0  3.875345  0
C  C38  1  0.14397975  0.19632625  0.91353840  1  0  -0.182855  0  3.625464  0  0  -0.221035  0  3.882261  0  0  -0.223123  0  3.893042  0  0  -0.163221  -0.21943  0  3.875177  0
C  C39  1  0.64398041  0.80367381  0.58646182  1  0  -0.182877  0  3.62552  0  0  -0.221043  0  3.88227  0  0  -0.223131  0  3.893055  0  0  -0.163223  -0.21944  0  3.875198  0
C  C40  1  0.99481401  0.68284914  0.11050678  1  0  0.073974  0  3.659816  0  0  0.019484  0  3.927009  0  0  0.025611  0  3.933485  0  0  -0.085388  0.015398  0  3.922175  0
C  C41  1  0.49481529  0.31715077  0.38949183  1  0  0.074098  0  3.659918  0  0  0.01953  0  3.92712  0  0  0.02565  0  3.933602  0  0  -0.085366  0.015445  0  3.922291  0
C  C42  1  0.00518428  0.31715019  0.88949249  1  0  0.074054  0  3.659812  0  0  0.019479  0  3.927091  0  0  0.025607  0  3.933569  0  0  -0.0854  0.015393  0  3.922258  0
C  C43  1  0.50518459  0.68284966  0.61050766  1  0  0.074027  0  3.659851  0  0  0.019503  0  3.927041  0  0  0.025633  0  3.933523  0  0  -0.085373  0.015418  0  3.922213  0
C  C44  1  0.75495337  0.60848462  0.24652568  1  0  0.082976  0  3.655556  0  0  0.029098  0  3.920012  0  0  0.035672  0  3.926936  0  0  -0.079403  0.024577  0  3.915797  0
C  C45  1  0.25495321  0.39151602  0.25347391  1  0  0.083123  0  3.655538  0  0  0.029228  0  3.919972  0  0  0.035802  0  3.926896  0  0  -0.079381  0.024707  0  3.915751  0
C  C46  1  0.24504651  0.39151690  0.75347492  1  0  0.082963  0  3.655563  0  0  0.029055  0  3.920039  0  0  0.035625  0  3.926971  0  0  -0.079425  0.024533  0  3.915824  0
C  C47  1  0.74504350  0.60848550  0.74652581  1  0  0.083059  0  3.655518  0  0  0.029137  0  3.919998  0  0  0.035707  0  3.92693  0  0  -0.079395  0.024616  0  3.915778  0
C  C48  1  0.58399163  0.72019137  0.24189437  1  0  -0.173441  0  3.587708  0  0  -0.21309  0  3.851268  0  0  -0.2149  0  3.860791  0  0  -0.154684  -0.211608  0  3.844857  0
C  C49  1  0.08399272  0.27980791  0.25810579  1  0  -0.173472  0  3.587739  0  0  -0.213111  0  3.851284  0  0  -0.214922  0  3.860803  0  0  -0.15469  -0.211628  0  3.844866  0
C  C50  1  0.41600824  0.27980905  0.75810689  1  0  -0.173455  0  3.587685  0  0  -0.213106  0  3.851274  0  0  -0.214916  0  3.860798  0  0  -0.154685  -0.211618  0  3.844863  0
C  C51  1  0.91600715  0.72019142  0.74189347  1  0  -0.173534  0  3.587781  0  0  -0.213198  0  3.8514  0  0  -0.21501  0  3.860924  0  0  -0.154711  -0.211714  0  3.844991  0
S  S52  1  0.69835692  0.88938770  0.21994402  1  0  0.062374  0  3.157028  0  0  0.08278  0  3.676816  0  0  0.092553  0  3.645132  0  0  -0.065905  0.073929  0  3.699604  0
S  S53  1  0.19835751  0.11061285  0.28005642  1  0  0.06243  0  3.157071  0  0  0.0828  0  3.676836  0  0  0.092571  0  3.645155  0  0  -0.065885  0.073956  0  3.699612  0
S  S54  1  0.30164296  0.11061163  0.78005612  1  0  0.062376  0  3.157003  0  0  0.082775  0  3.67679  0  0  0.092564  0  3.64508  0  0  -0.065905  0.073917  0  3.699619  0
S  S55  1  0.80164396  0.88938758  0.71994395  1  0  0.062421  0  3.157031  0  0  0.082812  0  3.676808  0  0  0.092597  0  3.645107  0  0  -0.065895  0.073966  0  3.699615  0
Cl  Cl56  1  0.34511071  0.84476342  0.95665130  1  0  -0.515419  0  1.259526  0  0  -0.444758  0  1.598029  0  0  -0.458707  0  1.569167  0  0  -0.296172  -0.434296  0  1.61764  0
Cl  Cl57  1  0.84511255  0.15523366  0.54334834  1  0  -0.515436  0  1.259565  0  0  -0.444762  0  1.598056  0  0  -0.458696  0  1.569175  0  0  -0.296159  -0.434291  0  1.617686  0
Cl  Cl58  1  0.65488758  0.15523372  0.04334838  1  0  -0.515453  0  1.259585  0  0  -0.444776  0  1.598062  0  0  -0.458725  0  1.569202  0  0  -0.296173  -0.434315  0  1.617671  0
Cl  Cl59  1  0.15488891  0.84476239  0.45665201  1  0  -0.515395  0  1.259516  0  0  -0.444747  0  1.598037  0  0  -0.458683  0  1.569156  0  0  -0.296166  -0.434277  0  1.61767  0
O  O60  1  0.87353370  0.56541506  0.13559249  1  0  -0.303377  0  2.211654  0  0  -0.235317  0  2.454915  0  0  -0.250346  0  2.455849  0  0  -0.235528  -0.225016  0  2.454582  0
O  O61  1  0.37353374  0.43458576  0.36440628  1  0  -0.30345  0  2.211654  0  0  -0.235372  0  2.454943  0  0  -0.250399  0  2.455874  0  0  -0.235527  -0.225066  0  2.454614  0
O  O62  1  0.12646459  0.43458427  0.86440766  1  0  -0.303425  0  2.211685  0  0  -0.235309  0  2.454952  0  0  -0.250339  0  2.455887  0  0  -0.235516  -0.225009  0  2.454619  0
O  O63  1  0.62646455  0.56541576  0.63559344  1  0  -0.303433  0  2.211711  0  0  -0.235335  0  2.454975  0  0  -0.250365  0  2.455911  0  0  -0.235541  -0.225029  0  2.454647  0
