# generated using pymatgen
data_AlH6(C6O5)2
_symmetry_space_group_name_H-M   'P 1'
_cell_length_a   6.66180252
_cell_length_b   11.18793705
_cell_length_c   11.04722486
_cell_angle_alpha   80.53143428
_cell_angle_beta   72.66530486
_cell_angle_gamma   70.94604426
_symmetry_Int_Tables_number   1
_chemical_formula_structural   AlH6(C6O5)2
_chemical_formula_sum   'Al2 H12 C24 O20'
_cell_volume   740.84502430
_cell_formula_units_Z   2
loop_
 _symmetry_equiv_pos_site_id
 _symmetry_equiv_pos_as_xyz
  1  'x, y, z'
loop_
 _atom_site_type_symbol
 _atom_site_label
 _atom_site_symmetry_multiplicity
 _atom_site_fract_x
 _atom_site_fract_y
 _atom_site_fract_z
 _atom_site_occupancy
 _atom_site_pbe_bader_charge
 _atom_site_pbe_bader_spin_density
 _atom_site_pbe_cm5_charge
 _atom_site_pbe_ddec_charge
 _atom_site_pbe_ddec_spin_density
 _atom_site_pbe_ddec_sum_bond_order
 _atom_site_pbe_magmom
Al  Al0  1  0.49274859  0.51117033  0.50826867  1  2.502558  0  0.392242  1.623786  0  2.593079  0
Al  Al1  1  0.99694903  0.51097501  0.50666086  1  2.499905  0  0.391046  1.63012  0  2.591085  0
H  H2  1  0.28511960  0.35805376  0.58925810  1  0.631611  0  0.33311  0.422346  0  0.894467  0
H  H3  1  0.66916758  0.66906527  0.48947225  1  0.623366  0  0.341517  0.408644  0  0.896978  0
H  H4  1  0.72689103  0.55550401  0.12439378  1  0.146049  0  0.110051  0.132118  0  1.031906  0
H  H5  1  0.27180317  0.46163853  0.88907346  1  0.145609  0  0.114808  0.141052  0  1.0088  0
H  H6  1  0.24761005  0.23798700  0.30894574  1  0.065248  0  0.1134  0.120335  0  1.018412  0
H  H7  1  0.43012291  0.76817658  0.33707827  1  0.05988  0  0.114454  0.108851  0  1.056878  0
H  H8  1  0.92895802  0.53909158  0.79240401  1  0.627609  0  0.315456  0.355466  0  0.963792  0
H  H9  1  0.07547698  0.46922043  0.22146321  1  0.650187  0  0.314463  0.351885  0  0.967955  0
H  H10  1  0.81635042  0.85265168  0.80977985  1  0.647386  0  0.343504  0.39226  0  0.855044  0
H  H11  1  0.72582539  0.15976966  0.77976869  1  0.639666  0  0.352129  0.392428  0  0.83958  0
H  H12  1  0.42519957  0.19573706  0.04401438  1  0.627107  0  0.346347  0.388134  0  0.850123  0
H  H13  1  0.77758307  0.71227497  0.27267987  1  0.630751  0  0.326931  0.36828  0  0.909324  0
C  C14  1  0.87161982  0.28694287  0.48494116  1  1.637435  0  0.27543  0.643138  0  4.101182  0
C  C15  1  0.64127647  0.50026046  0.73672523  1  1.496387  0  0.266852  0.654819  0  4.076565  0
C  C16  1  0.12239783  0.73687393  0.52318950  1  1.541678  0  0.275706  0.652681  0  4.093007  0
C  C17  1  0.35005077  0.52222089  0.27685090  1  1.511567  0  0.267319  0.655494  0  4.059617  0
C  C18  1  0.57173526  0.50412077  0.87530952  1  0.032892  0  -0.025005  -0.159062  0  3.991277  0
C  C19  1  0.42516375  0.51385772  0.13883334  1  -0.006507  0  -0.027607  -0.166974  0  4.004192  0
C  C20  1  0.70463162  0.52945454  0.94207831  1  0.546422  0  0.089521  0.301607  0  4.043229  0
C  C21  1  0.29730498  0.48325319  0.07224528  1  0.492819  0  0.08307  0.289489  0  4.065193  0
C  C22  1  0.62677245  0.53536920  0.07324260  1  0.048066  0  -0.089969  -0.174233  0  3.91882  0
C  C23  1  0.37145227  0.48141881  0.94086284  1  0.001564  0  -0.090844  -0.177823  0  3.939492  0
C  C24  1  0.94002327  0.14489299  0.48968234  1  -0.055671  0  0.011148  -0.073561  0  3.87057  0
C  C25  1  0.14325145  0.07556832  0.40979673  1  0.068697  0  0.020179  0.091613  0  3.914046  0
C  C26  1  0.79707475  0.08207382  0.57255179  1  0.022979  0  0.000525  -0.090318  0  3.967385  0
C  C27  1  0.28699012  0.13512276  0.31634159  1  0.015047  0  -0.068093  -0.123353  0  3.883053  0
C  C28  1  0.47584163  0.06502908  0.23583906  1  0.006572  0  -0.0003  -0.049461  0  3.967468  0
C  C29  1  0.05599088  0.87845113  0.51073348  1  0.085963  0  0.007681  -0.074974  0  3.898057  0
C  C30  1  0.85437702  0.94749670  0.58310502  1  -0.017087  0  -0.002362  -0.090511  0  3.975963  0
C  C31  1  0.20047777  0.94011952  0.42038922  1  0.014161  0  0.016186  0.088292  0  3.924347  0
C  C32  1  0.39389066  0.87060476  0.33494107  1  0.010634  0  -0.073447  -0.134862  0  3.920935  0
C  C33  1  0.52989236  0.93012180  0.24441508  1  0.012565  0  -0.005967  -0.06244  0  3.988323  0
C  C34  1  0.68782028  0.88175032  0.66419247  1  1.554818  0  0.232782  0.576184  0  4.13509  0
C  C35  1  0.57739689  0.15438027  0.65381032  1  1.52945  0  0.244861  0.583309  0  4.107403  0
C  C36  1  0.63496713  0.12920915  0.14516707  1  1.549167  0  0.234224  0.583256  0  4.136215  0
C  C37  1  0.71980071  0.85623073  0.14633528  1  1.541369  0  0.237723  0.583614  0  4.103073  0
O  O38  1  0.67956210  0.34439220  0.47206242  1  -1.255175  0  -0.221003  -0.567944  0  2.351931  0
O  O39  1  0.83442986  0.51270805  0.67956655  1  -1.269498  0  -0.239417  -0.617204  0  2.422682  0
O  O40  1  0.98845707  0.68418703  0.51012479  1  -1.25265  0  -0.22621  -0.582204  0  2.369079  0
O  O41  1  0.47189472  0.54352326  0.33539939  1  -1.273747  0  -0.236744  -0.590115  0  2.361072  0
O  O42  1  0.30968117  0.68026390  0.54282665  1  -1.254338  0  -0.225562  -0.57342  0  2.375701  0
O  O43  1  0.15651967  0.50943596  0.33286079  1  -1.269293  0  -0.238691  -0.612736  0  2.418114  0
O  O44  1  0.00586333  0.33947641  0.49745089  1  -1.251823  0  -0.221095  -0.570877  0  2.367904  0
O  O45  1  0.51439395  0.48358068  0.67929268  1  -1.269576  0  -0.234464  -0.591506  0  2.381948  0
O  O46  1  0.25292511  0.44804678  0.55924134  1  -1.437492  0  -0.454266  -0.996537  0  2.185508  0
O  O47  1  0.72998662  0.58494226  0.45663034  1  -1.424712  0  -0.450246  -0.973723  0  2.136887  0
O  O48  1  0.90209105  0.54907227  0.88425713  1  -1.127322  0  -0.343703  -0.43018  0  2.3102  0
O  O49  1  0.10978581  0.45130398  0.13114552  1  -1.164266  0  -0.352816  -0.444427  0  2.306388  0
O  O50  1  0.70021901  0.83604740  0.78353493  1  -1.114613  0  -0.313986  -0.4581  0  2.253664  0
O  O51  1  0.54485807  0.87045589  0.62325170  1  -1.097357  0  -0.263035  -0.429596  0  2.083588  0
O  O52  1  0.57827596  0.18790445  0.76607866  1  -1.105509  0  -0.312925  -0.454448  0  2.242938  0
O  O53  1  0.40456281  0.18010147  0.62487277  1  -1.103955  0  -0.249072  -0.425811  0  2.125807  0
O  O54  1  0.56961884  0.20013444  0.04398416  1  -1.107576  0  -0.324272  -0.478062  0  2.285605  0
O  O55  1  0.81067144  0.12179740  0.16246786  1  -1.103391  0  -0.281972  -0.44684  0  2.039035  0
O  O56  1  0.83187484  0.73790428  0.18226364  1  -1.129572  0  -0.318394  -0.449285  0  2.272719  0
O  O57  1  0.77120431  0.89938347  0.03618543  1  -1.126057  0  -0.281199  -0.468613  0  2.07771  0
