# generated using pymatgen
data_Hf3H8(CO2)8
_symmetry_space_group_name_H-M   'P 1'
_cell_length_a   11.64216592
_cell_length_b   13.43302931
_cell_length_c   19.18657325
_cell_angle_alpha   89.34991625
_cell_angle_beta   89.99501310
_cell_angle_gamma   89.98603235
_symmetry_Int_Tables_number   1
_chemical_formula_structural   Hf3H8(CO2)8
_chemical_formula_sum   'Hf12 H32 C32 O64'
_cell_volume   3000.38643706
_cell_formula_units_Z   4
loop_
 _symmetry_equiv_pos_site_id
 _symmetry_equiv_pos_as_xyz
  1  'x, y, z'
loop_
 _atom_site_type_symbol
 _atom_site_label
 _atom_site_symmetry_multiplicity
 _atom_site_fract_x
 _atom_site_fract_y
 _atom_site_fract_z
 _atom_site_occupancy
 _atom_site_pbe_bader_charge
 _atom_site_pbe_bader_spin_density
 _atom_site_pbe_cm5_charge
 _atom_site_pbe_ddec_charge
 _atom_site_pbe_ddec_spin_density
 _atom_site_pbe_ddec_sum_bond_order
 _atom_site_pbe_magmom
Hf  Hf0  1  0.14041841  0.13411676  0.99135865  1  2.604305  0  1.445911  2.130778  0  3.359305  0
Hf  Hf1  1  0.84023909  0.12390666  0.99663558  1  2.614814  0  1.448888  2.153628  0  3.323598  0
Hf  Hf2  1  0.16333122  0.87369871  0.99310379  1  2.582299  0  1.434274  2.11721  0  3.457014  0
Hf  Hf3  1  0.85852413  0.86461491  0.00221033  1  2.582456  0  1.460075  2.139607  0  3.452017  0
Hf  Hf4  1  0.00844363  0.99776064  0.12472762  1  2.619774  0  1.493976  2.113193  0  3.388146  0
Hf  Hf5  1  0.99353605  0.99353698  0.86559346  1  2.631068  0  1.495288  2.125448  0  3.362532  0
Hf  Hf6  1  0.64052859  0.35581380  0.49873143  1  2.604961  0  1.445536  2.129917  0  3.359672  0
Hf  Hf7  1  0.34032342  0.36598657  0.49356503  1  2.616483  0  1.448487  2.153173  0  3.323593  0
Hf  Hf8  1  0.66317661  0.61615558  0.49648059  1  2.606687  0  1.434081  2.117349  0  3.457075  0
Hf  Hf9  1  0.35847951  0.62526152  0.48732623  1  2.583331  0  1.45975  2.139221  0  3.451711  0
Hf  Hf10  1  0.50843010  0.49157096  0.36507145  1  2.623807  0  1.494128  2.114281  0  3.386144  0
Hf  Hf11  1  0.49363397  0.49672371  0.62430302  1  2.628672  0  1.495094  2.124782  0  3.362231  0
H  H12  1  0.99429322  0.20691566  0.89299142  1  0.627772  0  0.33756  0.417601  0  0.854359  0
H  H13  1  0.76355143  0.99263406  0.10301668  1  0.616386  0  0.339383  0.421896  0  0.85438  0
H  H14  1  0.98479407  0.78304874  0.90138791  1  0.610887  0  0.336326  0.434894  0  0.839115  0
H  H15  1  0.25809458  0.00315254  0.08441432  1  0.618571  0  0.338  0.433563  0  0.837638  0
H  H16  1  0.62522523  0.11791578  0.04270178  1  0.577714  0  0.298903  0.387258  0  0.916664  0
H  H17  1  0.65826026  0.97499424  0.98853969  1  0.657648  0  0.295539  0.403491  0  0.924966  0
H  H18  1  0.76027952  0.68991474  0.96982090  1  0.590536  0  0.312864  0.417993  0  0.866638  0
H  H19  1  0.20961856  0.67946714  0.95673110  1  0.647444  0  0.347682  0.429185  0  0.845078  0
H  H20  1  0.38977672  0.87380655  0.96715378  1  0.609063  0  0.303385  0.41407  0  0.87736  0
H  H21  1  0.35691909  0.20288094  0.03085774  1  0.633242  0  0.349779  0.432407  0  0.843043  0
H  H22  1  0.13197411  0.32587305  0.02441776  1  0.590524  0  0.304347  0.395457  0  0.903812  0
H  H23  1  0.97296703  0.29552856  0.99358311  1  0.629942  0  0.287663  0.405314  0  0.935588  0
H  H24  1  0.19870133  0.68522321  0.03945740  1  0.649408  0  0.340493  0.425735  0  0.864471  0
H  H25  1  0.36205436  0.18146024  0.94899341  1  0.673332  0  0.353696  0.44403  0  0.828433  0
H  H26  1  0.84653691  0.32599593  0.95958448  1  0.622928  0  0.339564  0.419275  0  0.852833  0
H  H27  1  0.66947430  0.89574571  0.92835835  1  0.638582  0  0.307272  0.406834  0  0.919263  0
H  H28  1  0.49441977  0.28334507  0.59730449  1  0.616472  0  0.337877  0.417708  0  0.855708  0
H  H29  1  0.26348508  0.49677087  0.38690011  1  0.608396  0  0.339471  0.422174  0  0.854137  0
H  H30  1  0.48482168  0.70716330  0.58799376  1  0.610354  0  0.336224  0.434888  0  0.839536  0
H  H31  1  0.75803698  0.48656845  0.40538711  1  0.619957  0  0.338358  0.433723  0  0.837756  0
H  H32  1  0.12522636  0.37182155  0.44763789  1  0.586357  0  0.299136  0.387524  0  0.916472  0
H  H33  1  0.15829750  0.51496891  0.50138566  1  0.658319  0  0.295702  0.403781  0  0.924565  0
H  H34  1  0.26009684  0.80009454  0.51948407  1  0.622165  0  0.312963  0.417895  0  0.866607  0
H  H35  1  0.70928617  0.81039852  0.53254673  1  0.651595  0  0.347839  0.429703  0  0.845044  0
H  H36  1  0.88964248  0.61629733  0.52244057  1  0.609893  0  0.303435  0.41413  0  0.877271  0
H  H37  1  0.85687323  0.28701941  0.45934618  1  0.64321  0  0.349476  0.431286  0  0.844551  0
H  H38  1  0.63211752  0.16403297  0.46589807  1  0.596047  0  0.304041  0.394981  0  0.904619  0
H  H39  1  0.47332093  0.19444127  0.49688691  1  0.629667  0  0.28783  0.405798  0  0.935017  0
H  H40  1  0.69839452  0.80451010  0.44982314  1  0.661245  0  0.34042  0.425697  0  0.864334  0
H  H41  1  0.86179648  0.30847519  0.54121691  1  0.672386  0  0.353238  0.443555  0  0.829383  0
H  H42  1  0.34684622  0.16392823  0.53087748  1  0.611728  0  0.340111  0.419812  0  0.851782  0
H  H43  1  0.16960416  0.59431150  0.56146674  1  0.637922  0  0.307382  0.406959  0  0.91882  0
C  C44  1  0.18098145  0.17658061  0.15971241  1  1.673101  0  0.250938  0.704123  0  4.167645  0
C  C45  1  0.80409277  0.15914962  0.82942095  1  1.679609  0  0.2525  0.699414  0  4.159234  0
C  C46  1  0.82265203  0.16042160  0.16700052  1  1.675347  0  0.248736  0.692053  0  4.169684  0
C  C47  1  0.18058053  0.15739757  0.82171413  1  1.657088  0  0.253397  0.703961  0  4.152476  0
C  C48  1  0.18662426  0.83229720  0.82785989  1  1.687385  0  0.250847  0.707905  0  4.165772  0
C  C49  1  0.83575522  0.81970992  0.16497072  1  1.671171  0  0.254255  0.699317  0  4.160275  0
C  C50  1  0.78057217  0.86494543  0.80654768  1  1.726  0  0.240144  0.678689  0  4.242025  0
C  C51  1  0.18648268  0.82952342  0.16504578  1  1.678314  0  0.253063  0.697692  0  4.171558  0
C  C52  1  0.68120462  0.31273583  0.33045875  1  1.670001  0  0.250453  0.702039  0  4.170205  0
C  C53  1  0.30419606  0.33144873  0.66103536  1  1.686525  0  0.251653  0.69805  0  4.161228  0
C  C54  1  0.32271941  0.32856457  0.32325796  1  1.690215  0  0.248745  0.691669  0  4.170999  0
C  C55  1  0.68084110  0.33288256  0.66845506  1  1.66279  0  0.253375  0.704152  0  4.151543  0
C  C56  1  0.68636788  0.65823649  0.66173268  1  1.641539  0  0.250855  0.709671  0  4.164027  0
C  C57  1  0.33573134  0.66925560  0.32425607  1  1.665502  0  0.254442  0.700289  0  4.158218  0
C  C58  1  0.28074838  0.62538746  0.68313651  1  1.731071  0  0.241225  0.680364  0  4.240662  0
C  C59  1  0.68635662  0.65975109  0.32427907  1  1.665822  0  0.252659  0.697579  0  4.16787  0
C  C60  1  0.75563295  0.78915512  0.75518862  1  -0.051328  0  -0.012255  -0.095105  0  3.910673  0
C  C61  1  0.72783443  0.72576036  0.71366052  1  -0.148523  0  -0.032447  -0.150559  0  3.944047  0
C  C62  1  0.25577840  0.70157426  0.73419344  1  -0.088866  0  -0.013149  -0.096466  0  3.908657  0
C  C63  1  0.22816540  0.76502759  0.77575433  1  -0.158029  0  -0.032342  -0.149611  0  3.941403  0
C  C64  1  0.72758233  0.27344403  0.72511952  1  0.003139  0  -0.021895  -0.125747  0  3.922393  0
C  C65  1  0.75841086  0.22100606  0.77360053  1  -0.209603  0  -0.017638  -0.114038  0  3.91634  0
C  C66  1  0.78307380  0.76212015  0.22034350  1  -0.26821  0  -0.017426  -0.118668  0  3.928742  0
C  C67  1  0.73843881  0.71621239  0.26795515  1  0.085115  0  -0.015824  -0.114186  0  3.922323  0
C  C68  1  0.23269201  0.23263116  0.21552067  1  -0.131809  0  -0.026853  -0.135635  0  3.93706  0
C  C69  1  0.27231741  0.27452063  0.26585880  1  -0.084624  0  -0.018659  -0.110717  0  3.925114  0
C  C70  1  0.23855559  0.77278210  0.22121659  1  0.120861  0  -0.015283  -0.114329  0  3.923074  0
C  C71  1  0.28318671  0.72659837  0.26869766  1  -0.303721  0  -0.018004  -0.11857  0  3.928156  0
C  C72  1  0.25844134  0.26977749  0.71692463  1  -0.210328  0  -0.017705  -0.114357  0  3.9157  0
C  C73  1  0.22739915  0.21704540  0.76519288  1  0.028937  0  -0.021968  -0.125367  0  3.920668  0
C  C74  1  0.73284947  0.25641491  0.27477044  1  -0.17973  0  -0.026871  -0.135213  0  3.93759  0
C  C75  1  0.77227558  0.21422883  0.22450354  1  -0.018514  0  -0.018675  -0.110572  0  3.925035  0
O  O76  1  0.20471167  0.20209256  0.09695867  1  -1.170672  0  -0.324432  -0.614482  0  2.260395  0
O  O77  1  0.11639227  0.10558591  0.17933637  1  -1.142822  0  -0.322272  -0.546264  0  2.291305  0
O  O78  1  0.77730286  0.18224945  0.89154555  1  -1.142697  0  -0.321303  -0.577981  0  2.247672  0
O  O79  1  0.87048318  0.08935547  0.81018990  1  -1.150863  0  -0.32609  -0.560454  0  2.28694  0
O  O80  1  0.79074878  0.18375473  0.10573567  1  -1.15692  0  -0.311387  -0.568564  0  2.244501  0
O  O81  1  0.89416129  0.09274596  0.18508651  1  -1.146832  0  -0.335725  -0.56565  0  2.279618  0
O  O82  1  0.21764802  0.17421638  0.88308000  1  -1.170658  0  -0.322042  -0.594904  0  2.243842  0
O  O83  1  0.10287622  0.09584849  0.80447409  1  -1.141978  0  -0.321867  -0.549351  0  2.26927  0
O  O84  1  0.09773355  0.28690144  0.98743752  1  -1.231179  0  -0.643022  -0.903661  0  1.949106  0
O  O85  1  0.33517802  0.15662274  0.99429229  1  -1.235134  0  -0.559665  -0.750924  0  2.079204  0
O  O86  1  0.88190187  0.28689783  0.99678226  1  -1.2352  0  -0.589818  -0.784831  0  2.052472  0
O  O87  1  0.66627974  0.09971026  0.00072404  1  -1.212179  0  -0.655665  -0.903924  0  1.903966  0
O  O88  1  0.99715497  0.10779840  0.04981275  1  -1.216964  0  -0.757458  -1.066136  0  2.185297  0
O  O89  1  0.99406215  0.14624632  0.92091580  1  -1.258151  0  -0.653698  -0.971495  0  2.361785  0
O  O90  1  0.22042262  0.81459210  0.89036464  1  -1.174182  0  -0.33845  -0.61258  0  2.29823  0
O  O91  1  0.11808075  0.90081795  0.80864134  1  -1.155979  0  -0.32475  -0.555109  0  2.268689  0
O  O92  1  0.80900274  0.79647211  0.10268492  1  -1.161214  0  -0.33009  -0.576499  0  2.229058  0
O  O93  1  0.90273013  0.88916235  0.18402072  1  -1.143479  0  -0.322353  -0.556901  0  2.267634  0
O  O94  1  0.69875652  0.89674195  0.84193825  1  -1.140824  0  -0.291716  -0.52768  0  2.095734  0
O  O95  1  0.88731200  0.89118995  0.80945536  1  -1.176878  0  -0.361665  -0.613784  0  2.304639  0
O  O96  1  0.20336375  0.79968468  0.10348330  1  -1.15935  0  -0.302592  -0.565096  0  2.269944  0
O  O97  1  0.12931741  0.90608039  0.18328925  1  -1.14685  0  -0.335916  -0.563857  0  2.272294  0
O  O98  1  0.16070821  0.70104295  0.99505776  1  -1.22306  0  -0.562335  -0.745346  0  2.053981  0
O  O99  1  0.33255284  0.88688522  0.00253891  1  -1.226241  0  -0.69502  -0.941566  0  1.861811  0
O  O100  1  0.82356609  0.73446025  0.95957702  1  -1.219279  0  -0.689976  -0.939559  0  1.828404  0
O  O101  1  0.67265242  0.90155893  0.98040517  1  -1.278815  0  -0.59865  -0.790171  0  2.027137  0
O  O102  1  0.00047789  0.84337707  0.92745606  1  -1.244491  0  -0.640515  -0.952935  0  2.232168  0
O  O103  1  0.01140868  0.88725338  0.05341364  1  -1.226827  0  -0.758813  -1.08455  0  2.195388  0
O  O104  1  0.12480128  0.00036204  0.93806943  1  -1.217521  0  -0.757315  -1.074502  0  2.200205  0
O  O105  1  0.82927700  0.99253046  0.07202828  1  -1.262469  0  -0.65494  -0.997278  0  2.362514  0
O  O106  1  0.18269153  0.00666804  0.06270199  1  -1.256179  0  -0.642862  -0.963238  0  2.267708  0
O  O107  1  0.87286483  0.99527643  0.94356683  1  -1.219377  0  -0.758987  -1.068376  0  2.206763  0
O  O108  1  0.70498094  0.28753696  0.39327722  1  -1.173326  0  -0.323836  -0.613482  0  2.261479  0
O  O109  1  0.61656101  0.38362775  0.31069340  1  -1.144433  0  -0.322563  -0.54577  0  2.291864  0
O  O110  1  0.27740751  0.30816027  0.59894228  1  -1.154141  0  -0.320204  -0.577177  0  2.24656  0
O  O111  1  0.37066324  0.40126522  0.68009920  1  -1.155268  0  -0.326228  -0.560162  0  2.285978  0
O  O112  1  0.29066622  0.30567659  0.38458473  1  -1.157303  0  -0.311629  -0.568362  0  2.244504  0
O  O113  1  0.39435367  0.39602930  0.30505565  1  -1.150574  0  -0.335631  -0.565719  0  2.279405  0
O  O114  1  0.71797378  0.31583946  0.60711420  1  -1.165682  0  -0.322026  -0.595152  0  2.241549  0
O  O115  1  0.60308205  0.39450664  0.68553785  1  -1.135287  0  -0.321825  -0.549718  0  2.269491  0
O  O116  1  0.59801624  0.20303844  0.50292161  1  -1.237413  0  -0.642603  -0.903178  0  1.950384  0
O  O117  1  0.83520681  0.33338388  0.49587088  1  -1.244208  0  -0.559362  -0.749242  0  2.081199  0
O  O118  1  0.38222668  0.20306121  0.49371115  1  -1.223224  0  -0.590421  -0.785825  0  2.052165  0
O  O119  1  0.16637300  0.39027091  0.48951931  1  -1.220532  0  -0.655839  -0.904133  0  1.904418  0
O  O120  1  0.49723210  0.38190505  0.44029095  1  -1.216713  0  -0.757387  -1.065746  0  2.183951  0
O  O121  1  0.49419648  0.34391244  0.56927253  1  -1.25026  0  -0.653811  -0.971241  0  2.363264  0
O  O122  1  0.72011801  0.67570184  0.59917779  1  -1.17383  0  -0.338546  -0.613476  0  2.298541  0
O  O123  1  0.61793515  0.58974710  0.68110935  1  -1.155728  0  -0.32452  -0.555391  0  2.266844  0
O  O124  1  0.30913626  0.69294951  0.38648961  1  -1.156574  0  -0.329474  -0.576778  0  2.225907  0
O  O125  1  0.40252543  0.59951647  0.30541287  1  -1.152217  0  -0.322698  -0.557565  0  2.267524  0
O  O126  1  0.19894770  0.59302952  0.64801571  1  -1.142857  0  -0.292264  -0.528611  0  2.095611  0
O  O127  1  0.38758214  0.59939198  0.68023341  1  -1.177402  0  -0.361947  -0.613556  0  2.30484  0
O  O128  1  0.70337728  0.68976625  0.38577869  1  -1.156197  0  -0.301666  -0.564642  0  2.267009  0
O  O129  1  0.62902516  0.58318551  0.30623679  1  -1.146998  0  -0.336271  -0.564679  0  2.26939  0
O  O130  1  0.66039686  0.78875120  0.49423598  1  -1.264793  0  -0.562471  -0.746001  0  2.054428  0
O  O131  1  0.83239343  0.60314499  0.48709990  1  -1.226458  0  -0.695074  -0.941459  0  1.861913  0
O  O132  1  0.32335202  0.75552084  0.52979649  1  -1.251592  0  -0.690124  -0.939422  0  1.828394  0
O  O133  1  0.17267661  0.58842592  0.50942854  1  -1.278496  0  -0.598619  -0.789954  0  2.027115  0
O  O134  1  0.50042036  0.64672952  0.56201954  1  -1.243286  0  -0.640221  -0.95271  0  2.232729  0
O  O135  1  0.51134962  0.60243325  0.43611969  1  -1.228935  0  -0.758493  -1.084102  0  2.19477  0
O  O136  1  0.62493156  0.48969582  0.55182353  1  -1.215502  0  -0.757553  -1.073994  0  2.199389  0
O  O137  1  0.32924274  0.49703679  0.41785368  1  -1.256319  0  -0.655062  -0.997987  0  2.362943  0
O  O138  1  0.68264937  0.48299531  0.42711397  1  -1.258415  0  -0.643119  -0.963824  0  2.268565  0
O  O139  1  0.37298501  0.49483784  0.54631091  1  -1.215371  0  -0.758859  -1.068323  0  2.206356  0
