# generated using pymatgen
data_ZnH7C10(NO2)2
_symmetry_space_group_name_H-M   'P 1'
_cell_length_a   8.98061933
_cell_length_b   10.36339508
_cell_length_c   16.72278109
_cell_angle_alpha   74.55295109
_cell_angle_beta   77.08391709
_cell_angle_gamma   68.17491066
_symmetry_Int_Tables_number   1
_chemical_formula_structural   ZnH7C10(NO2)2
_chemical_formula_sum   'Zn4 H28 C40 N8 O16'
_cell_volume   1379.08917902
_cell_formula_units_Z   4
loop_
 _symmetry_equiv_pos_site_id
 _symmetry_equiv_pos_as_xyz
  1  'x, y, z'
loop_
 _atom_site_type_symbol
 _atom_site_label
 _atom_site_symmetry_multiplicity
 _atom_site_fract_x
 _atom_site_fract_y
 _atom_site_fract_z
 _atom_site_occupancy
 _atom_site_hle17_bader_spin_density
 _atom_site_hle17_ddec_charge
 _atom_site_hle17_ddec_spin_density
 _atom_site_hle17_ddec_sum_bond_order
 _atom_site_hle17_magmom
 _atom_site_hse06_10hf_bader_spin_density
 _atom_site_hse06_10hf_ddec_charge
 _atom_site_hse06_10hf_ddec_spin_density
 _atom_site_hse06_10hf_ddec_sum_bond_order
 _atom_site_hse06_10hf_magmom
 _atom_site_hse06_bader_spin_density
 _atom_site_hse06_ddec_charge
 _atom_site_hse06_ddec_spin_density
 _atom_site_hse06_ddec_sum_bond_order
 _atom_site_hse06_magmom
 _atom_site_pbe_bader_spin_density
 _atom_site_pbe_cm5_charge
 _atom_site_pbe_ddec_charge
 _atom_site_pbe_ddec_spin_density
 _atom_site_pbe_ddec_sum_bond_order
 _atom_site_pbe_magmom
Zn  Zn0  1  0.29786972  0.37693270  0.27402457  1  0  1.026874  0  1.899733  0  0  0.85566  0  2.376074  0  0  0.908399  0  2.309383  0  0  0.666932  0.818941  0  2.422023  0
Zn  Zn1  1  0.70213025  0.62306676  0.72597642  1  0  1.026851  0  1.899787  0  0  0.855628  0  2.376132  0  0  0.908368  0  2.309441  0  0  0.66691  0.818906  0  2.422083  0
Zn  Zn2  1  0.47147008  0.11283904  0.22123262  1  0  1.026335  0  1.90725  0  0  0.855245  0  2.385207  0  0  0.907644  0  2.318512  0  0  0.667096  0.819062  0  2.430472  0
Zn  Zn3  1  0.52852989  0.88716041  0.77876777  1  0  1.02638  0  1.907189  0  0  0.855299  0  2.385145  0  0  0.907694  0  2.318456  0  0  0.667115  0.819121  0  2.430411  0
H  H4  1  0.96605229  0.10736129  0.21620905  1  0  0.126099  0  0.927328  0  0  0.134202  0  0.984801  0  0  0.138918  0  0.982122  0  0  0.109576  0.130886  0  0.986779  0
H  H5  1  0.03394683  0.89264346  0.78378876  1  0  0.126123  0  0.927238  0  0  0.134204  0  0.984735  0  0  0.138909  0  0.982071  0  0  0.109583  0.130889  0  0.986712  0
H  H6  1  0.80034139  0.39243281  0.27469561  1  0  0.120256  0  0.934579  0  0  0.127611  0  0.994608  0  0  0.131814  0  0.991949  0  0  0.107417  0.124626  0  0.996556  0
H  H7  1  0.19965664  0.60756877  0.72530466  1  0  0.120281  0  0.93447  0  0  0.127637  0  0.994499  0  0  0.131839  0  0.991841  0  0  0.107427  0.124656  0  0.996443  0
H  H8  1  0.49038095  0.98480688  0.08018968  1  0  0.090164  0  0.929611  0  0  0.10078  0  0.98818  0  0  0.103184  0  0.986155  0  0  0.123914  0.098963  0  0.989786  0
H  H9  1  0.50961936  0.01519469  0.91981031  1  0  0.090173  0  0.929613  0  0  0.100781  0  0.988189  0  0  0.103187  0  0.986163  0  0  0.123896  0.098963  0  0.989798  0
H  H10  1  0.67843988  0.77640030  0.01654858  1  0  0.127202  0  0.957448  0  0  0.129773  0  1.028636  0  0  0.134102  0  1.026006  0  0  0.113114  0.126646  0  1.03065  0
H  H11  1  0.32155930  0.22360128  0.98345095  1  0  0.127214  0  0.957422  0  0  0.129802  0  1.028595  0  0  0.134132  0  1.025965  0  0  0.11312  0.126674  0  1.030611  0
H  H12  1  0.92587022  0.63208521  0.23439677  1  0  0.116315  0  0.958321  0  0  0.122909  0  1.023612  0  0  0.125949  0  1.023404  0  0  0.111231  0.120685  0  1.023991  0
H  H13  1  0.07412827  0.36791212  0.76560356  1  0  0.116307  0  0.95837  0  0  0.122906  0  1.023659  0  0  0.125944  0  1.023447  0  0  0.111224  0.120659  0  1.024062  0
H  H14  1  0.72657835  0.84724882  0.28868725  1  0  0.090802  0  0.926038  0  0  0.099973  0  0.986051  0  0  0.102624  0  0.983674  0  0  0.124134  0.097966  0  0.987846  0
H  H15  1  0.27342242  0.15274852  0.71131399  1  0  0.0908  0  0.926056  0  0  0.099971  0  0.986064  0  0  0.102622  0  0.983687  0  0  0.124142  0.097965  0  0.98786  0
H  H16  1  0.03542617  0.49677753  0.12344335  1  0  0.09687  0  0.940548  0  0  0.101783  0  1.010498  0  0  0.105391  0  1.007218  0  0  0.119966  0.099153  0  1.012863  0
H  H17  1  0.96457192  0.50322086  0.87655684  1  0  0.096877  0  0.940539  0  0  0.101786  0  1.010489  0  0  0.105396  0  1.007208  0  0  0.119967  0.099156  0  1.012853  0
H  H18  1  0.52038939  0.37890713  0.95701779  1  0  0.118787  0  0.935895  0  0  0.126711  0  0.995926  0  0  0.130934  0  0.993388  0  0  0.106115  0.123661  0  0.997936  0
H  H19  1  0.47960944  0.62109233  0.04298273  1  0  0.118812  0  0.935861  0  0  0.126734  0  0.995891  0  0  0.130958  0  0.993352  0  0  0.106123  0.123684  0  0.997902  0
H  H20  1  0.35722393  0.11254625  0.54029720  1  0  0.119309  0  0.93676  0  0  0.127405  0  0.996812  0  0  0.131845  0  0.993856  0  0  0.106367  0.124187  0  0.999166  0
H  H21  1  0.64277759  0.88745214  0.45970258  1  0  0.119292  0  0.936745  0  0  0.127389  0  0.996794  0  0  0.13183  0  0.99384  0  0  0.106367  0.12417  0  0.999148  0
H  H22  1  0.35274565  0.64779253  0.21727648  1  0  0.092493  0  0.923546  0  0  0.101332  0  0.983237  0  0  0.104115  0  0.980599  0  0  0.12469  0.099131  0  0.985406  0
H  H23  1  0.64725358  0.35220587  0.78272417  1  0  0.092481  0  0.923546  0  0  0.101326  0  0.98324  0  0  0.1041  0  0.980613  0  0  0.124687  0.099126  0  0.985409  0
H  H24  1  0.29111653  0.86741152  0.27450462  1  0  0.12742  0  0.96055  0  0  0.133285  0  1.025281  0  0  0.136963  0  1.024054  0  0  0.112477  0.130591  0  1.026397  0
H  H25  1  0.70888419  0.13258899  0.72549431  1  0  0.127397  0  0.960605  0  0  0.133289  0  1.025306  0  0  0.136968  0  1.02408  0  0  0.112481  0.130595  0  1.026424  0
H  H26  1  0.95985071  0.71569994  0.47358620  1  0  0.124571  0  0.952022  0  0  0.127376  0  1.023164  0  0  0.131737  0  1.020294  0  0  0.113606  0.124283  0  1.025226  0
H  H27  1  0.04015041  0.28429952  0.52641405  1  0  0.124574  0  0.952007  0  0  0.127379  0  1.02315  0  0  0.13174  0  1.02028  0  0  0.113608  0.124285  0  1.025212  0
H  H28  1  0.03394780  0.50344972  0.40727930  1  0  0.089391  0  0.922425  0  0  0.101615  0  0.97794  0  0  0.103849  0  0.976402  0  0  0.125237  0.099954  0  0.979154  0
H  H29  1  0.96605178  0.49655079  0.59272096  1  0  0.089399  0  0.922378  0  0  0.101606  0  0.977916  0  0  0.10384  0  0.976376  0  0  0.125237  0.099946  0  0.979128  0
H  H30  1  0.16647279  0.99863108  0.38592284  1  0  0.094642  0  0.932474  0  0  0.101595  0  0.999017  0  0  0.104612  0  0.996442  0  0  0.12159  0.099298  0  1.000937  0
H  H31  1  0.83353027  0.00136625  0.61407753  1  0  0.094656  0  0.932409  0  0  0.101624  0  0.998947  0  0  0.104641  0  0.996371  0  0  0.121584  0.099326  0  1.000871  0
C  C32  1  0.39595432  0.11975602  0.40443348  1  0  0.697272  0  3.89254  0  0  0.651673  0  4.182418  0  0  0.687783  0  4.173066  0  0  0.208657  0.627304  0  4.187923  0
C  C33  1  0.60404417  0.88024132  0.59556684  1  0  0.697221  0  3.892569  0  0  0.651611  0  4.182469  0  0  0.68772  0  4.173117  0  0  0.208632  0.627243  0  4.187974  0
C  C34  1  0.10986474  0.22146830  0.24030727  1  0  0.696649  0  3.885319  0  0  0.649741  0  4.174391  0  0  0.686063  0  4.165032  0  0  0.212591  0.625187  0  4.179833  0
C  C35  1  0.89013557  0.77853327  0.75969212  1  0  0.696665  0  3.885491  0  0  0.649751  0  4.174559  0  0  0.686074  0  4.165199  0  0  0.212551  0.625197  0  4.179999  0
C  C36  1  0.95636959  0.20331181  0.23518387  1  0  -0.163503  0  3.654647  0  0  -0.184418  0  3.910391  0  0  -0.191347  0  3.924904  0  0  -0.083923  -0.179915  0  3.900731  0
C  C37  1  0.04363032  0.79669082  0.76481420  1  0  -0.163526  0  3.654563  0  0  -0.18442  0  3.910315  0  0  -0.19134  0  3.924832  0  0  -0.083935  -0.179916  0  3.900655  0
C  C38  1  0.81083332  0.29743930  0.25436713  1  0  -0.142377  0  3.639468  0  0  -0.162042  0  3.890538  0  0  -0.166291  0  3.904027  0  0  -0.078684  -0.159286  0  3.881426  0
C  C39  1  0.18916659  0.70256335  0.74563333  1  0  -0.142402  0  3.639385  0  0  -0.162063  0  3.890446  0  0  -0.166311  0  3.903931  0  0  -0.078661  -0.159311  0  3.881332  0
C  C40  1  0.65683759  0.27703355  0.25185114  1  0  0.690067  0  3.897123  0  0  0.648167  0  4.176362  0  0  0.68349  0  4.168973  0  0  0.207149  0.624305  0  4.180438  0
C  C41  1  0.34316353  0.72296591  0.74814970  1  0  0.690142  0  3.897163  0  0  0.648238  0  4.176403  0  0  0.683563  0  4.16901  0  0  0.207133  0.624375  0  4.180481  0
C  C42  1  0.58839420  0.90294108  0.11181705  1  0  0.125914  0  3.69343  0  0  0.096047  0  3.939249  0  0  0.102341  0  3.95898  0  0  0.052525  0.091847  0  3.92603  0
C  C43  1  0.41160726  0.09706049  0.88818221  1  0  0.125832  0  3.69346  0  0  0.095976  0  3.939284  0  0  0.10227  0  3.959013  0  0  0.052518  0.091778  0  3.926064  0
C  C44  1  0.69254304  0.78857901  0.07696154  1  0  -0.14228  0  3.669476  0  0  -0.15914  0  3.9111  0  0  -0.167276  0  3.932669  0  0  -0.06919  -0.153851  0  3.896812  0
C  C45  1  0.30745768  0.21142151  0.92303798  1  0  -0.142257  0  3.669429  0  0  -0.159152  0  3.911028  0  0  -0.16729  0  3.932598  0  0  -0.069203  -0.153863  0  3.896741  0
C  C46  1  0.81930229  0.68943715  0.12040389  1  0  0.109793  0  3.771449  0  0  0.124369  0  3.999703  0  0  0.127999  0  4.022646  0  0  0.019282  0.121948  0  3.984037  0
C  C47  1  0.18069769  0.31056230  0.87959590  1  0  0.109756  0  3.771459  0  0  0.124384  0  3.999633  0  0  0.128015  0  4.022578  0  0  0.019285  0.121965  0  3.983962  0
C  C48  1  0.83060413  0.70833459  0.19866948  1  0  -0.152895  0  3.686575  0  0  -0.168723  0  3.927262  0  0  -0.177353  0  3.949617  0  0  -0.072001  -0.16293  0  3.911831  0
C  C49  1  0.16939544  0.29166593  0.80133077  1  0  -0.152881  0  3.686633  0  0  -0.168737  0  3.927292  0  0  -0.177362  0  3.949642  0  0  -0.071996  -0.162923  0  3.911873  0
C  C50  1  0.72111724  0.82623185  0.22904830  1  0  0.13704  0  3.687702  0  0  0.105727  0  3.935036  0  0  0.113266  0  3.953202  0  0  0.055861  0.101037  0  3.922374  0
C  C51  1  0.27888200  0.17376654  0.77095235  1  0  0.137121  0  3.687617  0  0  0.105818  0  3.934954  0  0  0.113357  0  3.953118  0  0  0.055923  0.101128  0  3.922289  0
C  C52  1  0.94070412  0.57122308  0.08586596  1  0  0.092683  0  3.617795  0  0  0.061804  0  3.874943  0  0  0.066443  0  3.887826  0  0  0.084265  0.058816  0  3.8661  0
C  C53  1  0.05929512  0.42877531  0.91413350  1  0  0.092724  0  3.617738  0  0  0.061844  0  3.87486  0  0  0.066479  0  3.887745  0  0  0.084316  0.058856  0  3.866015  0
C  C54  1  0.42343117  0.37040534  0.09097614  1  0  0.700755  0  3.8872  0  0  0.654087  0  4.178336  0  0  0.690535  0  4.168533  0  0  0.209721  0.629391  0  4.184105  0
C  C55  1  0.57656914  0.62959624  0.90902385  1  0  0.700656  0  3.887365  0  0  0.653981  0  4.178523  0  0  0.690429  0  4.16872  0  0  0.209683  0.629285  0  4.184289  0
C  C56  1  0.48659919  0.43823561  0.00694869  1  0  -0.152703  0  3.645123  0  0  -0.172894  0  3.897828  0  0  -0.178115  0  3.911229  0  0  -0.08287  -0.169541  0  3.888915  0
C  C57  1  0.51339770  0.56176596  0.99305052  1  0  -0.152669  0  3.645114  0  0  -0.172845  0  3.897812  0  0  -0.178064  0  3.91121  0  0  -0.082818  -0.169492  0  3.888897  0
C  C58  1  0.43497423  0.05726651  0.49114942  1  0  -0.151544  0  3.644439  0  0  -0.172263  0  3.896954  0  0  -0.177604  0  3.910546  0  0  -0.082714  -0.16887  0  3.888006  0
C  C59  1  0.56502730  0.94273188  0.50885037  1  0  -0.151466  0  3.644413  0  0  -0.172166  0  3.896919  0  0  -0.177512  0  3.910515  0  0  -0.082692  -0.168774  0  3.88797  0
C  C60  1  0.26619562  0.66837438  0.27344690  1  0  0.14412  0  3.680314  0  0  0.112217  0  3.928745  0  0  0.120132  0  3.946146  0  0  0.05733  0.107104  0  3.917012  0
C  C61  1  0.73380396  0.33162614  0.72655276  1  0  0.144139  0  3.680211  0  0  0.112216  0  3.928667  0  0  0.120138  0  3.946072  0  0  0.057329  0.107101  0  3.916935  0
C  C62  1  0.23332250  0.78796938  0.30575871  1  0  -0.14774  0  3.671721  0  0  -0.164184  0  3.910508  0  0  -0.172759  0  3.932098  0  0  -0.070384  -0.158698  0  3.89612  0
C  C63  1  0.76667708  0.21203113  0.69424035  1  0  -0.147705  0  3.671729  0  0  -0.164167  0  3.910504  0  0  -0.172746  0  3.932095  0  0  -0.070368  -0.158682  0  3.896119  0
C  C64  1  0.12418273  0.80558421  0.37977586  1  0  0.106557  0  3.776871  0  0  0.123689  0  4.002035  0  0  0.127074  0  4.025262  0  0  0.018199  0.121624  0  3.986234  0
C  C65  1  0.87581685  0.19441631  0.62022440  1  0  0.106567  0  3.77694  0  0  0.123715  0  4.002111  0  0  0.127099  0  4.025339  0  0  0.018205  0.121651  0  3.98631  0
C  C66  1  0.04692901  0.70369339  0.41668493  1  0  -0.146  0  3.681048  0  0  -0.163342  0  3.922432  0  0  -0.171373  0  3.944261  0  0  -0.06982  -0.158231  0  3.907883  0
C  C67  1  0.95307171  0.29630713  0.58331519  1  0  -0.145975  0  3.681033  0  0  -0.163317  0  3.922408  0  0  -0.171348  0  3.944238  0  0  -0.069822  -0.158205  0  3.90786  0
C  C68  1  0.08695811  0.58740844  0.38031851  1  0  0.121163  0  3.703023  0  0  0.090505  0  3.951653  0  0  0.096647  0  3.97171  0  0  0.050705  0.08651  0  3.938297  0
C  C69  1  0.91304146  0.41259207  0.61968175  1  0  0.12111  0  3.703008  0  0  0.090459  0  3.951643  0  0  0.096602  0  3.971701  0  0  0.050702  0.086466  0  3.938285  0
C  C70  1  0.09904259  0.92536016  0.41712756  1  0  0.095721  0  3.625552  0  0  0.063994  0  3.881522  0  0  0.068939  0  3.894648  0  0  0.085321  0.060809  0  3.872474  0
C  C71  1  0.90096081  0.07463930  0.58287302  1  0  0.095717  0  3.625531  0  0  0.063945  0  3.881534  0  0  0.068894  0  3.894658  0  0  0.085325  0.060759  0  3.872487  0
N  N72  1  0.93682700  0.55790795  0.01160344  1  0  -0.185543  0  3.012628  0  0  -0.158066  0  3.296599  0  0  -0.166671  0  3.314165  0  0  -0.201303  -0.152253  0  3.284698  0
N  N73  1  0.06317257  0.44209257  0.98839622  1  0  -0.185559  0  3.012574  0  0  -0.158091  0  3.29655  0  0  -0.166687  0  3.314113  0  0  -0.201312  -0.152276  0  3.284648  0
N  N74  1  0.00243882  0.94148449  0.48658607  1  0  -0.188274  0  3.016001  0  0  -0.161179  0  3.300914  0  0  -0.169602  0  3.318069  0  0  -0.202286  -0.15537  0  3.28908  0
N  N75  1  0.99756653  0.05851284  0.51341402  1  0  -0.188234  0  3.015993  0  0  -0.161116  0  3.300903  0  0  -0.169542  0  3.31806  0  0  -0.202215  -0.155305  0  3.289069  0
N  N76  1  0.60307438  0.92284971  0.18592825  1  0  -0.305043  0  3.267178  0  0  -0.222978  0  3.537236  0  0  -0.242477  0  3.552096  0  0  -0.323485  -0.209833  0  3.527021  0
N  N77  1  0.39692634  0.07715081  0.81407127  1  0  -0.30507  0  3.267126  0  0  -0.223029  0  3.537215  0  0  -0.242525  0  3.552071  0  0  -0.32354  -0.209884  0  3.527002  0
N  N78  1  0.19602047  0.56883922  0.31054343  1  0  -0.309463  0  3.267835  0  0  -0.227762  0  3.539475  0  0  -0.247287  0  3.554162  0  0  -0.325142  -0.214834  0  3.529864  0
N  N79  1  0.80397910  0.43116130  0.68945683  1  0  -0.309476  0  3.267836  0  0  -0.227762  0  3.539469  0  0  -0.247286  0  3.554153  0  0  -0.325163  -0.21483  0  3.529852  0
O  O80  1  0.29545401  0.24598881  0.39218335  1  0  -0.637298  0  2.018093  0  0  -0.578651  0  2.277391  0  0  -0.607081  0  2.262178  0  0  -0.321234  -0.558859  0  2.286978  0
O  O81  1  0.70454637  0.75400959  0.60781717  1  0  -0.637304  0  2.018066  0  0  -0.578651  0  2.277368  0  0  -0.607081  0  2.262156  0  0  -0.32125  -0.558858  0  2.286956  0
O  O82  1  0.46785467  0.04479788  0.34881018  1  0  -0.649789  0  2.058462  0  0  -0.58622  0  2.318019  0  0  -0.615317  0  2.303761  0  0  -0.322872  -0.565981  0  2.326786  0
O  O83  1  0.53214531  0.95520157  0.65118961  1  0  -0.649782  0  2.05847  0  0  -0.586214  0  2.318035  0  0  -0.615311  0  2.303776  0  0  -0.322857  -0.565974  0  2.326802  0
O  O84  1  0.23809183  0.11523055  0.23102189  1  0  -0.641158  0  2.064111  0  0  -0.577536  0  2.326889  0  0  -0.606092  0  2.31154  0  0  -0.31564  -0.557541  0  2.336523  0
O  O85  1  0.76190775  0.88476997  0.76897777  1  0  -0.641196  0  2.064136  0  0  -0.577561  0  2.326903  0  0  -0.606117  0  2.311554  0  0  -0.315647  -0.557568  0  2.336539  0
O  O86  1  0.10317829  0.33913167  0.25385624  1  0  -0.638768  0  2.06883  0  0  -0.573322  0  2.33216  0  0  -0.602191  0  2.317145  0  0  -0.316097  -0.553412  0  2.341989  0
O  O87  1  0.89682048  0.66087097  0.74614316  1  0  -0.638776  0  2.068977  0  0  -0.573323  0  2.332293  0  0  -0.602192  0  2.317277  0  0  -0.31607  -0.553413  0  2.342121  0
O  O88  1  0.66438235  0.17604122  0.21965999  1  0  -0.631267  0  2.048734  0  0  -0.565479  0  2.294088  0  0  -0.595129  0  2.281711  0  0  -0.317875  -0.544976  0  2.301741  0
O  O89  1  0.33561797  0.82396035  0.78034001  1  0  -0.63127  0  2.048737  0  0  -0.565486  0  2.294099  0  0  -0.595135  0  2.281719  0  0  -0.317841  -0.544983  0  2.301753  0
O  O90  1  0.52867614  0.36435718  0.28314632  1  0  -0.630871  0  2.038477  0  0  -0.566601  0  2.283228  0  0  -0.596199  0  2.270695  0  0  -0.318697  -0.545835  0  2.291003  0
O  O91  1  0.47132229  0.63564334  0.71685467  1  0  -0.630924  0  2.038544  0  0  -0.56665  0  2.283297  0  0  -0.596247  0  2.270761  0  0  -0.318709  -0.545884  0  2.291074  0
O  O92  1  0.44740932  0.23772643  0.10170619  1  0  -0.641898  0  2.023376  0  0  -0.580831  0  2.28113  0  0  -0.609837  0  2.266535  0  0  -0.32097  -0.560401  0  2.290199  0
O  O93  1  0.55258871  0.76227515  0.89829347  1  0  -0.641889  0  2.023434  0  0  -0.580829  0  2.281199  0  0  -0.609841  0  2.266619  0  0  -0.320977  -0.560402  0  2.290269  0
O  O94  1  0.35621871  0.44644902  0.14624467  1  0  -0.646906  0  2.051766  0  0  -0.583709  0  2.309936  0  0  -0.612863  0  2.295838  0  0  -0.319945  -0.563369  0  2.318852  0
O  O95  1  0.64378086  0.55355151  0.85375619  1  0  -0.646853  0  2.051817  0  0  -0.583652  0  2.309992  0  0  -0.612804  0  2.295892  0  0  -0.319936  -0.563311  0  2.318908  0
