# generated using pymatgen
data_LaH6C9(ClO3)3
_symmetry_space_group_name_H-M   'P 1'
_cell_length_a   7.70615607
_cell_length_b   8.95729305
_cell_length_c   11.77372341
_cell_angle_alpha   73.82741421
_cell_angle_beta   73.96947929
_cell_angle_gamma   83.42702879
_symmetry_Int_Tables_number   1
_chemical_formula_structural   LaH6C9(ClO3)3
_chemical_formula_sum   'La2 H12 C18 Cl6 O18'
_cell_volume   749.56338650
_cell_formula_units_Z   2
loop_
 _symmetry_equiv_pos_site_id
 _symmetry_equiv_pos_as_xyz
  1  'x, y, z'
loop_
 _atom_site_type_symbol
 _atom_site_label
 _atom_site_symmetry_multiplicity
 _atom_site_fract_x
 _atom_site_fract_y
 _atom_site_fract_z
 _atom_site_occupancy
 _atom_site_hle17_bader_spin_density
 _atom_site_hle17_ddec_charge
 _atom_site_hle17_ddec_spin_density
 _atom_site_hle17_ddec_sum_bond_order
 _atom_site_hle17_magmom
 _atom_site_hse06_10hf_bader_spin_density
 _atom_site_hse06_10hf_ddec_charge
 _atom_site_hse06_10hf_ddec_spin_density
 _atom_site_hse06_10hf_ddec_sum_bond_order
 _atom_site_hse06_10hf_magmom
 _atom_site_hse06_bader_spin_density
 _atom_site_hse06_ddec_charge
 _atom_site_hse06_ddec_spin_density
 _atom_site_hse06_ddec_sum_bond_order
 _atom_site_hse06_magmom
 _atom_site_pbe_bader_spin_density
 _atom_site_pbe_cm5_charge
 _atom_site_pbe_ddec_charge
 _atom_site_pbe_ddec_spin_density
 _atom_site_pbe_ddec_sum_bond_order
 _atom_site_pbe_magmom
La  La0  1  0.11382249  0.40794863  0.17903563  1  0  2.0673  0  1.66463  0  0  1.964125  0  2.122677  0  0  2.062333  0  2.031462  0  0  1.339651  1.889398  0  2.188256  0
La  La1  1  0.88618033  0.59204501  0.82096414  1  0  2.067391  0  1.664432  0  0  1.964138  0  2.122674  0  0  2.06237  0  2.031422  0  0  1.339622  1.889417  0  2.188246  0
H  H2  1  0.29682066  0.56451720  0.87468195  1  0  0.446765  0  0.830014  0  0  0.423694  0  0.882457  0  0  0.435727  0  0.864945  0  0  0.318656  0.414911  0  0.895245  0
H  H3  1  0.70319814  0.43547959  0.12531057  1  0  0.446904  0  0.829952  0  0  0.423843  0  0.882266  0  0  0.435874  0  0.864759  0  0  0.318742  0.415058  0  0.895056  0
H  H4  1  0.21974999  0.39738464  0.90897588  1  0  0.444163  0  0.837305  0  0  0.418897  0  0.89413  0  0  0.430029  0  0.877975  0  0  0.32104  0.410859  0  0.905787  0
H  H5  1  0.78026865  0.60261328  0.09101303  1  0  0.4443  0  0.837067  0  0  0.419028  0  0.893943  0  0  0.430163  0  0.87778  0  0  0.321072  0.41099  0  0.9056  0
H  H6  1  0.20376504  0.42109289  0.41786718  1  0  0.433431  0  0.819544  0  0  0.411376  0  0.884955  0  0  0.42068  0  0.873131  0  0  0.320114  0.40458  0  0.892752  0
H  H7  1  0.79622909  0.57892999  0.58212963  1  0  0.43352  0  0.819445  0  0  0.411479  0  0.884836  0  0  0.420784  0  0.873003  0  0  0.320173  0.404686  0  0.892626  0
H  H8  1  0.27787169  0.58183112  0.34090733  1  0  0.403825  0  0.891298  0  0  0.3761  0  0.952367  0  0  0.38591  0  0.938097  0  0  0.287612  0.369004  0  0.962686  0
H  H9  1  0.72216015  0.41817233  0.65907352  1  0  0.403781  0  0.891242  0  0  0.376068  0  0.95238  0  0  0.385874  0  0.938114  0  0  0.28763  0.368969  0  0.962704  0
H  H10  1  0.55363251  0.33043851  0.05001603  1  0  0.423733  0  0.880284  0  0  0.39032  0  0.949141  0  0  0.402719  0  0.931138  0  0  0.297003  0.381429  0  0.962022  0
H  H11  1  0.44636860  0.66956442  0.94997865  1  0  0.423718  0  0.880308  0  0  0.390331  0  0.949147  0  0  0.402737  0  0.931133  0  0  0.296992  0.38144  0  0.962029  0
H  H12  1  0.46802559  0.26231798  0.18938818  1  0  0.43202  0  0.839942  0  0  0.406024  0  0.909372  0  0  0.41621  0  0.894341  0  0  0.312093  0.398688  0  0.919967  0
H  H13  1  0.53198375  0.73769185  0.81061017  1  0  0.432064  0  0.839959  0  0  0.406055  0  0.909355  0  0  0.416242  0  0.894325  0  0  0.312091  0.39872  0  0.919998  0
C  C14  1  0.97954953  0.05565022  0.18616101  1  0  0.280518  0  3.864111  0  0  0.25787  0  4.141056  0  0  0.279054  0  4.149865  0  0  0.108352  0.243726  0  4.134553  0
C  C15  1  0.02043992  0.94434486  0.81384531  1  0  0.280682  0  3.86399  0  0  0.257977  0  4.140991  0  0  0.279166  0  4.149799  0  0  0.108366  0.243803  0  4.134521  0
C  C16  1  0.14302990  0.08074207  0.07410210  1  0  0.308419  0  3.828546  0  0  0.285866  0  4.10507  0  0  0.307715  0  4.113251  0  0  0.119572  0.270986  0  4.099173  0
C  C17  1  0.85695678  0.91925656  0.92590400  1  0  0.308344  0  3.828535  0  0  0.285883  0  4.104972  0  0  0.307739  0  4.113169  0  0  0.119689  0.27103  0  4.099053  0
C  C18  1  0.22542648  0.95517981  0.02604703  1  0  -0.159591  0  3.824319  0  0  -0.164873  0  4.122732  0  0  -0.182496  0  4.148246  0  0  -0.044033  -0.153666  0  4.106235  0
C  C19  1  0.77455748  0.04482120  0.97395994  1  0  -0.159639  0  3.824347  0  0  -0.164904  0  4.122796  0  0  -0.182571  0  4.148373  0  0  -0.044028  -0.153699  0  4.106284  0
C  C20  1  0.17353981  0.80347892  0.09050054  1  0  0.300161  0  3.815725  0  0  0.272565  0  4.096412  0  0  0.294477  0  4.104828  0  0  0.115959  0.257908  0  4.090098  0
C  C21  1  0.82644676  0.19651851  0.90950245  1  0  0.30011  0  3.815582  0  0  0.272418  0  4.096467  0  0  0.294332  0  4.104887  0  0  0.115873  0.257753  0  4.090159  0
C  C22  1  0.00612063  0.77804200  0.19874938  1  0  0.291327  0  3.849387  0  0  0.268536  0  4.131049  0  0  0.290309  0  4.139032  0  0  0.109537  0.253888  0  4.12506  0
C  C23  1  0.99386875  0.22195191  0.80125467  1  0  0.291545  0  3.849043  0  0  0.268757  0  4.130756  0  0  0.290564  0  4.138684  0  0  0.109631  0.254109  0  4.124762  0
C  C24  1  0.92249817  0.90344543  0.24569952  1  0  -0.149848  0  3.835252  0  0  -0.156204  0  4.132613  0  0  -0.173097  0  4.158364  0  0  -0.043853  -0.145567  0  4.115927  0
C  C25  1  0.07748990  0.09654850  0.75430563  1  0  -0.149939  0  3.835136  0  0  -0.156247  0  4.132492  0  0  -0.173152  0  4.158231  0  0  -0.043858  -0.145591  0  4.115791  0
C  C26  1  0.96901526  0.16469752  0.45390432  1  0  0.30154  0  3.853785  0  0  0.276228  0  4.13488  0  0  0.299638  0  4.140669  0  0  0.116948  0.260892  0  4.129632  0
C  C27  1  0.03098888  0.83530193  0.54609646  1  0  0.301521  0  3.853782  0  0  0.276221  0  4.134883  0  0  0.299633  0  4.140668  0  0  0.11691  0.260892  0  4.12963  0
C  C28  1  0.13229747  0.07477618  0.39178991  1  0  0.292255  0  3.858561  0  0  0.269013  0  4.134164  0  0  0.290137  0  4.143587  0  0  0.110838  0.254795  0  4.126978  0
C  C29  1  0.86770527  0.92522562  0.60821064  1  0  0.292213  0  3.858642  0  0  0.268934  0  4.134293  0  0  0.290063  0  4.143689  0  0  0.11082  0.254712  0  4.1271  0
C  C30  1  0.84791250  0.08597771  0.56134223  1  0  -0.13918  0  3.793478  0  0  -0.146063  0  4.089564  0  0  -0.162575  0  4.112873  0  0  -0.038458  -0.135418  0  4.073956  0
C  C31  1  0.15209020  0.91402408  0.43865748  1  0  -0.139106  0  3.793244  0  0  -0.146027  0  4.089364  0  0  -0.162538  0  4.112674  0  0  -0.038438  -0.135392  0  4.073769  0
Cl  Cl32  1  0.40141416  0.98968267  0.89643851  1  0  -0.030615  0  1.593971  0  0  -0.022378  0  1.874751  0  0  -0.02157  0  1.869908  0  0  0.018009  -0.023015  0  1.878609  0
Cl  Cl33  1  0.59857108  0.01032298  0.10356805  1  0  -0.030579  0  1.593937  0  0  -0.022345  0  1.874712  0  0  -0.021524  0  1.869885  0  0  0.018007  -0.022982  0  1.878564  0
Cl  Cl34  1  0.74397671  0.86924084  0.37368195  1  0  -0.031109  0  1.488444  0  0  -0.022949  0  1.738226  0  0  -0.023513  0  1.733321  0  0  0.003685  -0.022961  0  1.742131  0
Cl  Cl35  1  0.25601835  0.13074835  0.62632625  1  0  -0.031178  0  1.488386  0  0  -0.023016  0  1.738148  0  0  -0.023581  0  1.733244  0  0  0.00361  -0.023034  0  1.742041  0
Cl  Cl36  1  0.66669633  0.18783045  0.63266047  1  0  -0.029577  0  1.510497  0  0  -0.010965  0  1.763559  0  0  -0.011612  0  1.755674  0  0  0.026821  -0.010234  0  1.76943  0
Cl  Cl37  1  0.33330896  0.81217009  0.36733560  1  0  -0.029624  0  1.510406  0  0  -0.011001  0  1.763489  0  0  -0.011656  0  1.755604  0  0  0.026822  -0.010267  0  1.769362  0
O  O38  1  0.90874936  0.17746584  0.21732270  1  0  -0.525914  0  2.037059  0  0  -0.489794  0  2.272838  0  0  -0.516241  0  2.270808  0  0  -0.325473  -0.470837  0  2.273478  0
O  O39  1  0.09124149  0.82252923  0.78268421  1  0  -0.525964  0  2.037016  0  0  -0.489874  0  2.272896  0  0  -0.51632  0  2.270866  0  0  -0.325515  -0.470912  0  2.273551  0
O  O40  1  0.19557646  0.21905252  0.03267741  1  0  -0.571259  0  2.095463  0  0  -0.529478  0  2.337949  0  0  -0.556018  0  2.333536  0  0  -0.322677  -0.510223  0  2.340324  0
O  O41  1  0.80440759  0.78094617  0.96733090  1  0  -0.57128  0  2.095419  0  0  -0.529509  0  2.337838  0  0  -0.556043  0  2.333416  0  0  -0.32274  -0.510271  0  2.340214  0
O  O42  1  0.25507636  0.67884552  0.06711565  1  0  -0.561872  0  2.070039  0  0  -0.506813  0  2.300966  0  0  -0.536585  0  2.297966  0  0  -0.320716  -0.485418  0  2.302297  0
O  O43  1  0.74491395  0.32115761  0.93288111  1  0  -0.561781  0  2.069926  0  0  -0.506721  0  2.300947  0  0  -0.536492  0  2.297945  0  0  -0.320704  -0.485328  0  2.302283  0
O  O44  1  0.95343324  0.63947043  0.24103955  1  0  -0.555335  0  2.059653  0  0  -0.519292  0  2.303105  0  0  -0.546944  0  2.297571  0  0  -0.358556  -0.499231  0  2.306174  0
O  O45  1  0.04656177  0.36052109  0.75896816  1  0  -0.555414  0  2.059571  0  0  -0.519343  0  2.303037  0  0  -0.54701  0  2.29749  0  0  -0.358536  -0.499285  0  2.306106  0
O  O46  1  0.95434248  0.30821203  0.40238265  1  0  -0.53873  0  2.04056  0  0  -0.50081  0  2.276872  0  0  -0.527097  0  2.270578  0  0  -0.339513  -0.481311  0  2.280001  0
O  O47  1  0.04566308  0.69178624  0.59761896  1  0  -0.538803  0  2.040632  0  0  -0.500864  0  2.276929  0  0  -0.527159  0  2.270649  0  0  -0.339524  -0.481361  0  2.280045  0
O  O48  1  0.23856598  0.15653729  0.29762130  1  0  -0.573051  0  2.087602  0  0  -0.530274  0  2.330141  0  0  -0.559621  0  2.328284  0  0  -0.351026  -0.508947  0  2.33038  0
O  O49  1  0.76143809  0.84346214  0.70237780  1  0  -0.573012  0  2.087646  0  0  -0.530197  0  2.330187  0  0  -0.559578  0  2.328405  0  0  -0.350972  -0.508873  0  2.330433  0
O  O50  1  0.18381143  0.50698461  0.90759207  1  0  -0.883714  0  1.849227  0  0  -0.83765  0  2.029828  0  0  -0.866804  0  1.997752  0  0  -0.594168  -0.816053  0  2.052301  0
O  O51  1  0.81620735  0.49300867  0.09239867  1  0  -0.884008  0  1.849113  0  0  -0.837918  0  2.029588  0  0  -0.867068  0  1.997495  0  0  -0.594254  -0.816315  0  2.052066  0
O  O52  1  0.26796184  0.47590434  0.33543844  1  0  -0.82618  0  1.845427  0  0  -0.784094  0  2.009978  0  0  -0.806625  0  1.982504  0  0  -0.597915  -0.767512  0  2.028456  0
O  O53  1  0.73204882  0.52409727  0.66455633  1  0  -0.826254  0  1.845327  0  0  -0.784179  0  2.00995  0  0  -0.806709  0  1.982474  0  0  -0.597997  -0.767597  0  2.028427  0
O  O54  1  0.47717893  0.36005243  0.12480008  1  0  -0.849492  0  1.847369  0  0  -0.798965  0  2.025745  0  0  -0.824118  0  1.993368  0  0  -0.589499  -0.780656  0  2.048323  0
O  O55  1  0.52282232  0.63995404  0.87519890  1  0  -0.849505  0  1.847413  0  0  -0.799  0  2.025651  0  0  -0.824159  0  1.993258  0  0  -0.589488  -0.780688  0  2.048275  0
