# generated using pymatgen
data_InH17C15S2
_symmetry_space_group_name_H-M   'P 1'
_cell_length_a   7.32548593
_cell_length_b   13.92607145
_cell_length_c   14.62500000
_cell_angle_alpha   90.00000000
_cell_angle_beta   90.00000000
_cell_angle_gamma   99.63936763
_symmetry_Int_Tables_number   1
_chemical_formula_structural   InH17C15S2
_chemical_formula_sum   'In4 H68 C60 S8'
_cell_volume   1470.90805357
_cell_formula_units_Z   4
loop_
 _symmetry_equiv_pos_site_id
 _symmetry_equiv_pos_as_xyz
  1  'x, y, z'
loop_
 _atom_site_type_symbol
 _atom_site_label
 _atom_site_symmetry_multiplicity
 _atom_site_fract_x
 _atom_site_fract_y
 _atom_site_fract_z
 _atom_site_occupancy
 _atom_site_hle17_bader_spin_density
 _atom_site_hle17_ddec_charge
 _atom_site_hle17_ddec_spin_density
 _atom_site_hle17_ddec_sum_bond_order
 _atom_site_hle17_magmom
 _atom_site_hse06_10hf_bader_spin_density
 _atom_site_hse06_10hf_ddec_charge
 _atom_site_hse06_10hf_ddec_spin_density
 _atom_site_hse06_10hf_ddec_sum_bond_order
 _atom_site_hse06_10hf_magmom
 _atom_site_hse06_bader_spin_density
 _atom_site_hse06_ddec_charge
 _atom_site_hse06_ddec_spin_density
 _atom_site_hse06_ddec_sum_bond_order
 _atom_site_hse06_magmom
 _atom_site_pbe_bader_charge
 _atom_site_pbe_bader_spin_density
 _atom_site_pbe_cm5_charge
 _atom_site_pbe_ddec_charge
 _atom_site_pbe_ddec_spin_density
 _atom_site_pbe_ddec_sum_bond_order
 _atom_site_pbe_magmom
In  In0  1  0.39930071  0.73798865  0.19488615  1  0  0.958079  0  2.454687  0  0  0.800255  0  2.936136  0  0  0.84277  0  2.916158  0  1.189284  0  0.378947  0.771111  0  2.949085  0
In  In1  1  0.60070128  0.26201264  0.69488889  1  0  0.958135  0  2.454808  0  0  0.800316  0  2.936241  0  0  0.842826  0  2.916265  0  1.189286  0  0.37897  0.771171  0  2.949192  0
In  In2  1  0.93841710  0.75948623  0.30499214  1  0  0.954919  0  2.456583  0  0  0.800376  0  2.93479  0  0  0.84153  0  2.91675  0  1.192466  0  0.376368  0.772208  0  2.946478  0
In  In3  1  0.06158419  0.24051287  0.80498872  1  0  0.954944  0  2.456642  0  0  0.800402  0  2.934879  0  0  0.841549  0  2.916844  0  1.192568  0  0.376376  0.772231  0  2.946569  0
H  H4  1  0.28310975  0.70130766  0.01903658  1  0  0.144931  0  1.038134  0  0  0.160649  0  1.097551  0  0  0.163036  0  1.099718  0  0.042089  0  0.076368  0.158931  0  1.096112  0
H  H5  1  0.71686537  0.29869072  0.51903453  1  0  0.145091  0  1.03811  0  0  0.160746  0  1.097584  0  0  0.163134  0  1.099749  0  0.042157  0  0.076413  0.159029  0  1.096145  0
H  H6  1  0.53189262  0.73413344  0.02220923  1  0  0.152575  0  1.002832  0  0  0.168884  0  1.063122  0  0  0.171186  0  1.065365  0  0.059829  0  0.080642  0.167222  0  1.061639  0
H  H7  1  0.46808274  0.26586567  0.52222085  1  0  0.152471  0  1.002971  0  0  0.168785  0  1.063233  0  0  0.171086  0  1.065478  0  0.059637  0  0.080614  0.167124  0  1.061748  0
H  H8  1  0.38751668  0.82626821  0.03039590  1  0  0.147802  0  1.009225  0  0  0.16602  0  1.066965  0  0  0.168537  0  1.068535  0  0.039759  0  0.079959  0.164207  0  1.06594  0
H  H9  1  0.61245571  0.17373016  0.53039726  1  0  0.147819  0  1.009277  0  0  0.16603  0  1.067024  0  0  0.168547  0  1.068593  0  0.040058  0  0.079963  0.164216  0  1.065999  0
H  H10  1  0.77016957  0.77664205  0.46681573  1  0  0.14477  0  1.017694  0  0  0.160402  0  1.079622  0  0  0.162513  0  1.081973  0  0.058365  0  0.074499  0.158865  0  1.078086  0
H  H11  1  0.22983378  0.22335924  0.96681641  1  0  0.144829  0  1.017663  0  0  0.160465  0  1.079584  0  0  0.162576  0  1.081935  0  0.058362  0  0.074549  0.158927  0  1.078049  0
H  H12  1  0.01210779  0.82659306  0.48028718  1  0  0.158222  0  1.007249  0  0  0.17611  0  1.060646  0  0  0.17777  0  1.064658  0  0.059962  0  0.081578  0.174913  0  1.057899  0
H  H13  1  0.98789419  0.17340823  0.98028171  1  0  0.158274  0  1.007138  0  0  0.176172  0  1.060531  0  0  0.17783  0  1.06454  0  0.060022  0  0.081623  0.174977  0  1.057776  0
H  H14  1  0.93737533  0.69737232  0.48162598  1  0  0.145722  0  1.009321  0  0  0.163555  0  1.068518  0  0  0.16571  0  1.070692  0  0.049171  0  0.077963  0.162004  0  1.067068  0
H  H15  1  0.06262778  0.30262824  0.98162051  1  0  0.145754  0  1.00931  0  0  0.163585  0  1.068511  0  0  0.165741  0  1.070679  0  0.049199  0  0.077966  0.162033  0  1.067062  0
H  H16  1  0.57987446  0.30270253  0.36609983  1  0  0.089644  0  0.969798  0  0  0.104035  0  1.027664  0  0  0.106352  0  1.027433  0  0.093557  0  0.098091  0.102381  0  1.027893  0
H  H17  1  0.42012505  0.69730385  0.86608957  1  0  0.089733  0  0.9697  0  0  0.10412  0  1.027553  0  0  0.106443  0  1.027324  0  0.092871  0  0.098099  0.102464  0  1.027782  0
H  H18  1  0.41911312  0.24111887  0.22351179  1  0  0.082786  0  0.968222  0  0  0.095378  0  1.02942  0  0  0.097799  0  1.028598  0  0.091385  0  0.098585  0.093623  0  1.030102  0
H  H19  1  0.58087777  0.75889043  0.72349949  1  0  0.082875  0  0.967984  0  0  0.095344  0  1.02932  0  0  0.097764  0  1.028494  0  0.091491  0  0.098556  0.093592  0  1.029999  0
H  H20  1  0.34620781  0.35947173  0.10516171  1  0  0.085802  0  0.954798  0  0  0.100724  0  1.010199  0  0  0.103221  0  1.009277  0  0.068043  0  0.100891  0.098951  0  1.010919  0
H  H21  1  0.65379286  0.64053830  0.60514940  1  0  0.085879  0  0.954827  0  0  0.100781  0  1.010245  0  0  0.103278  0  1.009327  0  0.068148  0  0.100906  0.099005  0  1.010972  0
H  H22  1  0.42268397  0.53624208  0.13442051  1  0  0.085991  0  0.963717  0  0  0.102827  0  1.02129  0  0  0.104886  0  1.021087  0  0.039808  0  0.099366  0.101333  0  1.021513  0
H  H23  1  0.57733216  0.46376504  0.63440889  1  0  0.086117  0  0.963553  0  0  0.102931  0  1.02115  0  0  0.104992  0  1.020944  0  0.039674  0  0.099424  0.101434  0  1.021384  0
H  H24  1  0.72114541  0.43041921  0.46147692  1  0  0.107145  0  0.97398  0  0  0.131683  0  1.03011  0  0  0.132458  0  1.031303  0  0.042644  0  0.089829  0.13107  0  1.029358  0
H  H25  1  0.27885683  0.56958718  0.96146393  1  0  0.107052  0  0.973991  0  0  0.131604  0  1.03013  0  0  0.132377  0  1.031326  0  0.0426  0  0.089805  0.130993  0  1.029379  0
H  H26  1  0.59442721  0.52923597  0.46346393  1  0  0.107915  0  0.949964  0  0  0.129904  0  1.012251  0  0  0.130791  0  1.012712  0  0.055529  0  0.088105  0.129248  0  1.011921  0
H  H27  1  0.40557115  0.47076678  0.96345504  1  0  0.107941  0  0.949971  0  0  0.129923  0  1.012299  0  0  0.130808  0  1.012761  0  0.055609  0  0.088122  0.129268  0  1.011969  0
H  H28  1  0.81071870  0.54158242  0.40676991  1  0  0.099302  0  0.977483  0  0  0.118657  0  1.0467  0  0  0.119258  0  1.047979  0  0.038588  0  0.083958  0.118157  0  1.045876  0
H  H29  1  0.18928378  0.45842470  0.90675282  1  0  0.099299  0  0.977454  0  0  0.118752  0  1.046545  0  0  0.119353  0  1.047823  0  0.038988  0  0.08406  0.118252  0  1.045724  0
H  H30  1  0.40094594  0.04986725  0.56685744  1  0  0.086582  0  0.99007  0  0  0.098403  0  1.053838  0  0  0.100715  0  1.053507  0  0.073778  0  0.092096  0.096741  0  1.054185  0
H  H31  1  0.59904603  0.95013259  0.06685470  1  0  0.086562  0  0.990194  0  0  0.098414  0  1.053919  0  0  0.100728  0  1.053588  0  0.073674  0  0.092093  0.096753  0  1.054266  0
H  H32  1  0.45969513  0.90654818  0.65427624  1  0  0.08679  0  0.954159  0  0  0.097102  0  1.017603  0  0  0.099566  0  1.017061  0  0.050072  0  0.097653  0.095297  0  1.018107  0
H  H33  1  0.54031391  0.09345384  0.15427692  1  0  0.086818  0  0.954141  0  0  0.097121  0  1.017603  0  0  0.099604  0  1.017015  0  0.050071  0  0.097668  0.09529  0  1.018135  0
H  H34  1  0.44740258  0.74623079  0.57398632  1  0  0.080906  0  0.989853  0  0  0.091224  0  1.055664  0  0  0.093354  0  1.055292  0  0.060267  0  0.095742  0.08972  0  1.055965  0
H  H35  1  0.55259804  0.25377050  0.07398769  1  0  0.080926  0  0.989779  0  0  0.0912  0  1.055634  0  0  0.093328  0  1.055267  0  0.060232  0  0.095719  0.0897  0  1.055939  0
H  H36  1  0.38009665  0.73373065  0.40877333  1  0  0.07251  0  1.020899  0  0  0.08084  0  1.091888  0  0  0.083483  0  1.0911  0  0.044827  0  0.084514  0.078929  0  1.092534  0
H  H37  1  0.61990011  0.26627136  0.90877470  1  0  0.072539  0  1.020814  0  0  0.080857  0  1.091814  0  0  0.083502  0  1.091024  0  0.044814  0  0.084541  0.078945  0  1.092461  0
H  H38  1  0.16975580  0.04883370  0.36068444  1  0  0.108855  0  0.977912  0  0  0.128761  0  1.042723  0  0  0.128957  0  1.045339  0  0.082944  0  0.086764  0.128571  0  1.04096  0
H  H39  1  0.83024232  0.95116831  0.86068103  1  0  0.108815  0  0.977899  0  0  0.128715  0  1.042726  0  0  0.128912  0  1.045341  0  0.082867  0  0.086751  0.128525  0  1.040964  0
H  H40  1  0.40349512  0.08086557  0.32865299  1  0  0.105202  0  0.954523  0  0  0.125194  0  1.021736  0  0  0.12625  0  1.021681  0  0.04071  0  0.086404  0.124401  0  1.021792  0
H  H41  1  0.59649870  0.91914009  0.82865026  1  0  0.105188  0  0.954508  0  0  0.125182  0  1.02171  0  0  0.126237  0  1.021657  0  0.040666  0  0.086378  0.124392  0  1.021764  0
H  H42  1  0.32493647  0.12632259  0.43303590  1  0  0.104179  0  0.960453  0  0  0.127962  0  1.019682  0  0  0.129279  0  1.019318  0  0.031571  0  0.088237  0.126973  0  1.019983  0
H  H43  1  0.67505823  0.87367724  0.93303179  1  0  0.10417  0  0.960428  0  0  0.127961  0  1.01965  0  0  0.129278  0  1.019287  0  0.031641  0  0.088237  0.126973  0  1.019951  0
H  H44  1  0.80463081  0.39311911  0.99228513  1  0  0.085182  0  0.971998  0  0  0.099208  0  1.032579  0  0  0.101497  0  1.032235  0  0.020536  0  0.09659  0.097547  0  1.032972  0
H  H45  1  0.19537252  0.60687781  0.49228513  1  0  0.085098  0  0.972006  0  0  0.099122  0  1.032604  0  0  0.101405  0  1.032267  0  0.020615  0  0.096535  0.097462  0  1.032996  0
H  H46  1  0.76680730  0.52265668  0.88099556  1  0  0.087533  0  0.975325  0  0  0.095068  0  1.042251  0  0  0.097358  0  1.042056  0  0.091546  0  0.094154  0.093382  0  1.042536  0
H  H47  1  0.23319625  0.47734096  0.38099556  1  0  0.087623  0  0.975375  0  0  0.095142  0  1.042301  0  0  0.097433  0  1.042107  0  0.091548  0  0.094178  0.093457  0  1.042585  0
H  H48  1  0.84612852  0.69758792  0.92753094  1  0  0.085837  0  0.956517  0  0  0.098719  0  1.014811  0  0  0.101335  0  1.014144  0  0.056152  0  0.097752  0.096835  0  1.015368  0
H  H49  1  0.15387344  0.30240900  0.42753026  1  0  0.085873  0  0.956496  0  0  0.098749  0  1.01479  0  0  0.101377  0  1.014113  0  0.056076  0  0.097784  0.096867  0  1.015346  0
H  H50  1  0.97442261  0.73976294  0.08180376  1  0  0.081804  0  0.996635  0  0  0.091756  0  1.062139  0  0  0.094351  0  1.061339  0  0.052387  0  0.089797  0.089794  0  1.062857  0
H  H51  1  0.02557183  0.26023179  0.58180239  1  0  0.081779  0  0.996575  0  0  0.091754  0  1.062068  0  0  0.094336  0  1.061277  0  0.05232  0  0.089789  0.08979  0  1.062788  0
H  H52  1  0.84722304  0.41395169  0.22548581  1  0  0.108455  0  0.982477  0  0  0.128338  0  1.046376  0  0  0.128652  0  1.048447  0  0.075475  0  0.086041  0.128074  0  1.044977  0
H  H53  1  0.15277598  0.58604887  0.72548513  1  0  0.10849  0  0.98244  0  0  0.12835  0  1.046368  0  0  0.128664  0  1.048438  0  0.075475  0  0.086047  0.128085  0  1.04497  0
H  H54  1  0.07720485  0.41546231  0.18950017  1  0  0.103097  0  0.982572  0  0  0.122425  0  1.049261  0  0  0.123249  0  1.04991  0  0.052625  0  0.081822  0.121815  0  1.048816  0
H  H55  1  0.92279211  0.58453606  0.68949949  1  0  0.103096  0  0.98254  0  0  0.122452  0  1.049198  0  0  0.123276  0  1.049846  0  0.052565  0  0.081827  0.121842  0  1.048752  0
H  H56  1  0.89215248  0.33903319  0.13258803  1  0  0.103118  0  0.95877  0  0  0.124567  0  1.021609  0  0  0.12556  0  1.022137  0  0.019342  0  0.087271  0.123803  0  1.021276  0
H  H57  1  0.10784311  0.66096519  0.63258462  1  0  0.103158  0  0.958768  0  0  0.12462  0  1.021597  0  0  0.125614  0  1.022124  0  0.019438  0  0.087296  0.123852  0  1.021267  0
H  H58  1  0.12692714  0.18237872  0.14655316  1  0  0.087881  0  0.964578  0  0  0.102274  0  1.023466  0  0  0.104371  0  1.023464  0  0.05256  0  0.097805  0.100795  0  1.023509  0
H  H59  1  0.87306322  0.81762038  0.64656205  1  0  0.087977  0  0.96452  0  0  0.102366  0  1.023396  0  0  0.104466  0  1.02339  0  0.052702  0  0.097837  0.100887  0  1.023449  0
H  H60  1  0.98910186  0.24897716  0.28245128  1  0  0.085345  0  0.959313  0  0  0.099908  0  1.015861  0  0  0.102187  0  1.015328  0  0.09125  0  0.100119  0.098265  0  1.016302  0
H  H61  1  0.01090577  0.75101612  0.78245265  1  0  0.085188  0  0.959476  0  0  0.099761  0  1.01602  0  0  0.102037  0  1.015493  0  0.091077  0  0.100085  0.09813  0  1.016447  0
H  H62  1  0.76807010  0.13822256  0.38168342  1  0  0.087078  0  0.953461  0  0  0.102937  0  1.006148  0  0  0.105227  0  1.005976  0  0.061472  0  0.098179  0.101291  0  1.006367  0
H  H63  1  0.23194366  0.86176854  0.88168410  1  0  0.087108  0  0.95339  0  0  0.102905  0  1.006168  0  0  0.105196  0  1.005996  0  0.061524  0  0.098184  0.101255  0  1.006395  0
H  H64  1  0.68430495  0.96307629  0.34068239  1  0  0.090297  0  0.98357  0  0  0.098885  0  1.049846  0  0  0.10089  0  1.05049  0  0.082817  0  0.093808  0.097405  0  1.049532  0
H  H65  1  0.31570631  0.03691553  0.84068786  1  0  0.090299  0  0.983694  0  0  0.09895  0  1.049901  0  0  0.100954  0  1.050545  0  0.082768  0  0.093836  0.097471  0  1.049587  0
H  H66  1  0.96985319  0.96681133  0.03250188  1  0  0.111252  0  0.956547  0  0  0.134193  0  1.016607  0  0  0.134951  0  1.017202  0  0.041487  0  0.088485  0.133612  0  1.016204  0
H  H67  1  0.03014738  0.03318122  0.53250803  1  0  0.111221  0  0.956589  0  0  0.134179  0  1.016615  0  0  0.134934  0  1.017216  0  0.041721  0  0.088489  0.133601  0  1.016213  0
H  H68  1  0.15001169  0.93879200  0.10235487  1  0  0.102286  0  0.965044  0  0  0.123854  0  1.030433  0  0  0.124813  0  1.030369  0  0.05691  0  0.082307  0.123116  0  1.03052  0
H  H69  1  0.84998298  0.06120346  0.60235966  1  0  0.102311  0  0.965139  0  0  0.123881  0  1.030526  0  0  0.124847  0  1.030455  0  0.056937  0  0.082292  0.123143  0  1.030612  0
H  H70  1  0.17238035  0.05531612  0.05030632  1  0  0.106592  0  0.967049  0  0  0.130029  0  1.024645  0  0  0.130959  0  1.02551  0  0.046663  0  0.088429  0.129342  0  1.024038  0
H  H71  1  0.82761998  0.94467570  0.55031590  1  0  0.106623  0  0.96707  0  0  0.130057  0  1.024675  0  0  0.130987  0  1.025538  0  0.046531  0  0.088387  0.12937  0  1.024068  0
C  C72  1  0.40034600  0.75114431  0.04764855  1  0  -0.70363  0  3.53893  0  0  -0.735871  0  3.77387  0  0  -0.753703  0  3.783975  0  -0.43916  0  -0.356128  -0.723568  0  3.766861  0
C  C73  1  0.59963185  0.24885406  0.54765128  1  0  -0.70374  0  3.53913  0  0  -0.735902  0  3.774129  0  0  -0.753733  0  3.784234  0  -0.439331  0  -0.356168  -0.723599  0  3.76712  0
C  C74  1  0.91247476  0.76647194  0.45241436  1  0  -0.693647  0  3.519504  0  0  -0.722661  0  3.746274  0  0  -0.740531  0  3.758777  0  -0.451407  0  -0.353533  -0.710334  0  3.737649  0
C  C75  1  0.08753156  0.23353007  0.95241162  1  0  -0.693776  0  3.519478  0  0  -0.722829  0  3.746286  0  0  -0.740694  0  3.758771  0  -0.451669  0  -0.353633  -0.710498  0  3.737664  0
C  C76  1  0.53671008  0.51977747  0.26890598  1  0  0.055251  0  3.749958  0  0  0.06492  0  4.00084  0  0  0.067382  0  4.023639  0  -0.141853  0  -0.007838  0.062969  0  3.985555  0
C  C77  1  0.46330741  0.48022965  0.76889573  1  0  0.055116  0  3.7498  0  0  0.064854  0  4.000568  0  0  0.067306  0  4.023401  0  -0.14182  0  -0.007889  0.062902  0  3.985282  0
C  C78  1  0.58653145  0.45385423  0.33451419  1  0  0.1013  0  3.717822  0  0  0.12592  0  3.951124  0  0  0.126508  0  3.973293  0  -0.051608  0  -0.009062  0.125515  0  3.936108  0
C  C79  1  0.41348194  0.54615289  0.83450735  1  0  0.101507  0  3.717749  0  0  0.126175  0  3.950959  0  0  0.126765  0  3.973124  0  -0.051652  0  -0.009021  0.12577  0  3.935948  0
C  C80  1  0.54279792  0.35404180  0.31585504  1  0  -0.127754  0  3.753538  0  0  -0.143891  0  3.991959  0  0  -0.146903  0  4.013024  0  -0.093101  0  -0.093503  -0.141815  0  3.977612  0
C  C81  1  0.45720841  0.64596459  0.81584479  1  0  -0.127933  0  3.753689  0  0  -0.144079  0  3.992048  0  0  -0.147102  0  4.01312  0  -0.09235  0  -0.093527  -0.142002  0  3.977702  0
C  C82  1  0.45408544  0.31934340  0.23506120  1  0  -0.080148  0  3.801521  0  0  -0.096595  0  4.054754  0  0  -0.097482  0  4.075423  0  -0.014316  0  -0.098338  -0.09588  0  4.040654  0
C  C83  1  0.54591884  0.68066080  0.73505094  1  0  -0.080148  0  3.801666  0  0  -0.096497  0  4.054898  0  0  -0.097381  0  4.075567  0  -0.014114  0  -0.098281  -0.095777  0  4.04078  0
C  C84  1  0.41247675  0.38523314  0.16946940  1  0  -0.074531  0  3.801541  0  0  -0.087376  0  4.052456  0  0  -0.088918  0  4.072641  0  -0.060124  0  -0.095739  -0.086346  0  4.038766  0
C  C85  1  0.58752776  0.61477179  0.66946188  1  0  -0.074563  0  3.801686  0  0  -0.087386  0  4.052553  0  0  -0.088928  0  4.072733  0  -0.060849  0  -0.09574  -0.086353  0  4.038862  0
C  C86  1  0.45448524  0.48508126  0.18614291  1  0  -0.119504  0  3.777172  0  0  -0.140621  0  4.027878  0  0  -0.142962  0  4.049365  0  -0.039171  0  -0.09513  -0.138909  0  4.013382  0
C  C87  1  0.54553068  0.51492950  0.68613538  1  0  -0.11966  0  3.776913  0  0  -0.140803  0  4.027673  0  0  -0.143142  0  4.049159  0  -0.038783  0  -0.095147  -0.139094  0  4.013179  0
C  C88  1  0.68290971  0.49028321  0.42129299  1  0  -0.326324  0  3.727676  0  0  -0.407868  0  3.957666  0  0  -0.409858  0  3.967743  0  -0.080781  0  -0.243668  -0.40622  0  3.950683  0
C  C89  1  0.31709663  0.50972317  0.92127932  1  0  -0.32635  0  3.727737  0  0  -0.407983  0  3.957686  0  0  -0.409964  0  3.967759  0  -0.081295  0  -0.243775  -0.406343  0  3.950708  0
C  C90  1  0.35024567  0.88460849  0.39379350  1  0  0.032767  0  3.770412  0  0  0.049446  0  4.008032  0  0  0.050774  0  4.032429  0  -0.157375  0  -0.012661  0.048349  0  3.991573  0
C  C91  1  0.64975680  0.11539863  0.89379624  1  0  0.032829  0  3.770377  0  0  0.049451  0  4.00811  0  0  0.050779  0  4.032502  0  -0.157288  0  -0.012584  0.048353  0  3.991652  0
C  C92  1  0.35631379  0.97546353  0.43806017  1  0  0.098032  0  3.718461  0  0  0.123518  0  3.948487  0  0  0.123977  0  3.971519  0  0.031218  0  -0.010758  0.123208  0  3.932863  0
C  C93  1  0.64368569  0.02453849  0.93805812  1  0  0.098048  0  3.718313  0  0  0.123505  0  3.948437  0  0  0.123965  0  3.971467  0  0.031445  0  -0.010752  0.123194  0  3.932814  0
C  C94  1  0.39883586  0.98069316  0.53156855  1  0  -0.123286  0  3.736803  0  0  -0.140859  0  3.978085  0  0  -0.144292  0  4.000112  0  -0.069441  0  -0.093527  -0.138539  0  3.963193  0
C  C95  1  0.60116110  0.01930521  0.03156991  1  0  -0.123269  0  3.736854  0  0  -0.140854  0  3.978149  0  0  -0.14429  0  4.000182  0  -0.069343  0  -0.093558  -0.138532  0  3.963248  0
C  C96  1  0.43197752  0.89978753  0.58107897  1  0  -0.060735  0  3.785115  0  0  -0.077088  0  4.040337  0  0  -0.077628  0  4.061243  0  0.001022  0  -0.093881  -0.076602  0  4.02612  0
C  C97  1  0.56802150  0.10021303  0.08107761  1  0  -0.060801  0  3.785237  0  0  -0.077157  0  4.040446  0  0  -0.0777  0  4.061363  0  0.001066  0  -0.093877  -0.076648  0  4.026237  0
C  C98  1  0.42541448  0.81082987  0.53643624  1  0  -0.07956  0  3.799221  0  0  -0.093465  0  4.048159  0  0  -0.095139  0  4.068615  0  -0.113961  0  -0.099108  -0.092323  0  4.034256  0
C  C99  1  0.57458750  0.18917142  0.03643624  1  0  -0.079502  0  3.799397  0  0  -0.093361  0  4.048315  0  0  -0.095037  0  4.068779  0  -0.113994  0  -0.09905  -0.092224  0  4.03441  0
C  C100  1  0.38556185  0.80357393  0.44323145  1  0  -0.135125  0  3.811774  0  0  -0.149158  0  4.054388  0  0  -0.152099  0  4.07607  0  -0.03545  0  -0.10122  -0.14704  0  4.039748  0
C  C101  1  0.61443581  0.19642663  0.94323282  1  0  -0.135192  0  3.812012  0  0  -0.149198  0  4.054644  0  0  -0.152139  0  4.076323  0  -0.035522  0  -0.101293  -0.147082  0  4.040008  0
C  C102  1  0.31168037  0.06265800  0.38790906  1  0  -0.33308  0  3.741359  0  0  -0.41505  0  3.974734  0  0  -0.416699  0  3.98422  0  -0.09128  0  -0.246514  -0.413624  0  3.96815  0
C  C103  1  0.68831616  0.93734329  0.88790701  1  0  -0.333005  0  3.741265  0  0  -0.41495  0  3.974626  0  0  -0.416597  0  3.98411  0  -0.091432  0  -0.246458  -0.413526  0  3.96804  0
C  C104  1  0.96605250  0.59026681  0.12378530  1  0  0.036899  0  3.739192  0  0  0.049696  0  3.98427  0  0  0.050044  0  4.009987  0  -0.171177  0  -0.012432  0.049207  0  3.966951  0
C  C105  1  0.03394217  0.40972865  0.62378256  1  0  0.036801  0  3.739366  0  0  0.04959  0  3.984451  0  0  0.049937  0  4.010163  0  -0.171149  0  -0.012495  0.049103  0  3.967131  0
C  C106  1  0.91514325  0.49105236  0.09956923  1  0  0.117141  0  3.710383  0  0  0.141455  0  3.941783  0  0  0.14224  0  3.965961  0  -0.025774  0  -0.007916  0.140972  0  3.925366  0
C  C107  1  0.08485461  0.50894456  0.59956923  1  0  0.117149  0  3.710349  0  0  0.141488  0  3.941717  0  0  0.142274  0  3.965892  0  -0.025785  0  -0.007931  0.141004  0  3.925299  0
C  C108  1  0.84331034  0.46955843  0.01164991  1  0  -0.137747  0  3.749775  0  0  -0.155494  0  3.99295  0  0  -0.159594  0  4.014715  0  0.024728  0  -0.098065  -0.152763  0  3.978217  0
C  C109  1  0.15669002  0.53043777  0.51164923  1  0  -0.13755  0  3.749686  0  0  -0.15529  0  3.992818  0  0  -0.159388  0  4.014591  0  0.024735  0  -0.097982  -0.152559  0  3.978084  0
C  C110  1  0.82009919  0.54219424  0.94923214  1  0  -0.059606  0  3.786027  0  0  -0.074498  0  4.039215  0  0  -0.074319  0  4.059722  0  -0.064136  0  -0.095912  -0.074463  0  4.025212  0
C  C111  1  0.17990573  0.45780340  0.44923145  1  0  -0.059848  0  3.786289  0  0  -0.074735  0  4.039489  0  0  -0.074557  0  4.059998  0  -0.064122  0  -0.095944  -0.074699  0  4.025485  0
C  C112  1  0.86588492  0.63979100  0.97504342  1  0  -0.077518  0  3.787502  0  0  -0.090281  0  4.032934  0  0  -0.093183  0  4.054248  0  -0.080111  0  -0.099438  -0.088325  0  4.018418  0
C  C113  1  0.13411361  0.36020374  0.47504205  1  0  -0.07742  0  3.787408  0  0  -0.090173  0  4.032839  0  0  -0.093085  0  4.054145  0  -0.080172  0  -0.099458  -0.088218  0  4.018324  0
C  C114  1  0.93875478  0.66352610  0.06184410  1  0  -0.134466  0  3.813678  0  0  -0.147757  0  4.055865  0  0  -0.150039  0  4.078335  0  0.009037  0  -0.09984  -0.145991  0  4.040705  0
C  C115  1  0.06124401  0.33647373  0.56184205  1  0  -0.134528  0  3.813707  0  0  -0.147843  0  4.055897  0  0  -0.150113  0  4.078384  0  0.009034  0  -0.099855  -0.146076  0  4.040737  0
C  C116  1  0.93432349  0.41039365  0.16484308  1  0  -0.339991  0  3.743351  0  0  -0.420761  0  3.977192  0  0  -0.422569  0  3.986639  0  -0.09035  0  -0.251488  -0.419245  0  3.970573  0
C  C117  1  0.06567437  0.58960327  0.66484034  1  0  -0.340035  0  3.743406  0  0  -0.420827  0  3.977214  0  0  -0.422637  0  3.986662  0  -0.090332  0  -0.251471  -0.419308  0  3.970596  0
C  C118  1  0.85810420  0.97443800  0.22090325  1  0  0.042194  0  3.755125  0  0  0.054202  0  4.001825  0  0  0.055027  0  4.026368  0  -0.157579  0  -0.013339  0.053423  0  3.985232  0
C  C119  1  0.14189639  0.02555892  0.72091145  1  0  0.042276  0  3.755223  0  0  0.054278  0  4.001913  0  0  0.055102  0  4.026459  0  -0.158085  0  -0.013348  0.0535  0  3.985318  0
C  C120  1  0.98681567  0.03555277  0.16546325  1  0  0.107519  0  3.719807  0  0  0.130503  0  3.954927  0  0  0.130987  0  3.979071  0  0.051902  0  -0.007108  0.130186  0  3.938538  0
C  C121  1  0.01318698  0.96444634  0.66547282  1  0  0.107494  0  3.71972  0  0  0.130527  0  3.954786  0  0  0.131013  0  3.97893  0  0.052745  0  -0.007101  0.130211  0  3.938395  0
C  C122  1  0.03051063  0.13413936  0.18969983  1  0  -0.128118  0  3.742088  0  0  -0.145978  0  3.984885  0  0  -0.149651  0  4.007347  0  -0.145402  0  -0.094581  -0.143473  0  3.969604  0
C  C123  1  0.96948540  0.86585610  0.68970872  1  0  -0.128442  0  3.741811  0  0  -0.146314  0  3.984627  0  0  -0.149987  0  4.007083  0  -0.145543  0  -0.094697  -0.143817  0  3.969356  0
C  C124  1  0.95266405  0.17177524  0.26606222  1  0  -0.071403  0  3.79866  0  0  -0.087348  0  4.051233  0  0  -0.0881  0  4.072429  0  -0.013452  0  -0.095521  -0.086675  0  4.036686  0
C  C125  1  0.04734154  0.82822022  0.76606769  1  0  -0.071167  0  3.798842  0  0  -0.087105  0  4.051401  0  0  -0.087856  0  4.072596  0  -0.013455  0  -0.095481  -0.086443  0  4.03685  0
C  C126  1  0.82876970  0.11012238  0.32123214  1  0  -0.083356  0  3.801224  0  0  -0.096548  0  4.050089  0  0  -0.099111  0  4.071306  0  -0.080819  0  -0.099527  -0.094803  0  4.035573  0
C  C127  1  0.17123699  0.88986798  0.82123624  1  0  -0.083244  0  3.801086  0  0  -0.096394  0  4.049961  0  0  -0.098956  0  4.071176  0  -0.081191  0  -0.099512  -0.094646  0  4.035449  0
C  C128  1  0.78194957  0.01174191  0.29856342  1  0  -0.12179  0  3.770857  0  0  -0.138928  0  4.021021  0  0  -0.140787  0  4.041965  0  -0.04282  0  -0.098846  -0.137517  0  4.006797  0
C  C129  1  0.21805739  0.98825355  0.79857026  1  0  -0.121947  0  3.770595  0  0  -0.139155  0  4.020782  0  0  -0.141009  0  4.041721  0  -0.042204  0  -0.098913  -0.137744  0  4.006558  0
C  C130  1  0.07428817  0.99758969  0.08312752  1  0  -0.33213  0  3.738979  0  0  -0.41426  0  3.971206  0  0  -0.415664  0  3.980418  0  -0.078511  0  -0.247044  -0.412991  0  3.964755  0
C  C131  1  0.92571150  0.00240432  0.58313641  1  0  -0.332093  0  3.739132  0  0  -0.414297  0  3.971432  0  0  -0.415704  0  3.98064  0  -0.078988  0  -0.246961  -0.413031  0  3.964981  0
S  S132  1  0.57597248  0.64419540  0.29880274  1  0  -0.423248  0  2.372736  0  0  -0.357221  0  2.737152  0  0  -0.376519  0  2.737011  0  -0.384876  0  -0.114446  -0.34359  0  2.736897  0
S  S133  1  0.42403000  0.35581172  0.79879521  1  0  -0.423271  0  2.372737  0  0  -0.357294  0  2.737177  0  0  -0.37659  0  2.737051  0  -0.384834  0  -0.114512  -0.343648  0  2.736888  0
S  S134  1  0.27875954  0.87611288  0.27750838  1  0  -0.39928  0  2.294462  0  0  -0.340096  0  2.649507  0  0  -0.358741  0  2.651171  0  -0.406698  0  -0.106877  -0.327102  0  2.648111  0
S  S135  1  0.72124587  0.12389059  0.77750974  1  0  -0.399376  0  2.294477  0  0  -0.340178  0  2.649575  0  0  -0.358832  0  2.65126  0  -0.40667  0  -0.106934  -0.327185  0  2.648183  0
S  S136  1  0.07302902  0.61844128  0.23228513  1  0  -0.404585  0  2.276161  0  0  -0.344965  0  2.633969  0  0  -0.362855  0  2.635043  0  -0.418386  0  -0.111229  -0.332414  0  2.632901  0
S  S137  1  0.92697044  0.38155637  0.73228308  1  0  -0.40453  0  2.276244  0  0  -0.34492  0  2.63407  0  0  -0.362811  0  2.635154  0  -0.418359  0  -0.111219  -0.332368  0  2.632996  0
S  S138  1  0.78625367  0.85096184  0.18840889  1  0  -0.456942  0  2.308131  0  0  -0.396125  0  2.667944  0  0  -0.414418  0  2.667714  0  -0.424647  0  -0.134901  -0.383205  0  2.667823  0
S  S139  1  0.21375032  0.14903289  0.68841436  1  0  -0.456889  0  2.308199  0  0  -0.396044  0  2.667955  0  0  -0.414331  0  2.667714  0  -0.424638  0  -0.134826  -0.38313  0  2.667845  0
