# generated using pymatgen
data_Zn2H21C32N5Cl3O8
_symmetry_space_group_name_H-M   'P 1'
_cell_length_a   11.13768348
_cell_length_b   14.02817567
_cell_length_c   26.46878913
_cell_angle_alpha   90.74450915
_cell_angle_beta   89.72084369
_cell_angle_gamma   89.75993563
_symmetry_Int_Tables_number   1
_chemical_formula_structural   Zn2H21C32N5Cl3O8
_chemical_formula_sum   'Zn4 H42 C64 N10 Cl6 O16'
_cell_volume   4135.08452814
_cell_formula_units_Z   2
loop_
 _symmetry_equiv_pos_site_id
 _symmetry_equiv_pos_as_xyz
  1  'x, y, z'
loop_
 _atom_site_type_symbol
 _atom_site_label
 _atom_site_symmetry_multiplicity
 _atom_site_fract_x
 _atom_site_fract_y
 _atom_site_fract_z
 _atom_site_occupancy
 _atom_site_pbe_bader_charge
 _atom_site_pbe_bader_spin_density
 _atom_site_pbe_cm5_charge
 _atom_site_pbe_ddec_charge
 _atom_site_pbe_ddec_spin_density
 _atom_site_pbe_ddec_sum_bond_order
 _atom_site_pbe_magmom
Zn  Zn0  1  0.49578275  0.40178630  0.49755372  1  1.27929  0  0.667884  0.812441  0  2.429022  0
Zn  Zn1  1  0.49422261  0.60106586  0.50448577  1  1.285496  0  0.668182  0.815574  0  2.406609  0
Zn  Zn2  1  0.50358304  0.60019339  0.07982440  1  1.283456  0  0.666621  0.813108  0  2.438898  0
Zn  Zn3  1  0.50436864  0.40153130  0.08194423  1  1.282397  0  0.666274  0.811069  0  2.398287  0
H  H4  1  0.46789846  0.25063793  0.41793924  1  0.180081  0  0.130896  0.12285  0  1.006617  0
H  H5  1  0.31183694  0.75070276  0.48231650  1  0.185995  0  0.129966  0.121102  0  1.018715  0
H  H6  1  0.67367451  0.75731387  0.51681425  1  0.167517  0  0.1287  0.107499  0  1.019707  0
H  H7  1  0.67849279  0.93682686  0.51187881  1  0.103965  0  0.119385  0.130229  0  0.972391  0
H  H8  1  0.52124414  0.24506520  0.57246327  1  0.156378  0  0.12948  0.11288  0  0.994099  0
H  H9  1  0.52161663  0.06512031  0.57257766  1  0.118734  0  0.120581  0.131918  0  0.969542  0
H  H10  1  0.49261601  0.28200255  0.23457136  1  0.006365  0  0.085302  0.091788  0  0.996137  0
H  H11  1  0.65025497  0.30280722  0.23793448  1  0.054399  0  0.088627  0.094909  0  0.989243  0
H  H12  1  0.63999402  0.29109607  0.33287143  1  0.041326  0  0.085198  0.090422  0  0.994766  0
H  H13  1  0.48154990  0.27328266  0.32902200  1  0.036855  0  0.080919  0.082914  0  1.01647  0
H  H14  1  0.57914493  0.35285699  0.66036139  1  0.069898  0  0.105342  0.12152  0  0.999791  0
H  H15  1  0.59753501  0.62892347  0.91705071  1  0.096817  0  0.106116  0.123687  0  0.998186  0
H  H16  1  0.39016274  0.37196175  0.92230053  1  0.09325  0  0.106963  0.114392  0  0.990389  0
H  H17  1  0.38682394  0.36563163  0.82776670  1  0.09834  0  0.102897  0.108431  0  0.989189  0
H  H18  1  0.38458827  0.61780248  0.66308683  1  0.072296  0  0.107278  0.114275  0  0.990719  0
H  H19  1  0.38857455  0.61830994  0.75754984  1  0.087763  0  0.103228  0.10865  0  0.988988  0
H  H20  1  0.87546897  0.73540513  0.47415536  1  0.056379  0  0.084999  0.087606  0  0.999387  0
H  H21  1  0.89057787  0.73184890  0.54140823  1  0.034603  0  0.085969  0.089185  0  0.995556  0
H  H22  1  0.11473113  0.73235458  0.53190103  1  0.044143  0  0.084522  0.089197  0  0.99931  0
H  H23  1  0.09906168  0.73416442  0.46474368  1  0.015729  0  0.08316  0.08674  0  1.006179  0
H  H24  1  0.53349832  0.75821945  0.15654243  1  0.171566  0  0.128398  0.11634  0  1.016275  0
H  H25  1  0.32248306  0.25018476  0.10055059  1  0.174545  0  0.130492  0.120987  0  1.013061  0
H  H26  1  0.68239887  0.24775434  0.06100540  1  0.161003  0  0.129377  0.107317  0  1.014156  0
H  H27  1  0.68817523  0.06775128  0.05781623  1  0.0853  0  0.119409  0.131533  0  0.970509  0
H  H28  1  0.48844244  0.75242581  0.00127814  1  0.172259  0  0.130602  0.113298  0  0.988809  0
H  H29  1  0.48464821  0.93231737  0.99795838  1  0.092828  0  0.121854  0.134759  0  0.966606  0
H  H30  1  0.88622679  0.27209700  0.11381892  1  0.017174  0  0.0867  0.091041  0  0.99502  0
H  H31  1  0.90060321  0.26954070  0.04646289  1  0.031057  0  0.08507  0.087525  0  0.998748  0
H  H32  1  0.12456610  0.26896340  0.05438200  1  0.058676  0  0.083531  0.087541  0  1.001359  0
H  H33  1  0.11045988  0.27378989  0.12166874  1  0.029663  0  0.084591  0.088887  0  1.002764  0
H  H34  1  0.50982578  0.67047599  0.38435855  1  0.506437  0  0.285684  0.29646  0  1.009794  0
H  H35  1  0.53596227  0.73299900  0.32995338  1  0.421044  0  0.292977  0.280626  0  0.970158  0
H  H36  1  0.45700778  0.67830738  0.20941282  1  0.463438  0  0.284533  0.286875  0  1.021459  0
H  H37  1  0.42178278  0.72439753  0.26800273  1  0.431222  0  0.291895  0.279869  0  0.973134  0
H  H38  1  0.20461012  0.33856576  0.49633347  1  0.4671  0  0.286486  0.298942  0  1.007351  0
H  H39  1  0.07256900  0.28382038  0.51358707  1  0.42693  0  0.292477  0.277948  0  0.976462  0
H  H40  1  0.78479738  0.34074753  0.49372393  1  0.480573  0  0.286613  0.29869  0  1.009131  0
H  H41  1  0.91593309  0.28759538  0.47274377  1  0.419102  0  0.293113  0.279894  0  0.972119  0
H  H42  1  0.21168242  0.66506126  0.07691220  1  0.462937  0  0.285822  0.297951  0  1.010517  0
H  H43  1  0.07845287  0.71850076  0.06037049  1  0.420978  0  0.291952  0.277459  0  0.976794  0
H  H44  1  0.79248862  0.66445336  0.08583911  1  0.498817  0  0.285829  0.298207  0  1.011067  0
H  H45  1  0.92428401  0.71925484  0.10320533  1  0.418048  0  0.292865  0.279813  0  0.972811  0
C  C46  1  0.48144025  0.48570127  0.59938733  1  1.535048  0  0.217703  0.600137  0  4.162978  0
C  C47  1  0.25866237  0.51253714  0.49529065  1  1.476407  0  0.215756  0.614849  0  4.13909  0
C  C48  1  0.51507713  0.49404382  0.40156401  1  1.537902  0  0.215635  0.617345  0  4.139661  0
C  C49  1  0.73125672  0.51364055  0.50578425  1  1.502263  0  0.214722  0.614491  0  4.143716  0
C  C50  1  0.49553782  0.50620051  0.98190061  1  1.594008  0  0.216038  0.598433  0  4.165172  0
C  C51  1  0.26758231  0.49238594  0.08422698  1  1.512667  0  0.215573  0.615386  0  4.143007  0
C  C52  1  0.51375207  0.51268781  0.18013027  1  1.526887  0  0.214915  0.613792  0  4.141737  0
C  C53  1  0.74011652  0.49072791  0.07821314  1  1.555972  0  0.216348  0.616335  0  4.140254  0
C  C54  1  0.47795673  0.20654303  0.45130885  1  0.567244  0  0.058126  0.040979  0  3.87341  0
C  C55  1  0.47598580  0.10711070  0.44823554  1  0.027472  0  0.021566  0.057551  0  4.036322  0
C  C56  1  0.39102629  0.79490585  0.48807385  1  0.582985  0  0.058227  0.041782  0  3.873025  0
C  C57  1  0.38641653  0.89398677  0.48418439  1  0.014054  0  0.021458  0.058055  0  4.033938  0
C  C58  1  0.59399931  0.79920907  0.50797307  1  0.456691  0  0.05851  0.093799  0  3.907115  0
C  C59  1  0.59550056  0.89800245  0.50492891  1  -0.036309  0  -0.075425  -0.161346  0  3.949003  0
C  C60  1  0.50948578  0.20286626  0.53798031  1  0.542973  0  0.057513  0.094916  0  3.911259  0
C  C61  1  0.50919804  0.10385072  0.53754329  1  -0.089507  0  -0.0738  -0.159568  0  3.948232  0
C  C62  1  0.49096707  0.05341674  0.49220809  1  0.071049  0  0.00649  0.046997  0  3.999418  0
C  C63  1  0.49052132  0.94793368  0.49272718  1  0.010095  0  0.00516  0.043474  0  4.002142  0
C  C64  1  0.52042093  0.51248758  0.23606078  1  -0.008267  0  -0.031573  -0.188263  0  3.975023  0
C  C65  1  0.52063081  0.50267665  0.34588733  1  0.010062  0  -0.031777  -0.189428  0  3.979411  0
C  C66  1  0.53984300  0.42737705  0.26218845  1  -0.034857  0  -0.024333  0.043232  0  3.958093  0
C  C67  1  0.50837268  0.59107565  0.32082502  1  0.418096  0  0.092224  0.186026  0  4.006951  0
C  C68  1  0.53669879  0.42232957  0.31435107  1  -0.030417  0  -0.026753  0.037173  0  3.96358  0
C  C69  1  0.50255824  0.59506134  0.26675916  1  0.416912  0  0.091519  0.185883  0  4.004967  0
C  C70  1  0.56281572  0.32154266  0.25490533  1  0.020537  0  -0.157629  -0.187134  0  3.904863  0
C  C71  1  0.55706964  0.31539200  0.31452481  1  -0.056665  0  -0.160014  -0.194345  0  3.915088  0
C  C72  1  0.48105296  0.48525142  0.65604325  1  -0.01475  0  -0.014109  -0.009555  0  3.970815  0
C  C73  1  0.49330789  0.50103292  0.92530456  1  -0.039787  0  -0.013777  -0.006936  0  3.970308  0
C  C74  1  0.53686857  0.41088560  0.68169004  1  0.068221  0  -0.091754  -0.163602  0  3.968647  0
C  C75  1  0.54155716  0.41288617  0.73433774  1  0.01358  0  0.012823  0.107419  0  4.01734  0
C  C76  1  0.55120129  0.57131690  0.89740960  1  0.070185  0  -0.09246  -0.165617  0  3.971623  0
C  C77  1  0.55167668  0.56607831  0.84480592  1  -0.054474  0  0.01331  0.107185  0  4.016381  0
C  C78  1  0.43496626  0.42625538  0.90010383  1  -0.010037  0  -0.086823  -0.09712  0  3.986597  0
C  C79  1  0.43389165  0.42285945  0.84756565  1  -0.00872  0  -0.089353  -0.119524  0  4.00325  0
C  C80  1  0.42783137  0.56032682  0.68351669  1  0.091835  0  -0.085908  -0.093742  0  3.985673  0
C  C81  1  0.43092035  0.56049946  0.73597779  1  -0.092065  0  -0.08869  -0.118752  0  4.005893  0
C  C82  1  0.48875768  0.48767826  0.76268135  1  -0.008244  0  -0.012876  0.015918  0  3.997075  0
C  C83  1  0.49236034  0.49216716  0.81862935  1  0.035467  0  -0.012812  0.017356  0  3.995473  0
C  C84  1  0.86413725  0.51032815  0.50287902  1  0.052244  0  -0.031729  -0.190356  0  3.978177  0
C  C85  1  0.12562330  0.50963304  0.49544039  1  0.028844  0  -0.032062  -0.18965  0  3.974681  0
C  C86  1  0.93296514  0.59404295  0.50283189  1  -0.031581  0  -0.027625  0.03662  0  3.967126  0
C  C87  1  0.05929403  0.42342247  0.49572542  1  0.504862  0  0.094091  0.187599  0  4.009567  0
C  C88  1  0.05676072  0.59377084  0.49831758  1  0.047351  0  -0.027101  0.037403  0  3.964105  0
C  C89  1  0.93026050  0.42386877  0.49797106  1  0.354983  0  0.093995  0.188302  0  4.004932  0
C  C90  1  0.92425071  0.70187840  0.50537566  1  -0.103097  0  -0.158991  -0.189354  0  3.913612  0
C  C91  1  0.06565138  0.70155745  0.49966656  1  -0.031998  0  -0.159692  -0.192325  0  3.914837  0
C  C92  1  0.52000724  0.79906361  0.12230549  1  0.583098  0  0.055623  0.040165  0  3.882079  0
C  C93  1  0.51616850  0.89840379  0.12383562  1  0.013526  0  0.020903  0.056492  0  4.040971  0
C  C94  1  0.40142576  0.20673758  0.09169761  1  0.568782  0  0.059535  0.040826  0  3.875092  0
C  C95  1  0.39763249  0.10732927  0.09132305  1  0.077304  0  0.020668  0.055866  0  4.039709  0
C  C96  1  0.60328906  0.20479023  0.06887023  1  0.487463  0  0.062106  0.100654  0  3.898801  0
C  C97  1  0.60536789  0.10569888  0.06734198  1  0.005107  0  -0.07424  -0.161808  0  3.949355  0
C  C98  1  0.49611525  0.79686598  0.03521993  1  0.509322  0  0.059395  0.097405  0  3.904386  0
C  C99  1  0.49414116  0.89598405  0.03387672  1  -0.074214  0  -0.072969  -0.159843  0  3.946135  0
C  C100  1  0.50301154  0.94908594  0.07882333  1  0.02393  0  0.007598  0.047232  0  4.007641  0
C  C101  1  0.50135139  0.05470300  0.07895731  1  -0.004046  0  0.004549  0.043325  0  4.009439  0
C  C102  1  0.87301628  0.49408567  0.07968650  1  -0.013439  0  -0.031481  -0.190579  0  3.978718  0
C  C103  1  0.13453072  0.49501466  0.08451823  1  -0.0309  0  -0.03224  -0.191572  0  3.977819  0
C  C104  1  0.94257500  0.41039477  0.08112236  1  -0.017058  0  -0.027582  0.036428  0  3.967724  0
C  C105  1  0.06737945  0.58110388  0.08228309  1  0.405257  0  0.093309  0.18765  0  4.008686  0
C  C106  1  0.06648570  0.41084198  0.08466350  1  0.051398  0  -0.026995  0.039285  0  3.961367  0
C  C107  1  0.93838662  0.58076534  0.08162534  1  0.394849  0  0.093529  0.187972  0  4.00593  0
C  C108  1  0.93452193  0.30257616  0.08151040  1  0.038447  0  -0.158274  -0.189186  0  3.910979  0
C  C109  1  0.07607591  0.30307228  0.08615753  1  -0.094883  0  -0.15986  -0.194467  0  3.916283  0
N  N110  1  0.49389724  0.25286528  0.49543899  1  -1.239825  0  -0.309548  -0.174658  0  3.500224  0
N  N111  1  0.49293292  0.74915455  0.49984126  1  -1.22748  0  -0.308999  -0.171101  0  3.49972  0
N  N112  1  0.50847883  0.74962847  0.07887972  1  -1.214376  0  -0.308595  -0.175963  0  3.497515  0
N  N113  1  0.50279273  0.25369454  0.08084051  1  -1.233997  0  -0.306021  -0.165868  0  3.502538  0
N  N114  1  0.49346086  0.67742978  0.34659832  1  -1.254492  0  -0.612708  -0.621746  0  3.326254  0
N  N115  1  0.47997081  0.68455199  0.24661593  1  -1.234501  0  -0.615929  -0.628958  0  3.34261  0
N  N116  1  0.11347649  0.33430731  0.49235387  1  -1.222443  0  -0.610774  -0.618152  0  3.330456  0
N  N117  1  0.87601909  0.33488934  0.49706759  1  -1.230371  0  -0.613856  -0.623821  0  3.327973  0
N  N118  1  0.12094721  0.67033389  0.08255135  1  -1.214018  0  -0.61449  -0.622464  0  3.328213  0
N  N119  1  0.88333675  0.66978871  0.08080370  1  -1.244557  0  -0.614685  -0.624421  0  3.327908  0
Cl  Cl120  1  0.45882925  0.05341105  0.38991922  1  -0.176193  0  0.010879  -0.056163  0  1.490945  0
Cl  Cl121  1  0.25077332  0.94731979  0.47122347  1  -0.180731  0  0.011665  -0.056905  0  1.498067  0
Cl  Cl122  1  0.61839017  0.32174912  0.76436838  1  -0.226482  0  -0.035753  -0.112765  0  1.433439  0
Cl  Cl123  1  0.63101953  0.65222726  0.81200042  1  -0.228974  0  -0.034569  -0.111316  0  1.436029  0
Cl  Cl124  1  0.52862408  0.95658138  0.18117123  1  -0.173796  0  0.011248  -0.051311  0  1.468944  0
Cl  Cl125  1  0.26494667  0.05112694  0.10594522  1  -0.184492  0  0.008476  -0.059587  0  1.470644  0
O  O126  1  0.49176738  0.40573539  0.57639967  1  -1.159618  0  -0.3189  -0.556418  0  2.326112  0
O  O127  1  0.47216587  0.56693111  0.57882328  1  -1.166536  0  -0.316198  -0.544168  0  2.322127  0
O  O128  1  0.30910510  0.59397767  0.49583810  1  -1.167823  0  -0.313235  -0.539194  0  2.315066  0
O  O129  1  0.31691471  0.43292958  0.49542935  1  -1.180765  0  -0.317503  -0.556412  0  2.366674  0
O  O130  1  0.51549482  0.57076886  0.42864532  1  -1.178309  0  -0.315726  -0.559007  0  2.373062  0
O  O131  1  0.50902367  0.41044625  0.41989933  1  -1.158022  0  -0.317437  -0.543394  0  2.306816  0
O  O132  1  0.67390862  0.43440229  0.50222754  1  -1.17549  0  -0.31661  -0.554055  0  2.382297  0
O  O133  1  0.68003016  0.59470439  0.51133378  1  -1.164261  0  -0.315861  -0.544313  0  2.30175  0
O  O134  1  0.51146184  0.58836765  0.00198305  1  -1.170505  0  -0.320389  -0.556002  0  2.326057  0
O  O135  1  0.48196750  0.42854990  0.00541474  1  -1.163048  0  -0.315844  -0.548034  0  2.312388  0
O  O136  1  0.31926782  0.41200465  0.08994012  1  -1.163568  0  -0.312621  -0.537378  0  2.307924  0
O  O137  1  0.32429080  0.57114146  0.07751649  1  -1.175184  0  -0.318819  -0.55726  0  2.373602  0
O  O138  1  0.52618146  0.43283635  0.15719998  1  -1.156594  0  -0.31216  -0.53528  0  2.318105  0
O  O139  1  0.49523164  0.59242569  0.15767857  1  -1.175478  0  -0.321278  -0.559915  0  2.346322  0
O  O140  1  0.68208168  0.56994472  0.08303288  1  -1.175159  0  -0.317591  -0.55584  0  2.381151  0
O  O141  1  0.68958754  0.40989139  0.07260312  1  -1.165147  0  -0.313136  -0.54014  0  2.301036  0
