# generated using pymatgen
data_Zr6H19C50Br10ClO32
_symmetry_space_group_name_H-M   'P 1'
_cell_length_a   14.78321447
_cell_length_b   14.80335236
_cell_length_c   14.83826975
_cell_angle_alpha   60.07166339
_cell_angle_beta   59.94598755
_cell_angle_gamma   60.18625068
_symmetry_Int_Tables_number   1
_chemical_formula_structural   Zr6H19C50Br10ClO32
_chemical_formula_sum   'Zr6 H19 C50 Br10 Cl1 O32'
_cell_volume   2299.65054451
_cell_formula_units_Z   1
loop_
 _symmetry_equiv_pos_site_id
 _symmetry_equiv_pos_as_xyz
  1  'x, y, z'
loop_
 _atom_site_type_symbol
 _atom_site_label
 _atom_site_symmetry_multiplicity
 _atom_site_fract_x
 _atom_site_fract_y
 _atom_site_fract_z
 _atom_site_occupancy
 _atom_site_pbe_bader_charge
 _atom_site_pbe_bader_spin_density
 _atom_site_pbe_cm5_charge
 _atom_site_pbe_ddec_charge
 _atom_site_pbe_ddec_spin_density
 _atom_site_pbe_ddec_sum_bond_order
 _atom_site_pbe_magmom
Zr  Zr0  1  0.87674179  0.88563975  0.61407571  1  2.636279  0  1.629793  2.377136  0  2.763844  0
Zr  Zr1  1  0.12305274  0.11660520  0.38309172  1  2.635843  0  1.632497  2.382149  0  2.761382  0
Zr  Zr2  1  0.11552134  0.87833730  0.62127506  1  2.63594  0  1.627495  2.376029  0  2.748609  0
Zr  Zr3  1  0.88442198  0.12455612  0.37527137  1  2.635099  0  1.62368  2.373677  0  2.739196  0
Zr  Zr4  1  0.11880378  0.88192610  0.37945808  1  2.636683  0  1.627613  2.380344  0  2.755301  0
Zr  Zr5  1  0.88049508  0.12027993  0.61800127  1  2.63961  0  1.627068  2.38078  0  2.750537  0
H  H6  1  0.08745599  0.71963995  0.59255539  1  0.612259  0  0.332278  0.424095  0  0.857761  0
H  H7  1  0.09995096  0.09526566  0.21696179  1  0.628045  0  0.33254  0.426191  0  0.851997  0
H  H8  1  0.09400284  0.08925370  0.59838478  1  0.594163  0  0.3313  0.423652  0  0.854852  0
H  H9  1  0.71740016  0.10101633  0.58736171  1  0.594533  0  0.331068  0.423788  0  0.853728  0
H  H10  1  0.15247978  0.57689315  0.38589632  1  0.117693  0  0.10513  0.122485  0  1.025823  0
H  H11  1  0.84049538  0.43114387  0.60620603  1  0.175777  0  0.102927  0.120051  0  1.036086  0
H  H12  1  0.62552881  0.10325083  0.93285022  1  0.128633  0  0.103731  0.120837  0  1.032761  0
H  H13  1  0.38812611  0.88300854  0.07848761  1  0.129691  0  0.104358  0.121319  0  1.028528  0
H  H14  1  0.85810807  0.13306531  0.09765929  1  0.153303  0  0.107204  0.122435  0  1.024798  0
H  H15  1  0.13077982  0.85746704  0.91104132  1  0.111628  0  0.110307  0.128711  0  1.010306  0
H  H16  1  0.59992151  0.41287955  0.35550487  1  0.145167  0  0.108343  0.123427  0  1.024123  0
H  H17  1  0.41103740  0.60069396  0.62994487  1  0.126078  0  0.108983  0.127183  0  1.015578  0
H  H18  1  0.13454388  0.59989377  0.91161666  1  0.112719  0  0.108856  0.13094  0  0.997055  0
H  H19  1  0.73694219  0.61826233  0.97198862  1  0.058099  0  0.090971  0.103452  0  1.007763  0
H  H20  1  0.82442133  0.53359537  0.88684101  1  0.056719  0  0.092236  0.103924  0  0.999926  0
H  H21  1  0.83621496  0.36387504  0.05619772  1  0.059047  0  0.096592  0.10981  0  0.986437  0
H  H22  1  0.74865083  0.44860698  0.14158500  1  0.065061  0  0.096576  0.110422  0  0.989689  0
H  H23  1  0.60489154  0.86432303  0.62580600  1  0.091502  0  0.097708  0.116667  0  1.052548  0
H  H24  1  0.40362851  0.12920416  0.36308047  1  0.132801  0  0.097284  0.117548  0  1.053794  0
C  C25  1  0.98670518  0.70632648  0.49479313  1  1.591589  0  0.236468  0.650179  0  4.088388  0
C  C26  1  0.31270206  0.99540242  0.20536576  1  1.568676  0  0.23799  0.651639  0  4.085023  0
C  C27  1  0.00650025  0.30158637  0.49753142  1  1.564768  0  0.237479  0.650345  0  4.085213  0
C  C28  1  0.69558785  0.99760290  0.80106657  1  1.580899  0  0.236878  0.650359  0  4.087626  0
C  C29  1  0.98937190  0.70269083  0.80481510  1  1.532164  0  0.238323  0.64795  0  4.097152  0
C  C30  1  0.70078057  0.00968441  0.48267268  1  1.589039  0  0.238435  0.653599  0  4.079147  0
C  C31  1  0.00294245  0.30749484  0.19994765  1  1.535194  0  0.235409  0.656161  0  4.09589  0
C  C32  1  0.30680276  0.98503944  0.50697680  1  1.57843  0  0.237197  0.650794  0  4.081919  0
C  C33  1  0.30295295  0.69786397  0.49395309  1  1.581907  0  0.238253  0.65167  0  4.088489  0
C  C34  1  0.98751724  0.99708853  0.80989893  1  1.588916  0  0.237479  0.650299  0  4.088325  0
C  C35  1  0.70537321  0.31277632  0.49429589  1  1.552488  0  0.236884  0.650061  0  4.089025  0
C  C36  1  0.00430187  0.99650587  0.19550841  1  1.592537  0  0.237119  0.65089  0  4.08671  0
C  C37  1  0.00732159  0.40376168  0.49488270  1  0.04834  0  -0.011918  -0.058695  0  3.907572  0
C  C38  1  0.98584277  0.60398940  0.49773753  1  0.062583  0  -0.012107  -0.060382  0  3.912365  0
C  C39  1  0.09678230  0.44491166  0.43314864  1  -0.124695  0  -0.006577  0.10063  0  3.91423  0
C  C40  1  0.89738924  0.56130998  0.56164431  1  -0.155977  0  -0.007596  0.098462  0  3.915632  0
C  C41  1  0.08420166  0.54398101  0.43425599  1  0.041347  0  -0.085533  -0.134984  0  3.955227  0
C  C42  1  0.90903926  0.46365802  0.55843850  1  0.027688  0  -0.085879  -0.13503  0  3.954568  0
C  C43  1  0.41519585  0.99555008  0.10512008  1  0.049871  0  -0.012243  -0.059032  0  3.906271  0
C  C44  1  0.59737858  0.99216171  0.90520102  1  -0.02778  0  -0.011932  -0.059579  0  3.91151  0
C  C45  1  0.48350825  0.05802297  0.06340825  1  -0.111023  0  -0.006331  0.10049  0  3.913777  0
C  C46  1  0.52962335  0.92894175  0.94740826  1  -0.072601  0  -0.008151  0.097883  0  3.917538  0
C  C47  1  0.57244480  0.05525645  0.96541592  1  0.052552  0  -0.08457  -0.131408  0  3.949886  0
C  C48  1  0.44111438  0.93114956  0.04573065  1  0.039964  0  -0.086284  -0.138455  0  3.961201  0
C  C49  1  0.98555579  0.99997631  0.91072223  1  0.051083  0  -0.011786  -0.061757  0  3.905108  0
C  C50  1  0.00396003  0.99127427  0.09718075  1  -0.018291  0  -0.011662  -0.060362  0  3.907466  0
C  C51  1  0.90791000  0.07896626  0.96423859  1  -0.129663  0  -0.007067  0.099417  0  3.915351  0
C  C52  1  0.08170173  0.91235294  0.04364579  1  -0.063788  0  -0.005252  0.101178  0  3.914949  0
C  C53  1  0.91812411  0.07294055  0.05550990  1  0.034455  0  -0.085562  -0.136736  0  3.960724  0
C  C54  1  0.07094205  0.91786079  0.95289823  1  0.033795  0  -0.084226  -0.134516  0  3.950436  0
C  C55  1  0.40722040  0.59981370  0.48849613  1  0.007665  0  -0.011177  -0.061034  0  3.906684  0
C  C56  1  0.60379388  0.41372346  0.49693961  1  -0.002907  0  -0.011669  -0.060563  0  3.906849  0
C  C57  1  0.46200485  0.54615100  0.40965696  1  -0.113744  0  -0.006322  0.099801  0  3.916661  0
C  C58  1  0.54931887  0.46776699  0.57539095  1  -0.076478  0  -0.006054  0.100608  0  3.914438  0
C  C59  1  0.55792368  0.45535061  0.41530425  1  0.065644  0  -0.085909  -0.138263  0  3.961628  0
C  C60  1  0.45338799  0.55861327  0.56975698  1  0.042875  0  -0.084486  -0.134003  0  3.951842  0
C  C61  1  0.98972028  0.60382675  0.90623320  1  0.08085  0  -0.010646  -0.064364  0  3.978085  0
C  C62  1  0.00190276  0.40884685  0.10074427  1  -0.000657  0  -0.015737  -0.144562  0  3.916045  0
C  C63  1  0.91305515  0.54899668  0.96010132  1  -0.070377  0  -0.004345  0.06123  0  3.879056  0
C  C64  1  0.07984589  0.46548251  0.04515264  1  0.081215  0  0.022836  0.140445  0  4.006493  0
C  C65  1  0.91988357  0.45506462  0.05383025  1  0.001177  0  -0.000565  0.077295  0  3.869898  0
C  C66  1  0.07292296  0.55961117  0.95146062  1  0.007512  0  -0.090869  -0.169138  0  3.957208  0
C  C67  1  0.81199685  0.54679910  0.95943624  1  -0.014318  0  -0.152347  -0.19693  0  3.86622  0
C  C68  1  0.81931490  0.44038505  0.06567771  1  -0.029005  0  -0.150219  -0.194011  0  3.861254  0
C  C69  1  0.40894563  0.98516700  0.50554661  1  0.074286  0  -0.011188  -0.055777  0  3.899471  0
C  C70  1  0.59999922  0.00810872  0.48284907  1  0.019507  0  -0.011689  -0.057835  0  3.901403  0
C  C71  1  0.46648003  0.90942555  0.58096352  1  -0.140942  0  -0.007772  0.101897  0  3.916668  0
C  C72  1  0.54220952  0.08407924  0.40771349  1  -0.054048  0  -0.007327  0.102603  0  3.914777  0
C  C73  1  0.55969602  0.92210558  0.56826929  1  0.042835  0  -0.090174  -0.143346  0  3.974665  0
C  C74  1  0.44914737  0.07126168  0.42029072  1  0.023379  0  -0.091012  -0.144579  0  3.979165  0
Br  Br75  1  0.24069748  0.37186831  0.35042711  1  -0.024047  0  0.035212  -0.053182  0  1.519724  0
Br  Br76  1  0.75674177  0.62811979  0.65379488  1  -0.031405  0  0.044084  -0.04794  0  1.524542  0
Br  Br77  1  0.46743704  0.14677597  0.13235277  1  -0.022563  0  0.041118  -0.047799  0  1.541806  0
Br  Br78  1  0.54471942  0.84149823  0.87730129  1  -0.031835  0  0.040876  -0.051524  0  1.497401  0
Br  Br79  1  0.78573064  0.19838327  0.92221798  1  -0.027175  0  0.041067  -0.044627  0  1.468517  0
Br  Br80  1  0.20569376  0.79498234  0.08374361  1  -0.027146  0  0.038765  -0.0453  0  1.453098  0
Br  Br81  1  0.41571632  0.58632356  0.29190763  1  -0.028748  0  0.039593  -0.044286  0  1.455095  0
Br  Br82  1  0.59555952  0.42736760  0.69313346  1  -0.022984  0  0.042214  -0.043478  0  1.470766  0
Br  Br83  1  0.42704217  0.78723328  0.70354458  1  -0.025818  0  0.041863  -0.039462  0  1.463727  0
Br  Br84  1  0.58021127  0.20775175  0.28649468  1  -0.031225  0  0.04211  -0.037484  0  1.468522  0
Cl  Cl85  1  0.18898173  0.42337115  0.08697284  1  -0.181145  0  -0.01367  -0.081939  0  1.567333  0
O  O86  1  0.91177866  0.74627116  0.57128067  1  -1.186876  0  -0.359821  -0.6186  0  2.36646  0
O  O87  1  0.27056545  0.07302516  0.24391548  1  -1.175412  0  -0.35789  -0.614385  0  2.358871  0
O  O88  1  0.08311875  0.25983219  0.42291223  1  -1.176931  0  -0.357488  -0.61367  0  2.364609  0
O  O89  1  0.73500940  0.92390197  0.75821428  1  -1.18157  0  -0.360167  -0.620219  0  2.373525  0
O  O90  1  0.06806424  0.74095276  0.76388765  1  -1.185164  0  -0.368445  -0.626312  0  2.301155  0
O  O91  1  0.74085110  0.08647814  0.40832485  1  -1.177183  0  -0.35572  -0.617315  0  2.343372  0
O  O92  1  0.92630423  0.26803033  0.23556224  1  -1.16965  0  -0.361212  -0.619978  0  2.278832  0
O  O93  1  0.26421199  0.91072077  0.58375943  1  -1.177457  0  -0.355647  -0.617087  0  2.345267  0
O  O94  1  0.26029574  0.73746765  0.42017039  1  -1.175724  0  -0.36083  -0.620134  0  2.379692  0
O  O95  1  0.91347523  0.07348406  0.76741720  1  -1.179194  0  -0.360391  -0.619874  0  2.375623  0
O  O96  1  0.74494556  0.26977411  0.57118244  1  -1.181277  0  -0.35927  -0.6181  0  2.375379  0
O  O97  1  0.08068849  0.92231911  0.23563109  1  -1.183531  0  -0.360481  -0.618703  0  2.379794  0
O  O98  1  0.06481219  0.91963634  0.77240882  1  -1.180966  0  -0.344092  -0.604697  0  2.267649  0
O  O99  1  0.74344039  0.27567063  0.41642815  1  -1.166998  0  -0.344653  -0.607354  0  2.271531  0
O  O100  1  0.92861441  0.07554839  0.23138352  1  -1.180582  0  -0.344353  -0.607266  0  2.272037  0
O  O101  1  0.26384400  0.73403549  0.57273099  1  -1.179165  0  -0.344965  -0.606241  0  2.267797  0
O  O102  1  0.91362385  0.74106116  0.76495025  1  -1.171626  0  -0.339183  -0.593642  0  2.241959  0
O  O103  1  0.26871527  0.06234634  0.43016566  1  -1.17849  0  -0.351015  -0.60949  0  2.32571  0
O  O104  1  0.07740890  0.26543943  0.24229030  1  -1.169192  0  -0.349963  -0.607933  0  2.348515  0
O  O105  1  0.73834814  0.93285863  0.56002294  1  -1.185587  0  -0.351682  -0.61009  0  2.325802  0
O  O106  1  0.73288377  0.07562901  0.76297979  1  -1.171109  0  -0.345238  -0.60587  0  2.27662  0
O  O107  1  0.06473886  0.74381675  0.41805932  1  -1.180062  0  -0.3452  -0.606254  0  2.279086  0
O  O108  1  0.27273624  0.91970702  0.24221802  1  -1.177512  0  -0.347369  -0.608665  0  2.282199  0
O  O109  1  0.92817932  0.26429556  0.57419327  1  -1.16965  0  -0.347628  -0.608551  0  2.281315  0
O  O110  1  0.79763672  0.07341596  0.56129803  1  -1.223879  0  -0.692445  -1.065928  0  2.352977  0
O  O111  1  0.06718526  0.06355105  0.57070395  1  -1.220141  0  -0.693694  -1.067482  0  2.361269  0
O  O112  1  0.07170445  0.06800468  0.29696775  1  -1.256677  0  -0.694705  -1.070529  0  2.361751  0
O  O113  1  0.06235918  0.79964977  0.56555288  1  -1.241461  0  -0.695183  -1.070367  0  2.370349  0
O  O114  1  0.14826660  0.94833161  0.45235973  1  -1.199318  0  -0.791995  -1.148521  0  2.129224  0
O  O115  1  0.95012366  0.95531046  0.44582136  1  -1.200287  0  -0.791207  -1.147675  0  2.127662  0
O  O116  1  0.95354069  0.14904031  0.44953431  1  -1.195594  0  -0.792221  -1.149401  0  2.135773  0
O  O117  1  0.94711232  0.95181195  0.64684050  1  -1.198951  0  -0.79219  -1.15024  0  2.134738  0
