# generated using pymatgen
data_Zn4H28(C12O5)3
_symmetry_space_group_name_H-M   'P 1'
_cell_length_a   18.64051498
_cell_length_b   18.63516887
_cell_length_c   21.74265861
_cell_angle_alpha   64.62181437
_cell_angle_beta   64.63386768
_cell_angle_gamma   89.98952195
_symmetry_Int_Tables_number   1
_chemical_formula_structural   Zn4H28(C12O5)3
_chemical_formula_sum   'Zn8 H56 C72 O30'
_cell_volume   6008.33327066
_cell_formula_units_Z   2
loop_
 _symmetry_equiv_pos_site_id
 _symmetry_equiv_pos_as_xyz
  1  'x, y, z'
loop_
 _atom_site_type_symbol
 _atom_site_label
 _atom_site_symmetry_multiplicity
 _atom_site_fract_x
 _atom_site_fract_y
 _atom_site_fract_z
 _atom_site_occupancy
 _atom_site_pbe_bader_charge
 _atom_site_pbe_bader_spin_density
 _atom_site_pbe_cm5_charge
 _atom_site_pbe_ddec_charge
 _atom_site_pbe_ddec_spin_density
 _atom_site_pbe_ddec_sum_bond_order
 _atom_site_pbe_magmom
Zn  Zn0  1  0.46664869  0.88093436  0.06711627  1  1.312302  0  0.668189  0.958729  0  2.389634  0
Zn  Zn1  1  0.03251688  0.44708370  0.93464428  1  1.308593  0  0.667229  0.961759  0  2.386708  0
Zn  Zn2  1  0.44740405  0.03266356  0.93437540  1  1.30933  0  0.667563  0.962  0  2.387604  0
Zn  Zn3  1  0.03255468  0.61828538  0.93469000  1  1.312876  0  0.667059  0.96143  0  2.386525  0
Zn  Zn4  1  0.61817897  0.03267543  0.93444071  1  1.312249  0  0.66707  0.961414  0  2.387401  0
Zn  Zn5  1  0.88089668  0.46632745  0.06684108  1  1.314949  0  0.667741  0.958474  0  2.388788  0
Zn  Zn6  1  0.46634119  0.05207001  0.06692753  1  1.297608  0  0.668035  0.958987  0  2.38941  0
Zn  Zn7  1  0.05235701  0.46686097  0.06668332  1  1.298083  0  0.667825  0.958881  0  2.387885  0
H  H8  1  0.21988710  0.60649870  0.08038297  1  0.096992  0  0.111451  0.108975  0  0.978482  0
H  H9  1  0.60757948  0.70092028  0.08821799  1  0.09589  0  0.111543  0.109078  0  0.979235  0
H  H10  1  0.33607269  0.00834708  0.47296763  1  0.028141  0  0.094581  0.052278  0  0.978151  0
H  H11  1  0.36189529  0.13262317  0.31226106  1  0.033871  0  0.094271  0.0884  0  0.967921  0
H  H12  1  0.30196257  0.13603740  0.39926311  1  0.011474  0  0.091612  0.083491  0  0.984918  0
H  H13  1  0.42772414  0.14899007  0.41555649  1  0.039363  0  0.086413  0.110809  0  1.005885  0
H  H14  1  0.44127692  0.22883483  0.32643358  1  0.044925  0  0.087423  0.11348  0  1.009316  0
H  H15  1  0.48762291  0.14532695  0.32842000  1  0.028614  0  0.087484  0.113083  0  0.999811  0
H  H16  1  0.00528633  0.21612857  0.38526465  1  0.033163  0  0.096208  0.055334  0  0.974884  0
H  H17  1  0.00832357  0.19099132  0.47297968  1  0.034037  0  0.094288  0.051964  0  0.97966  0
H  H18  1  0.13252415  0.32581526  0.31226074  1  0.044606  0  0.09426  0.08831  0  0.967145  0
H  H19  1  0.13599407  0.29872761  0.39924756  1  0.036255  0  0.091837  0.083673  0  0.984249  0
H  H20  1  0.70081867  0.30392576  0.08824011  1  0.12937  0  0.111913  0.109478  0  0.978882  0
H  H21  1  0.14894772  0.15665829  0.41547257  1  0.010975  0  0.086686  0.111651  0  1.005383  0
H  H22  1  0.22872050  0.23220737  0.32634931  1  0.03821  0  0.087316  0.113413  0  1.009107  0
H  H23  1  0.14519904  0.18393009  0.32836287  1  0.013941  0  0.087621  0.113165  0  1.000262  0
H  H24  1  0.30401613  0.21069359  0.08809259  1  0.124741  0  0.111698  0.109444  0  0.978828  0
H  H25  1  0.21987023  0.31286473  0.08049863  1  0.096135  0  0.111032  0.108623  0  0.978918  0
H  H26  1  0.60629945  0.21993788  0.08044640  1  0.095275  0  0.111125  0.108748  0  0.979137  0
H  H27  1  0.69934020  0.60626318  0.08063304  1  0.081664  0  0.111174  0.108814  0  0.978686  0
H  H28  1  0.30400353  0.70071391  0.08836840  1  0.126917  0  0.111145  0.108514  0  0.979727  0
H  H29  1  0.19326796  0.75887787  0.96579282  1  0.094017  0  0.112545  0.12985  0  0.985498  0
H  H30  1  0.75587444  0.83814478  0.94993651  1  0.069484  0  0.112491  0.129919  0  0.984825  0
H  H31  1  0.83811333  0.29398746  0.94992849  1  0.069407  0  0.112556  0.129954  0  0.984909  0
H  H32  1  0.29419044  0.21179892  0.94967347  1  0.058306  0  0.112624  0.130241  0  0.984577  0
H  H33  1  0.19311622  0.27550864  0.96577382  1  0.093277  0  0.112418  0.129465  0  0.985448  0
H  H34  1  0.75838502  0.19297096  0.96598628  1  0.100104  0  0.112349  0.129747  0  0.985821  0
H  H35  1  0.84071650  0.75838037  0.96605424  1  0.102733  0  0.112671  0.13034  0  0.985238  0
H  H36  1  0.29426101  0.83830745  0.95005523  1  0.072629  0  0.112362  0.129378  0  0.985894  0
H  H37  1  0.14049311  0.76657501  0.69663727  1  0.087268  0  0.106261  0.116959  0  0.998956  0
H  H38  1  0.76654862  0.16318132  0.69650256  1  0.09236  0  0.106457  0.11688  0  0.999036  0
H  H39  1  0.16293587  0.53695763  0.69671779  1  0.105167  0  0.106423  0.116897  0  0.99925  0
H  H40  1  0.53710991  0.14054366  0.69643792  1  0.060461  0  0.106414  0.116892  0  0.99955  0
H  H41  1  0.23106376  0.53188071  0.57164087  1  0.061681  0  0.109898  0.129946  0  0.984021  0
H  H42  1  0.53205090  0.19755095  0.57136660  1  0.050382  0  0.109727  0.129358  0  0.985003  0
H  H43  1  0.19730882  0.89656322  0.57168779  1  0.076059  0  0.109864  0.129566  0  0.984317  0
H  H44  1  0.89653911  0.23113404  0.57161095  1  0.071708  0  0.10989  0.129335  0  0.984586  0
H  H45  1  0.35846427  0.73267174  0.30488259  1  0.123571  0  0.108313  0.117887  0  1.011522  0
H  H46  1  0.73280457  0.33685846  0.30464341  1  0.118633  0  0.108457  0.117676  0  1.010836  0
H  H47  1  0.33684554  0.96269146  0.30494083  1  0.126333  0  0.108482  0.117306  0  1.012074  0
H  H48  1  0.96268920  0.35849957  0.30482421  1  0.128282  0  0.108367  0.117558  0  1.011611  0
H  H49  1  0.21616323  0.60936230  0.38523134  1  0.030377  0  0.096234  0.055399  0  0.974704  0
H  H50  1  0.19106284  0.51871710  0.47300871  1  0.03769  0  0.094363  0.052289  0  0.978228  0
H  H51  1  0.32590937  0.55504878  0.31235950  1  0.039437  0  0.094337  0.088398  0  0.967248  0
H  H52  1  0.29885580  0.46466326  0.39939031  1  0.003918  0  0.091747  0.083611  0  0.984066  0
H  H53  1  0.15685515  0.43541143  0.41556239  1  0.037972  0  0.086656  0.111568  0  1.004687  0
H  H54  1  0.23241898  0.44469069  0.32645026  1  0.031504  0  0.08754  0.113829  0  1.009108  0
H  H55  1  0.18409049  0.52621578  0.32844145  1  0.030066  0  0.087454  0.113328  0  1.000288  0
H  H56  1  0.60953083  0.39877504  0.38503592  1  0.025424  0  0.09638  0.055101  0  0.974092  0
H  H57  1  0.51891439  0.33612457  0.47278803  1  0.041013  0  0.094512  0.052273  0  0.978891  0
H  H58  1  0.55512611  0.36200096  0.31211948  1  0.034316  0  0.094277  0.088133  0  0.967752  0
H  H59  1  0.46480867  0.30206491  0.39917837  1  0.015199  0  0.091562  0.083448  0  0.983601  0
H  H60  1  0.43559178  0.42784832  0.41545496  1  0.016066  0  0.086611  0.111332  0  1.005456  0
H  H61  1  0.44480869  0.44145663  0.32633352  1  0.02269  0  0.087239  0.113319  0  1.009406  0
H  H62  1  0.52634022  0.48777278  0.32830640  1  0.029265  0  0.087778  0.113622  0  1.000234  0
H  H63  1  0.39857531  0.00531642  0.38525977  1  0.034613  0  0.0963  0.055369  0  0.97442  0
C  C64  1  0.60486955  0.10503235  0.79047518  1  1.488693  0  0.227611  0.60834  0  4.160768  0
C  C65  1  0.59828422  0.21807002  0.54011486  1  0.032765  0  -0.099842  -0.257245  0  3.988252  0
C  C66  1  0.60320019  0.16169100  0.66389219  1  0.05297  0  -0.084115  -0.147082  0  3.925726  0
C  C67  1  0.16160504  0.73296928  0.66412196  1  0.10924  0  -0.083303  -0.147205  0  3.926447  0
C  C68  1  0.73300757  0.17454175  0.66393901  1  0.006783  0  -0.08392  -0.14666  0  3.925777  0
C  C69  1  0.17433755  0.60307404  0.66415263  1  -0.087629  0  -0.084394  -0.147911  0  3.923602  0
C  C70  1  0.14792112  0.64794933  0.70432219  1  -0.020201  0  -0.022252  -0.03696  0  4.021582  0
C  C71  1  0.64803393  0.14805736  0.70407099  1  0.017363  0  -0.022609  -0.038451  0  4.023309  0
C  C72  1  0.21479220  0.64236204  0.58307542  1  0.068306  0  -0.006532  0.098861  0  4.060818  0
C  C73  1  0.21789233  0.86161545  0.54038897  1  0.009372  0  -0.099642  -0.256416  0  3.987883  0
C  C74  1  0.64249911  0.20224589  0.58283433  1  -0.085044  0  -0.006911  0.097332  0  4.062327  0
C  C75  1  0.20211368  0.77468642  0.58305413  1  -0.140751  0  -0.006788  0.097907  0  4.063211  0
C  C76  1  0.77475381  0.21496098  0.58289327  1  -0.123831  0  -0.00719  0.09734  0  4.062585  0
C  C77  1  0.22907812  0.72918090  0.54173732  1  0.083933  0  -0.001742  -0.016062  0  3.923687  0
C  C78  1  0.72928728  0.22921264  0.54155035  1  0.128407  0  -0.001103  -0.01436  0  3.922903  0
C  C79  1  0.86163456  0.24182942  0.54027506  1  0.139343  0  -0.099331  -0.256201  0  3.987622  0
C  C80  1  0.24089835  0.55960226  0.41443885  1  0.408271  0  -0.065432  0.042465  0  3.908846  0
C  C81  1  0.27438224  0.51345643  0.36916111  1  0.019627  0  -0.166756  -0.130293  0  3.992662  0
C  C82  1  0.20843925  0.47800370  0.35938874  1  -0.085325  0  -0.241859  -0.354963  0  3.984313  0
C  C83  1  0.55979752  0.34485357  0.41420547  1  0.400149  0  -0.065288  0.043557  0  3.907656  0
C  C84  1  0.51360993  0.35673249  0.36894516  1  0.013434  0  -0.166884  -0.130407  0  3.991894  0
C  C85  1  0.47816098  0.43248376  0.35924343  1  -0.051259  0  -0.241666  -0.354345  0  3.984804  0
C  C86  1  0.34473554  0.02599981  0.41440751  1  0.412001  0  -0.064931  0.043624  0  3.906983  0
C  C87  1  0.35662648  0.11742635  0.36907394  1  0.016101  0  -0.166879  -0.131456  0  3.995299  0
C  C88  1  0.43234262  0.16258395  0.35935564  1  -0.103637  0  -0.241435  -0.352975  0  3.984975  0
C  C89  1  0.28011260  0.63735062  0.46135230  1  0.419006  0  0.080166  0.207037  0  4.077604  0
C  C90  1  0.02596576  0.24085247  0.41440552  1  0.396962  0  -0.064802  0.043451  0  3.909521  0
C  C91  1  0.11736426  0.27425969  0.36905519  1  -0.009157  0  -0.167177  -0.131071  0  3.99257  0
C  C92  1  0.16249738  0.20825486  0.35929599  1  -0.052078  0  -0.241707  -0.354086  0  3.984649  0
C  C93  1  0.63751144  0.25863936  0.46108849  1  0.498203  0  0.080807  0.20743  0  4.076161  0
C  C94  1  0.25848404  0.90147762  0.46136762  1  0.488554  0  0.080759  0.206655  0  4.077701  0
C  C95  1  0.90148305  0.28022099  0.46125048  1  0.418375  0  0.080518  0.206397  0  4.076497  0
C  C96  1  0.10488520  0.60477527  0.79076772  1  1.489639  0  0.227024  0.606845  0  4.160284  0
C  C97  1  0.29648840  0.72499068  0.41793204  1  0.016887  0  -0.011329  -0.017231  0  4.015667  0
C  C98  1  0.72512963  0.28556906  0.41770842  1  0.02539  0  -0.010962  -0.014864  0  4.011998  0
C  C99  1  0.28545052  0.85723795  0.41796364  1  0.011985  0  -0.011164  -0.015416  0  4.014395  0
C  C100  1  0.85728082  0.29659039  0.41780894  1  0.072647  0  -0.010981  -0.014656  0  4.012813  0
C  C101  1  0.27007170  0.77023627  0.45967038  1  -0.068943  0  0.007316  0.031137  0  3.934775  0
C  C102  1  0.77032368  0.27020602  0.45949976  1  -0.132608  0  0.006634  0.02911  0  3.935762  0
C  C103  1  0.33718662  0.76654112  0.33701536  1  -0.11159  0  -0.079191  -0.121822  0  3.933996  0
C  C104  1  0.76666672  0.32596117  0.33679115  1  -0.086293  0  -0.079985  -0.123117  0  3.931656  0
C  C105  1  0.32591589  0.89667861  0.33704834  1  -0.102792  0  -0.0799  -0.122371  0  3.934711  0
C  C106  1  0.89670820  0.33723374  0.33689128  1  -0.105482  0  -0.079838  -0.123094  0  3.933713  0
C  C107  1  0.35164829  0.85163140  0.29703331  1  0.023597  0  -0.022109  -0.041848  0  4.010607  0
C  C108  1  0.85170788  0.35168709  0.29681746  1  -0.001963  0  -0.021497  -0.040632  0  4.00791  0
C  C109  1  0.39504833  0.89480946  0.21071131  1  1.558975  0  0.22746  0.609983  0  4.158569  0
C  C110  1  0.89487236  0.39511261  0.21046840  1  1.545032  0  0.227247  0.609689  0  4.157897  0
C  C111  1  0.63559761  0.86161944  0.99941500  1  1.526884  0  0.216967  0.636536  0  4.193267  0
C  C112  1  0.24171347  0.59812426  0.54039262  1  0.093351  0  -0.099533  -0.257376  0  3.986869  0
C  C113  1  0.86160028  0.36451994  0.99963711  1  1.544518  0  0.217695  0.639297  0  4.191542  0
C  C114  1  0.36454538  0.13839076  0.99954706  1  1.554731  0  0.218062  0.638679  0  4.192681  0
C  C115  1  0.13522167  0.63644019  0.00248332  1  1.515448  0  0.217671  0.638702  0  4.191773  0
C  C116  1  0.63600315  0.13470210  0.00293833  1  1.519438  0  0.217662  0.639282  0  4.191415  0
C  C117  1  0.86197618  0.63595248  0.00285604  1  1.559484  0  0.217047  0.637343  0  4.192497  0
C  C118  1  0.36446618  0.86172401  0.00002966  1  1.548944  0  0.217679  0.638766  0  4.192105  0
C  C119  1  0.13461271  0.36074816  0.00294754  1  1.543564  0  0.217563  0.63842  0  4.192267  0
C  C120  1  0.22915777  0.67183666  0.04401213  1  -0.018346  0  -0.066985  -0.021822  0  3.972785  0
C  C121  1  0.67172301  0.72684678  0.04491557  1  -0.059841  0  -0.066571  -0.021418  0  3.974029  0
C  C122  1  0.72680983  0.28317380  0.04485200  1  -0.14175  0  -0.066676  -0.02102  0  3.97336  0
C  C123  1  0.28329672  0.22810940  0.04467352  1  -0.052028  0  -0.066573  -0.022025  0  3.972936  0
C  C124  1  0.22907862  0.28407875  0.04398807  1  -0.095241  0  -0.066729  -0.02148  0  3.973702  0
C  C125  1  0.67157689  0.22905375  0.04407217  1  -0.0445  0  -0.067306  -0.022431  0  3.973452  0
C  C126  1  0.72659004  0.67155749  0.04423260  1  -0.090425  0  -0.067024  -0.022183  0  3.974084  0
C  C127  1  0.28331720  0.72688932  0.04493633  1  -0.153528  0  -0.066734  -0.021207  0  3.974577  0
C  C128  1  0.18865281  0.69495455  0.00243662  1  -0.024029  0  -0.084534  -0.219762  0  3.870389  0
C  C129  1  0.69351928  0.80764029  0.99573166  1  0.067675  0  -0.085271  -0.220035  0  3.870547  0
C  C130  1  0.80761121  0.31048116  0.99578534  1  0.051894  0  -0.085233  -0.220901  0  3.870484  0
C  C131  1  0.31065605  0.19640554  0.99555767  1  0.010896  0  -0.085493  -0.220698  0  3.870813  0
C  C132  1  0.18843501  0.30263547  0.00254341  1  -0.017771  0  -0.084979  -0.219813  0  3.871455  0
C  C133  1  0.69450878  0.18840413  0.00262381  1  -0.012291  0  -0.084752  -0.220286  0  3.871593  0
C  C134  1  0.80863198  0.69449209  0.00272321  1  -0.013367  0  -0.085181  -0.220511  0  3.871887  0
C  C135  1  0.31069494  0.80771932  0.99595461  1  0.050513  0  -0.085291  -0.220223  0  3.873122  0
O  O136  1  0.49954052  0.99952153  0.00089229  1  -1.207794  0  -0.572069  -1.027613  0  2.538273  0
O  O137  1  0.08630563  0.64911138  0.82431472  1  -1.171811  0  -0.315884  -0.547491  0  2.338478  0
O  O138  1  0.64917403  0.09022196  0.82403110  1  -1.16534  0  -0.316282  -0.548272  0  2.338128  0
O  O139  1  0.09008461  0.52694942  0.82432738  1  -1.153548  0  -0.315778  -0.5474  0  2.340598  0
O  O140  1  0.41230134  0.85038977  0.17729134  1  -1.158717  0  -0.316618  -0.546355  0  2.341072  0
O  O141  1  0.85044145  0.41145396  0.17705779  1  -1.153228  0  -0.316862  -0.546946  0  2.340245  0
O  O142  1  0.41141539  0.97266242  0.17724596  1  -1.192148  0  -0.316367  -0.547105  0  2.340565  0
O  O143  1  0.97269412  0.41242391  0.17699538  1  -1.193481  0  -0.316423  -0.547299  0  2.339277  0
O  O144  1  0.99950787  0.49956288  0.00086592  1  -1.208381  0  -0.572004  -1.027565  0  2.537285  0
O  O145  1  0.66741162  0.93738773  0.95155330  1  -1.164065  0  -0.320827  -0.55079  0  2.295705  0
O  O146  1  0.93732912  0.38077212  0.95161169  1  -1.165189  0  -0.320984  -0.551804  0  2.293765  0
O  O147  1  0.38019397  0.11001839  0.95203853  1  -1.15096  0  -0.32127  -0.551833  0  2.29377  0
O  O148  1  0.10631059  0.66843041  0.95546561  1  -1.141131  0  -0.320955  -0.551522  0  2.294294  0
O  O149  1  0.66813309  0.10486044  0.95672361  1  -1.142877  0  -0.320831  -0.551405  0  2.294692  0
O  O150  1  0.93788492  0.66808805  0.95621296  1  -1.1707  0  -0.320496  -0.550131  0  2.296389  0
O  O151  1  0.37968830  0.93759508  0.95272233  1  -1.167769  0  -0.321065  -0.551309  0  2.295645  0
O  O152  1  0.10505500  0.37510809  0.95647837  1  -1.146567  0  -0.321077  -0.551576  0  2.293859  0
O  O153  1  0.39060618  0.12137394  0.04868669  1  -1.18297  0  -0.3194  -0.55389  0  2.32171  0
O  O154  1  0.12237820  0.56057894  0.04801806  1  -1.173016  0  -0.319629  -0.554489  0  2.320964  0
O  O155  1  0.56041073  0.82958670  0.04861246  1  -1.176696  0  -0.319504  -0.553626  0  2.320507  0
O  O156  1  0.82963800  0.39020884  0.04909918  1  -1.177289  0  -0.319706  -0.554656  0  2.320923  0
O  O157  1  0.39083164  0.82970174  0.04896065  1  -1.171789  0  -0.31986  -0.555482  0  2.319256  0
O  O158  1  0.12198447  0.39133383  0.04824527  1  -1.182875  0  -0.319622  -0.554592  0  2.320769  0
O  O159  1  0.56010584  0.12245095  0.04791298  1  -1.169668  0  -0.320041  -0.555549  0  2.319316  0
O  O160  1  0.82935362  0.56002620  0.04807343  1  -1.173632  0  -0.320153  -0.55522  0  2.318696  0
O  O161  1  0.52708659  0.08644102  0.82398775  1  -1.153333  0  -0.316296  -0.547714  0  2.34124  0
O  O162  1  0.30543068  0.59399772  0.42072215  1  -1.090728  0  -0.210297  -0.249283  0  2.492671  0
O  O163  1  0.59417043  0.27401354  0.42044113  1  -1.089548  0  -0.210931  -0.250262  0  2.493007  0
O  O164  1  0.27382006  0.98544452  0.42074953  1  -1.086893  0  -0.210998  -0.249755  0  2.492942  0
O  O165  1  0.98542411  0.30547145  0.42068409  1  -1.087466  0  -0.210702  -0.249427  0  2.493307  0
