# generated using pymatgen
data_CdH12C12(SN3)2
_symmetry_space_group_name_H-M   'P 1'
_cell_length_a   5.59730776
_cell_length_b   13.77278974
_cell_length_c   18.66600000
_cell_angle_alpha   90.00000000
_cell_angle_beta   90.00000000
_cell_angle_gamma   90.00000000
_symmetry_Int_Tables_number   1
_chemical_formula_structural   CdH12C12(SN3)2
_chemical_formula_sum   'Cd4 H48 C48 S8 N24'
_cell_volume   1438.97207273
_cell_formula_units_Z   4
loop_
 _symmetry_equiv_pos_site_id
 _symmetry_equiv_pos_as_xyz
  1  'x, y, z'
loop_
 _atom_site_type_symbol
 _atom_site_label
 _atom_site_symmetry_multiplicity
 _atom_site_fract_x
 _atom_site_fract_y
 _atom_site_fract_z
 _atom_site_occupancy
 _atom_site_hle17_bader_spin_density
 _atom_site_hle17_ddec_charge
 _atom_site_hle17_ddec_spin_density
 _atom_site_hle17_ddec_sum_bond_order
 _atom_site_hle17_magmom
 _atom_site_hse06_10hf_bader_spin_density
 _atom_site_hse06_10hf_ddec_charge
 _atom_site_hse06_10hf_ddec_spin_density
 _atom_site_hse06_10hf_ddec_sum_bond_order
 _atom_site_hse06_10hf_magmom
 _atom_site_hse06_bader_spin_density
 _atom_site_hse06_ddec_charge
 _atom_site_hse06_ddec_spin_density
 _atom_site_hse06_ddec_sum_bond_order
 _atom_site_hse06_magmom
 _atom_site_pbe_bader_charge
 _atom_site_pbe_bader_spin_density
 _atom_site_pbe_cm5_charge
 _atom_site_pbe_ddec_charge
 _atom_site_pbe_ddec_spin_density
 _atom_site_pbe_ddec_sum_bond_order
 _atom_site_pbe_magmom
Cd  Cd0  1  0.00000000  0.50000328  0.00000000  1  0  0.945302  0  1.919803  0  0  0.765889  0  2.368964  0  0  0.810147  0  2.336252  0  1.164223  0  0.715252  0.73514  0  2.390823  0
Cd  Cd1  1  0.00000000  0.00000000  0.49999893  1  0  0.94521  0  1.920025  0  0  0.765774  0  2.369219  0  0  0.810029  0  2.336507  0  1.164178  0  0.715262  0.735027  0  2.391079  0
Cd  Cd2  1  0.50000109  0.49999965  0.50000268  1  0  0.945311  0  1.919844  0  0  0.765892  0  2.369025  0  0  0.810147  0  2.336312  0  1.164104  0  0.715264  0.735143  0  2.390886  0
Cd  Cd3  1  0.49999752  0.99999711  0.99999946  1  0  0.945213  0  1.919871  0  0  0.765799  0  2.369034  0  0  0.810053  0  2.336327  0  1.164085  0  0.715244  0.735051  0  2.390894  0
H  H4  1  0.55660867  0.70781303  0.30521376  1  0  0.30944  0  0.922607  0  0  0.291917  0  0.992233  0  0  0.298178  0  0.988091  0  0.475583  0  0.291229  0.287524  0  0.995068  0
H  H5  1  0.44340424  0.79218664  0.80521376  1  0  0.309424  0  0.922632  0  0  0.291837  0  0.9923  0  0  0.298099  0  0.988158  0  0.475592  0  0.291222  0.287444  0  0.995133  0
H  H6  1  0.05658613  0.29218336  0.19478624  1  0  0.309456  0  0.922449  0  0  0.291875  0  0.992122  0  0  0.298136  0  0.98798  0  0.475623  0  0.291195  0.287482  0  0.994957  0
H  H7  1  0.94339283  0.20781701  0.69478517  1  0  0.309407  0  0.922708  0  0  0.291914  0  0.992301  0  0  0.298176  0  0.988158  0  0.476076  0  0.291219  0.28752  0  0.995137  0
H  H8  1  0.44339710  0.29218772  0.69478624  1  0  0.309491  0  0.922622  0  0  0.291933  0  0.992258  0  0  0.298196  0  0.988113  0  0.475617  0  0.291238  0.28754  0  0.995093  0
H  H9  1  0.55658544  0.20781265  0.19478464  1  0  0.309435  0  0.922509  0  0  0.291888  0  0.992148  0  0  0.29815  0  0.988006  0  0.475595  0  0.291217  0.287495  0  0.994982  0
H  H10  1  0.94339640  0.70781811  0.80521429  1  0  0.309434  0  0.922575  0  0  0.291914  0  0.992207  0  0  0.298175  0  0.988064  0  0.476087  0  0.29122  0.287521  0  0.995041  0
H  H11  1  0.05661650  0.79218228  0.30521536  1  0  0.309562  0  0.922631  0  0  0.292023  0  0.992224  0  0  0.298285  0  0.988082  0  0.475995  0  0.291311  0.28763  0  0.995058  0
H  H12  1  0.32408080  0.65214239  0.34886960  1  0  0.311292  0  0.938262  0  0  0.293935  0  1.006655  0  0  0.299686  0  1.00298  0  0.48258  0  0.288889  0.289837  0  1.009329  0
H  H13  1  0.67593210  0.84786018  0.84886746  1  0  0.311281  0  0.93834  0  0  0.293901  0  1.006792  0  0  0.29965  0  1.003121  0  0.48256  0  0.288869  0.289804  0  1.009466  0
H  H14  1  0.82406403  0.34785836  0.15113040  1  0  0.311229  0  0.938303  0  0  0.293824  0  1.006841  0  0  0.299574  0  1.003167  0  0.482551  0  0.288835  0.289727  0  1.009513  0
H  H15  1  0.17591850  0.15214637  0.65112825  1  0  0.31133  0  0.938215  0  0  0.293964  0  1.006626  0  0  0.299715  0  1.002953  0  0.48259  0  0.288879  0.289867  0  1.009298  0
H  H16  1  0.67592853  0.34785981  0.65113147  1  0  0.311185  0  0.938415  0  0  0.293798  0  1.006902  0  0  0.299545  0  1.003239  0  0.482559  0  0.288853  0.289702  0  1.009575  0
H  H17  1  0.32406473  0.15213839  0.15112825  1  0  0.311119  0  0.93841  0  0  0.293748  0  1.006874  0  0  0.299493  0  1.003212  0  0.48243  0  0.288814  0.289651  0  1.009546  0
H  H18  1  0.17592029  0.65214675  0.84887121  1  0  0.311315  0  0.938251  0  0  0.29395  0  1.006668  0  0  0.299699  0  1.002999  0  0.482581  0  0.288875  0.289853  0  1.00934  0
H  H19  1  0.82408904  0.84785147  0.34887121  1  0  0.311272  0  0.938336  0  0  0.293909  0  1.006736  0  0  0.299659  0  1.003066  0  0.482606  0  0.288866  0.289811  0  1.009409  0
H  H20  1  0.42689809  0.64144231  0.06031823  1  0  0.061587  0  1.007225  0  0  0.070389  0  1.077003  0  0  0.071351  0  1.076384  0  0.117064  0  0.099803  0.069631  0  1.077386  0
H  H21  1  0.57311481  0.85856026  0.56031715  1  0  0.061604  0  1.007182  0  0  0.070394  0  1.076991  0  0  0.071342  0  1.07637  0  0.116813  0  0.099791  0.069637  0  1.07737  0
H  H22  1  0.92688132  0.35855844  0.43968177  1  0  0.061642  0  1.007162  0  0  0.070423  0  1.07697  0  0  0.071375  0  1.076346  0  0.116849  0  0.09982  0.069664  0  1.077352  0
H  H23  1  0.07310836  0.14144048  0.93968017  1  0  0.061629  0  1.007188  0  0  0.070418  0  1.076972  0  0  0.071414  0  1.076291  0  0.11686  0  0.099806  0.06966  0  1.077354  0
H  H24  1  0.57310767  0.35856134  0.93968285  1  0  0.061604  0  1.007182  0  0  0.070411  0  1.076956  0  0  0.071354  0  1.076345  0  0.116766  0  0.099794  0.069652  0  1.07734  0
H  H25  1  0.42687844  0.14143612  0.43967910  1  0  0.061665  0  1.007169  0  0  0.070444  0  1.076975  0  0  0.071381  0  1.076389  0  0.116947  0  0.099813  0.069683  0  1.077365  0
H  H26  1  0.07311372  0.64143650  0.56031930  1  0  0.061559  0  1.007167  0  0  0.070365  0  1.076938  0  0  0.071304  0  1.076356  0  0.116875  0  0.099781  0.069604  0  1.077326  0
H  H27  1  0.92690276  0.85856026  0.06031930  1  0  0.061639  0  1.007117  0  0  0.070428  0  1.076911  0  0  0.071367  0  1.076337  0  0.117065  0  0.0998  0.069667  0  1.077299  0
H  H28  1  0.59552916  0.70232031  0.17280028  1  0  0.11138  0  0.981997  0  0  0.121192  0  1.042213  0  0  0.123668  0  1.043758  0  0.074249  0  0.100961  0.11944  0  1.041312  0
H  H29  1  0.40448196  0.79767935  0.67279814  1  0  0.11144  0  0.982033  0  0  0.121232  0  1.042236  0  0  0.123703  0  1.043799  0  0.073859  0  0.100965  0.11948  0  1.041337  0
H  H30  1  0.09551020  0.29767825  0.32719972  1  0  0.111419  0  0.982017  0  0  0.121209  0  1.042222  0  0  0.12368  0  1.043785  0  0.073906  0  0.100969  0.119457  0  1.041323  0
H  H31  1  0.90447233  0.20232067  0.82719865  1  0  0.111428  0  0.981922  0  0  0.12123  0  1.042162  0  0  0.123709  0  1.043698  0  0.074248  0  0.100958  0.119478  0  1.041262  0
H  H32  1  0.40447302  0.29768334  0.82720026  1  0  0.111398  0  0.98204  0  0  0.121203  0  1.042226  0  0  0.123674  0  1.043789  0  0.074279  0  0.100953  0.119452  0  1.041327  0
H  H33  1  0.59551130  0.20231558  0.32719704  1  0  0.111432  0  0.981929  0  0  0.121207  0  1.042171  0  0  0.123684  0  1.043713  0  0.0744  0  0.100961  0.119455  0  1.041272  0
H  H34  1  0.90447769  0.70231886  0.67279921  1  0  0.111419  0  0.982052  0  0  0.121246  0  1.042206  0  0  0.123718  0  1.043767  0  0.074261  0  0.10096  0.119494  0  1.041306  0
H  H35  1  0.09554415  0.79768516  0.17280028  1  0  0.111438  0  0.981968  0  0  0.121248  0  1.042204  0  0  0.12373  0  1.043732  0  0.074124  0  0.100948  0.119489  0  1.041329  0
H  H36  1  0.98487170  0.57727666  0.28226830  1  0  0.119523  0  0.949874  0  0  0.130555  0  1.007192  0  0  0.133432  0  1.007821  0  0.089639  0  0.104194  0.12846  0  1.006997  0
H  H37  1  0.01513049  0.92272591  0.78226883  1  0  0.119556  0  0.949853  0  0  0.130588  0  1.007156  0  0  0.133465  0  1.007784  0  0.09003  0  0.10419  0.128491  0  1.006963  0
H  H38  1  0.48485989  0.42272772  0.21773170  1  0  0.119489  0  0.949921  0  0  0.130556  0  1.007191  0  0  0.133412  0  1.007847  0  0.089966  0  0.104183  0.12846  0  1.006997  0
H  H39  1  0.51512622  0.07727846  0.71772795  1  0  0.119528  0  0.949878  0  0  0.13054  0  1.007223  0  0  0.133428  0  1.007838  0  0.089528  0  0.104175  0.128444  0  1.007028  0
H  H40  1  0.01513406  0.42272482  0.71773224  1  0  0.119531  0  0.949839  0  0  0.13054  0  1.007169  0  0  0.133436  0  1.007774  0  0.090061  0  0.10419  0.128444  0  1.006975  0
H  H41  1  0.98486098  0.07726830  0.21772742  1  0  0.119506  0  0.949908  0  0  0.130529  0  1.007225  0  0  0.133416  0  1.00784  0  0.089837  0  0.104157  0.128432  0  1.007031  0
H  H42  1  0.51512801  0.57727883  0.78227365  1  0  0.119561  0  0.949868  0  0  0.13056  0  1.007218  0  0  0.133454  0  1.007826  0  0.0895  0  0.104185  0.128464  0  1.007023  0
H  H43  1  0.48488668  0.92271938  0.28227205  1  0  0.119577  0  0.949868  0  0  0.130542  0  1.007271  0  0  0.133445  0  1.007868  0  0.089745  0  0.104176  0.128446  0  1.007076  0
H  H44  1  0.84220668  0.52113625  0.16343834  1  0  0.070576  0  0.987334  0  0  0.077766  0  1.058159  0  0  0.079773  0  1.055894  0  0.110988  0  0.106463  0.076285  0  1.059804  0
H  H45  1  0.15779908  0.97886922  0.66343887  1  0  0.070617  0  0.987258  0  0  0.077773  0  1.058127  0  0  0.079778  0  1.055864  0  0.110885  0  0.106453  0.076265  0  1.059799  0
H  H46  1  0.34219487  0.47886667  0.33656166  1  0  0.070575  0  0.987226  0  0  0.077722  0  1.058104  0  0  0.079727  0  1.055842  0  0.110877  0  0.106429  0.076229  0  1.05976  0
H  H47  1  0.65780553  0.02114096  0.83655791  1  0  0.070538  0  0.98726  0  0  0.077682  0  1.05812  0  0  0.079689  0  1.055859  0  0.11095  0  0.106431  0.076221  0  1.059742  0
H  H48  1  0.15779729  0.47886667  0.83656166  1  0  0.070563  0  0.987328  0  0  0.07775  0  1.058162  0  0  0.079756  0  1.055899  0  0.110926  0  0.106444  0.076231  0  1.059845  0
H  H49  1  0.84219239  0.02112716  0.33655738  1  0  0.070607  0  0.987313  0  0  0.077751  0  1.058175  0  0  0.079756  0  1.055915  0  0.110252  0  0.106446  0.07629  0  1.059797  0
H  H50  1  0.65780910  0.52113843  0.66344477  1  0  0.070552  0  0.987236  0  0  0.077697  0  1.058111  0  0  0.079703  0  1.055849  0  0.110928  0  0.106401  0.076238  0  1.059729  0
H  H51  1  0.34220202  0.97885615  0.16344209  1  0  0.07055  0  0.987221  0  0  0.077689  0  1.058112  0  0  0.079696  0  1.055849  0  0.111043  0  0.106445  0.076227  0  1.059736  0
C  C52  1  0.33278856  0.62801583  0.11027590  1  0  0.151227  0  3.751949  0  0  0.117283  0  4.003672  0  0  0.128088  0  4.021475  0  0.427445  0  0.034246  0.110377  0  3.9914  0
C  C53  1  0.66722256  0.87198746  0.61027483  1  0  0.151175  0  3.751947  0  0  0.117206  0  4.003711  0  0  0.128031  0  4.021518  0  0.427802  0  0.034215  0.110299  0  3.991443  0
C  C54  1  0.83277358  0.37198564  0.38972410  1  0  0.151227  0  3.751888  0  0  0.117272  0  4.003629  0  0  0.128095  0  4.02144  0  0.427739  0  0.034259  0.110364  0  3.99136  0
C  C55  1  0.16721610  0.12801546  0.88972142  1  0  0.151173  0  3.751877  0  0  0.117221  0  4.003638  0  0  0.128016  0  4.021446  0  0.427608  0  0.034236  0.110312  0  3.991365  0
C  C56  1  0.66721363  0.37198782  0.88972463  1  0  0.151136  0  3.752013  0  0  0.117178  0  4.003755  0  0  0.128005  0  4.021569  0  0.427777  0  0.034197  0.11027  0  3.991487  0
C  C57  1  0.33277070  0.12800965  0.38972142  1  0  0.151021  0  3.75185  0  0  0.117057  0  4.003586  0  0  0.127874  0  4.0214  0  0.427781  0  0.034129  0.110151  0  3.991313  0
C  C58  1  0.16722325  0.62801220  0.61027858  1  0  0.151282  0  3.751891  0  0  0.117313  0  4.003642  0  0  0.128129  0  4.021457  0  0.42778  0  0.034276  0.110407  0  3.991368  0
C  C59  1  0.83279502  0.87198674  0.11027858  1  0  0.151145  0  3.75191  0  0  0.117218  0  4.003633  0  0  0.128025  0  4.021452  0  0.427674  0  0.03418  0.110313  0  3.99136  0
C  C60  1  0.42755912  0.66245403  0.17380210  1  0  -0.255897  0  3.702077  0  0  -0.264633  0  3.946818  0  0  -0.276354  0  3.965884  0  0.058469  0  -0.107234  -0.25712  0  3.934106  0
C  C61  1  0.57245021  0.83754419  0.67380103  1  0  -0.256014  0  3.702068  0  0  -0.264677  0  3.946845  0  0  -0.2764  0  3.965901  0  0.058875  0  -0.107206  -0.257165  0  3.934137  0
C  C62  1  0.92754235  0.33754382  0.32619683  1  0  -0.255973  0  3.702116  0  0  -0.264654  0  3.946862  0  0  -0.276378  0  3.965925  0  0.058866  0  -0.107184  -0.257142  0  3.934153  0
C  C63  1  0.07244554  0.16245438  0.82619736  1  0  -0.255994  0  3.702023  0  0  -0.264748  0  3.946762  0  0  -0.276474  0  3.96584  0  0.058432  0  -0.107268  -0.257234  0  3.934053  0
C  C64  1  0.57244664  0.33754672  0.82619897  1  0  -0.255967  0  3.702118  0  0  -0.264673  0  3.946875  0  0  -0.276398  0  3.965931  0  0.058425  0  -0.107203  -0.257161  0  3.934166  0
C  C65  1  0.42754126  0.16245075  0.32619415  1  0  -0.255894  0  3.702031  0  0  -0.264588  0  3.946727  0  0  -0.276306  0  3.965784  0  0.058364  0  -0.107148  -0.257078  0  3.934017  0
C  C66  1  0.07244554  0.66245475  0.67380317  1  0  -0.256023  0  3.702074  0  0  -0.26476  0  3.946861  0  0  -0.276484  0  3.965918  0  0.058373  0  -0.107242  -0.257246  0  3.93415  0
C  C67  1  0.92757451  0.83754564  0.17380264  1  0  -0.255958  0  3.702077  0  0  -0.264768  0  3.946797  0  0  -0.276485  0  3.965858  0  0.058163  0  -0.107268  -0.257258  0  3.934081  0
C  C68  1  0.30623830  0.64528394  0.23888246  1  0  0.360447  0  3.853255  0  0  0.349676  0  4.099218  0  0  0.366111  0  4.114671  0  0.387368  0  0.11343  0.338825  0  4.08835  0
C  C69  1  0.69377461  0.85471645  0.73888085  1  0  0.360557  0  3.853212  0  0  0.349664  0  4.099326  0  0  0.3661  0  4.114777  0  0.387356  0  0.113319  0.338812  0  4.08846  0
C  C70  1  0.80622153  0.35471608  0.26111754  1  0  0.360618  0  3.853431  0  0  0.349813  0  4.099431  0  0  0.366246  0  4.114887  0  0.387415  0  0.11338  0.33896  0  4.088564  0
C  C71  1  0.19375922  0.14528720  0.76111486  1  0  0.360539  0  3.853217  0  0  0.349815  0  4.099116  0  0  0.366251  0  4.114569  0  0.387459  0  0.11348  0.338962  0  4.088249  0
C  C72  1  0.69376925  0.35471753  0.76111808  1  0  0.360598  0  3.853422  0  0  0.349803  0  4.099389  0  0  0.366241  0  4.114843  0  0.387377  0  0.113401  0.338949  0  4.088525  0
C  C73  1  0.30622043  0.14527994  0.26111540  1  0  0.36044  0  3.853439  0  0  0.349694  0  4.099326  0  0  0.366129  0  4.114779  0  0.387421  0  0.11331  0.338842  0  4.088458  0
C  C74  1  0.19376637  0.64528539  0.73888514  1  0  0.360534  0  3.853201  0  0  0.349744  0  4.099188  0  0  0.366179  0  4.114642  0  0.387402  0  0.113411  0.338892  0  4.088319  0
C  C75  1  0.80625190  0.85471428  0.23888514  1  0  0.360427  0  3.853217  0  0  0.349782  0  4.098993  0  0  0.366219  0  4.114446  0  0.387573  0  0.113559  0.338929  0  4.088126  0
C  C76  1  0.08970205  0.59261923  0.23435712  1  0  -0.255925  0  3.696213  0  0  -0.266571  0  3.945678  0  0  -0.278488  0  3.965079  0  -0.03457  0  -0.107945  -0.258851  0  3.93271  0
C  C77  1  0.91030371  0.90738189  0.73435766  1  0  -0.25606  0  3.696244  0  0  -0.266654  0  3.945741  0  0  -0.278569  0  3.965137  0  -0.03509  0  -0.107965  -0.258935  0  3.93277  0
C  C78  1  0.58968528  0.40738224  0.26564234  1  0  -0.256024  0  3.696134  0  0  -0.266698  0  3.945626  0  0  -0.278594  0  3.965033  0  -0.035138  0  -0.108011  -0.258979  0  3.93266  0
C  C79  1  0.41030619  0.09262176  0.76564074  1  0  -0.256078  0  3.696277  0  0  -0.266723  0  3.945713  0  0  -0.278651  0  3.965111  0  -0.034577  0  -0.108033  -0.259002  0  3.93275  0
C  C80  1  0.91030549  0.40738152  0.76564395  1  0  -0.256005  0  3.696189  0  0  -0.266606  0  3.945652  0  0  -0.278537  0  3.965044  0  -0.035085  0  -0.107972  -0.258885  0  3.932678  0
C  C81  1  0.08968597  0.09261450  0.26563806  1  0  -0.255978  0  3.696245  0  0  -0.266619  0  3.945683  0  0  -0.278542  0  3.965079  0  -0.035097  0  -0.107969  -0.258901  0  3.932724  0
C  C82  1  0.41030261  0.59262286  0.73436087  1  0  -0.256068  0  3.696267  0  0  -0.266662  0  3.945698  0  0  -0.278592  0  3.965093  0  -0.034599  0  -0.107993  -0.258942  0  3.932736  0
C  C83  1  0.58970851  0.90737608  0.23435819  1  0  -0.256134  0  3.69635  0  0  -0.266743  0  3.945741  0  0  -0.278685  0  3.965135  0  -0.034803  0  -0.108041  -0.259023  0  3.93278  0
C  C84  1  0.00931162  0.56111145  0.16820154  1  0  0.135657  0  3.764555  0  0  0.102347  0  4.019879  0  0  0.113682  0  4.036744  0  0.434638  0  0.029855  0.095035  0  4.008205  0
C  C85  1  0.99069235  0.93889257  0.66820208  1  0  0.135655  0  3.764525  0  0  0.102359  0  4.019821  0  0  0.113696  0  4.036686  0  0.434997  0  0.029875  0.095066  0  4.008159  0
C  C86  1  0.50930199  0.43889220  0.33179792  1  0  0.135705  0  3.764379  0  0  0.102423  0  4.019686  0  0  0.113761  0  4.036547  0  0.435037  0  0.029897  0.095119  0  4.008018  0
C  C87  1  0.49068947  0.06111471  0.83179364  1  0  0.135724  0  3.764603  0  0  0.102446  0  4.019957  0  0  0.11378  0  4.03683  0  0.434635  0  0.029888  0.095119  0  4.008272  0
C  C88  1  0.99069057  0.43889075  0.83179846  1  0  0.135693  0  3.764566  0  0  0.102374  0  4.019844  0  0  0.11371  0  4.036717  0  0.434682  0  0.029897  0.095091  0  4.008186  0
C  C89  1  0.00929911  0.06110454  0.33179417  1  0  0.135653  0  3.7646  0  0  0.102356  0  4.019913  0  0  0.113691  0  4.036778  0  0.436317  0  0.029883  0.095031  0  4.008232  0
C  C90  1  0.49069662  0.56111217  0.66820744  1  0  0.135668  0  3.764541  0  0  0.102368  0  4.019861  0  0  0.113705  0  4.036731  0  0.434928  0  0.029893  0.095041  0  4.00818  0
C  C91  1  0.50931807  0.93888313  0.16820583  1  0  0.135727  0  3.764509  0  0  0.102437  0  4.019851  0  0  0.113772  0  4.036728  0  0.434599  0  0.029835  0.095111  0  4.008167  0
C  C92  1  0.50803710  0.60610088  0.94203900  1  0  0.290642  0  4.006887  0  0  0.269801  0  4.310217  0  0  0.292248  0  4.322274  0  0.533858  0  0.14369  0.254599  0  4.301799  0
C  C93  1  0.49199903  0.89390968  0.44203900  1  0  0.290018  0  4.006076  0  0  0.269165  0  4.309496  0  0  0.291616  0  4.321552  0  0.533376  0  0.14342  0.253961  0  4.301077  0
C  C94  1  0.00802529  0.39390640  0.55796100  1  0  0.2904  0  4.00601  0  0  0.269573  0  4.309364  0  0  0.292024  0  4.321418  0  0.533584  0  0.143605  0.25437  0  4.300946  0
C  C95  1  0.99196082  0.10608454  0.05796207  1  0  0.29038  0  4.006174  0  0  0.269535  0  4.309556  0  0  0.291979  0  4.32163  0  0.533686  0  0.143553  0.254333  0  4.301134  0
C  C96  1  0.49197223  0.39390785  0.05796207  1  0  0.290317  0  4.006168  0  0  0.269472  0  4.309556  0  0  0.291925  0  4.321609  0  0.534217  0  0.143527  0.254269  0  4.301136  0
C  C97  1  0.50801745  0.10609543  0.55795939  1  0  0.290208  0  4.006303  0  0  0.269364  0  4.309669  0  0  0.291814  0  4.321723  0  0.533411  0  0.143526  0.254162  0  4.301247  0
C  C98  1  0.99196797  0.60609217  0.44204222  1  0  0.290551  0  4.006506  0  0  0.269714  0  4.309845  0  0  0.292163  0  4.321896  0  0.534124  0  0.143601  0.254512  0  4.301428  0
C  C99  1  0.00803601  0.89390822  0.94203954  1  0  0.290593  0  4.006695  0  0  0.269753  0  4.310032  0  0  0.2922  0  4.322087  0  0.534316  0  0.143669  0.254552  0  4.301611  0
S  S100  1  0.75597951  0.66484715  0.95537233  1  0  -0.298786  0  2.171695  0  0  -0.269537  0  2.507769  0  0  -0.285717  0  2.502258  0  0.091256  0  -0.1283  -0.258317  0  2.511339  0
S  S101  1  0.24399230  0.83514598  0.45537287  1  0  -0.298856  0  2.170786  0  0  -0.269578  0  2.50681  0  0  -0.285758  0  2.501286  0  0.090203  0  -0.128441  -0.258357  0  2.510384  0
S  S102  1  0.25599629  0.33515287  0.54462552  1  0  -0.298839  0  2.171153  0  0  -0.269594  0  2.507232  0  0  -0.285776  0  2.501714  0  0.090572  0  -0.1284  -0.258373  0  2.510805  0
S  S103  1  0.74400590  0.16483734  0.04462874  1  0  -0.298738  0  2.171451  0  0  -0.269493  0  2.507546  0  0  -0.28568  0  2.502044  0  0.090981  0  -0.128288  -0.25827  0  2.511115  0
S  S104  1  0.24401017  0.33515650  0.04462981  1  0  -0.298733  0  2.171352  0  0  -0.26947  0  2.507403  0  0  -0.285653  0  2.501889  0  0.090701  0  -0.128297  -0.25825  0  2.510974  0
S  S105  1  0.75599381  0.16484968  0.54462606  1  0  -0.29879  0  2.171212  0  0  -0.269528  0  2.507282  0  0  -0.285708  0  2.501765  0  0.090566  0  -0.128385  -0.258307  0  2.510855  0
S  S106  1  0.74401126  0.66484207  0.45537501  1  0  -0.298806  0  2.171434  0  0  -0.269571  0  2.507536  0  0  -0.285752  0  2.502021  0  0.090896  0  -0.128334  -0.258347  0  2.511107  0
S  S107  1  0.25597842  0.83515978  0.95537233  1  0  -0.298773  0  2.171719  0  0  -0.269525  0  2.507795  0  0  -0.285706  0  2.502286  0  0.090987  0  -0.128314  -0.258304  0  2.511363  0
N  N108  1  0.12671985  0.57733547  0.10611593  1  0  -0.375586  0  3.272692  0  0  -0.295277  0  3.536076  0  0  -0.319327  0  3.55704  0  -1.235644  0  -0.350867  -0.278915  0  3.521185  0
N  N109  1  0.87328591  0.92266783  0.60611486  1  0  -0.375525  0  3.272838  0  0  -0.29521  0  3.53622  0  0  -0.319261  0  3.557174  0  -1.236006  0  -0.350835  -0.278843  0  3.521313  0
N  N110  1  0.62670486  0.42266528  0.39388460  1  0  -0.375643  0  3.272773  0  0  -0.295317  0  3.536136  0  0  -0.319368  0  3.557091  0  -1.235933  0  -0.350904  -0.27895  0  3.521235  0
N  N111  1  0.37329196  0.07733509  0.89388246  1  0  -0.375463  0  3.272531  0  0  -0.295123  0  3.535889  0  0  -0.319169  0  3.556841  0  -1.23542  0  -0.350781  -0.278769  0  3.521027  0
N  N112  1  0.87328412  0.42266673  0.89388567  1  0  -0.375527  0  3.272747  0  0  -0.295203  0  3.53612  0  0  -0.319257  0  3.557075  0  -1.235695  0  -0.350846  -0.278835  0  3.52121  0
N  N113  1  0.12670198  0.07732929  0.39388139  1  0  -0.375515  0  3.272827  0  0  -0.29516  0  3.536153  0  0  -0.319208  0  3.557111  0  -1.236599  0  -0.35079  -0.2788  0  3.521268  0
N  N114  1  0.37329196  0.57733474  0.60611861  1  0  -0.375485  0  3.272669  0  0  -0.295141  0  3.53604  0  0  -0.319181  0  3.556974  0  -1.235756  0  -0.350793  -0.278787  0  3.521173  0
N  N115  1  0.62671737  0.92266057  0.10611808  1  0  -0.375461  0  3.272621  0  0  -0.295147  0  3.535992  0  0  -0.319187  0  3.556928  0  -1.235411  0  -0.350745  -0.278788  0  3.521115  0
N  N116  1  0.38647330  0.68180014  0.30233098  1  0  -0.657147  0  3.152732  0  0  -0.617094  0  3.382027  0  0  -0.63728  0  3.381895  0  -1.288918  0  -0.583139  -0.602887  0  3.381693  0
N  N117  1  0.61353782  0.81819952  0.80232990  1  0  -0.657129  0  3.152755  0  0  -0.616938  0  3.382179  0  0  -0.637123  0  3.382046  0  -1.288803  0  -0.583017  -0.602732  0  3.381844  0
N  N118  1  0.88645117  0.31819842  0.19766956  1  0  -0.657162  0  3.15268  0  0  -0.617009  0  3.382042  0  0  -0.63719  0  3.381909  0  -1.288846  0  -0.583013  -0.602803  0  3.381707  0
N  N119  1  0.11352958  0.18180340  0.69766902  1  0  -0.65719  0  3.152931  0  0  -0.617171  0  3.382145  0  0  -0.637356  0  3.382013  0  -1.289519  0  -0.583108  -0.602964  0  3.381811  0
N  N120  1  0.61353425  0.31820133  0.69767063  1  0  -0.657129  0  3.15303  0  0  -0.617026  0  3.382379  0  0  -0.637213  0  3.382248  0  -1.288849  0  -0.583079  -0.60282  0  3.382044  0
N  N121  1  0.38645543  0.18179759  0.19766581  1  0  -0.65695  0  3.152628  0  0  -0.616877  0  3.381956  0  0  -0.637062  0  3.381829  0  -1.288766  0  -0.582966  -0.60267  0  3.38162  0
N  N122  1  0.11352779  0.68180522  0.80233098  1  0  -0.657172  0  3.152685  0  0  -0.617121  0  3.381984  0  0  -0.637304  0  3.381853  0  -1.289507  0  -0.583098  -0.602914  0  3.381647  0
N  N123  1  0.88648511  0.81819444  0.30232990  1  0  -0.657232  0  3.153004  0  0  -0.617177  0  3.382297  0  0  -0.637364  0  3.382166  0  -1.289519  0  -0.583207  -0.602969  0  3.381961  0
N  N124  1  0.32448100  0.56445209  0.93278421  1  0  -0.551108  0  2.865964  0  0  -0.494721  0  3.138742  0  0  -0.514153  0  3.144309  0  -1.306117  0  -0.39289  -0.481512  0  3.134907  0
N  N125  1  0.67556228  0.93555992  0.43278528  1  0  -0.550333  0  2.86592  0  0  -0.493919  0  3.13867  0  0  -0.513349  0  3.144247  0  -1.304548  0  -0.392471  -0.480718  0  3.134837  0
N  N126  1  0.82446601  0.43555664  0.56721794  1  0  -0.550758  0  2.865515  0  0  -0.494356  0  3.138258  0  0  -0.513789  0  3.143829  0  -1.305095  0  -0.392704  -0.481154  0  3.134431  0
N  N127  1  0.17552010  0.06443357  0.06721740  1  0  -0.550774  0  2.865321  0  0  -0.494367  0  3.138075  0  0  -0.5138  0  3.143656  0  -1.305572  0  -0.392759  -0.481163  0  3.134244  0
N  N128  1  0.67553548  0.43555882  0.06721633  1  0  -0.550788  0  2.865428  0  0  -0.494383  0  3.138204  0  0  -0.513817  0  3.143773  0  -1.305862  0  -0.392725  -0.481178  0  3.134372  0
N  N129  1  0.32445598  0.06444519  0.56721419  1  0  -0.550612  0  2.8657  0  0  -0.494201  0  3.138453  0  0  -0.513632  0  3.144026  0  -1.304914  0  -0.392634  -0.480993  0  3.134613  0
N  N130  1  0.17552367  0.56444338  0.43278742  1  0  -0.550962  0  2.865796  0  0  -0.494567  0  3.13856  0  0  -0.513998  0  3.144125  0  -1.305933  0  -0.392774  -0.48136  0  3.134729  0
N  N131  1  0.82448209  0.93555701  0.93278421  1  0  -0.551014  0  2.865711  0  0  -0.494614  0  3.138451  0  0  -0.514046  0  3.144019  0  -1.306261  0  -0.392857  -0.48141  0  3.134625  0
