# generated using pymatgen
data_Ag2H18C17S2(N2O3)2
_symmetry_space_group_name_H-M   'P 1'
_cell_length_a   7.70772800
_cell_length_b   9.08355198
_cell_length_c   15.03198071
_cell_angle_alpha   91.08962947
_cell_angle_beta   92.16168310
_cell_angle_gamma   105.39102583
_symmetry_Int_Tables_number   1
_chemical_formula_structural   Ag2H18C17S2(N2O3)2
_chemical_formula_sum   'Ag4 H36 C34 S4 N8 O12'
_cell_volume   1013.51614038
_cell_formula_units_Z   2
loop_
 _symmetry_equiv_pos_site_id
 _symmetry_equiv_pos_as_xyz
  1  'x, y, z'
loop_
 _atom_site_type_symbol
 _atom_site_label
 _atom_site_symmetry_multiplicity
 _atom_site_fract_x
 _atom_site_fract_y
 _atom_site_fract_z
 _atom_site_occupancy
 _atom_site_hle17_bader_spin_density
 _atom_site_hle17_ddec_charge
 _atom_site_hle17_ddec_spin_density
 _atom_site_hle17_ddec_sum_bond_order
 _atom_site_hle17_magmom
 _atom_site_hse06_10hf_bader_spin_density
 _atom_site_hse06_10hf_ddec_charge
 _atom_site_hse06_10hf_ddec_spin_density
 _atom_site_hse06_10hf_ddec_sum_bond_order
 _atom_site_hse06_10hf_magmom
 _atom_site_hse06_bader_spin_density
 _atom_site_hse06_ddec_charge
 _atom_site_hse06_ddec_spin_density
 _atom_site_hse06_ddec_sum_bond_order
 _atom_site_hse06_magmom
 _atom_site_pbe_bader_spin_density
 _atom_site_pbe_cm5_charge
 _atom_site_pbe_ddec_charge
 _atom_site_pbe_ddec_spin_density
 _atom_site_pbe_ddec_sum_bond_order
 _atom_site_pbe_magmom
Ag  Ag0  1  0.43044206  0.32816360  0.23963585  1  0  0.508982  0  1.462515  0  0  0.372674  0  1.91398  0  0  0.403014  0  1.867321  0  0  0.442421  0.349656  0  1.948932  0
Ag  Ag1  1  0.56956220  0.67183310  0.76036648  1  0  0.508986  0  1.462464  0  0  0.372679  0  1.913958  0  0  0.40302  0  1.867296  0  0  0.442421  0.349658  0  1.948917  0
Ag  Ag2  1  0.60707968  0.67234058  0.27668719  1  0  0.517079  0  1.481134  0  0  0.387488  0  1.937501  0  0  0.416794  0  1.889828  0  0  0.440423  0.363801  0  1.974263  0
Ag  Ag3  1  0.39292086  0.32766071  0.72331313  1  0  0.517099  0  1.481058  0  0  0.387499  0  1.937407  0  0  0.416808  0  1.889734  0  0  0.440417  0.363806  0  1.974174  0
H  H4  1  0.04096955  0.86840768  0.92677313  1  0  0.119446  0  0.966327  0  0  0.12813  0  1.025475  0  0  0.132333  0  1.02249  0  0  0.109545  0.124985  0  1.027944  0
H  H5  1  0.95903214  0.13158905  0.07323048  1  0  0.11941  0  0.966317  0  0  0.128135  0  1.025425  0  0  0.132341  0  1.022435  0  0  0.109549  0.124989  0  1.0279  0
H  H6  1  0.99472817  0.69675472  0.79205022  1  0  0.098339  0  0.959461  0  0  0.108417  0  1.019636  0  0  0.111543  0  1.017844  0  0  0.10376  0.106135  0  1.020915  0
H  H7  1  0.00526612  0.30324321  0.20795263  1  0  0.098332  0  0.959376  0  0  0.108407  0  1.019578  0  0  0.111537  0  1.017776  0  0  0.103745  0.106123  0  1.020856  0
H  H8  1  0.81155052  0.42644421  0.79709397  1  0  0.090898  0  0.967081  0  0  0.100073  0  1.033108  0  0  0.103359  0  1.030517  0  0  0.100796  0.097094  0  1.036574  0
H  H9  1  0.18844635  0.57355370  0.20290891  1  0  0.090956  0  0.967014  0  0  0.100109  0  1.033073  0  0  0.103396  0  1.030484  0  0  0.100777  0.097128  0  1.036542  0
H  H10  1  0.66333089  0.32495681  0.93657770  1  0  0.109321  0  0.936678  0  0  0.117839  0  1.000046  0  0  0.121847  0  0.997172  0  0  0.110374  0.114835  0  1.002365  0
H  H11  1  0.33666856  0.67504108  0.06342456  1  0  0.109332  0  0.936683  0  0  0.117863  0  1.000028  0  0  0.12187  0  0.997159  0  0  0.110374  0.114859  0  1.002352  0
H  H12  1  0.95429947  0.13955420  0.58200437  1  0  0.114542  0  0.955118  0  0  0.120303  0  1.020117  0  0  0.124497  0  1.016923  0  0  0.109195  0.117196  0  1.022622  0
H  H13  1  0.04570174  0.86044933  0.41799198  1  0  0.114508  0  0.955129  0  0  0.120282  0  1.020117  0  0  0.124477  0  1.016923  0  0  0.109185  0.117175  0  1.022629  0
H  H14  1  0.95513945  0.32742341  0.70478682  1  0  0.104224  0  0.962077  0  0  0.113946  0  1.021913  0  0  0.116833  0  1.020784  0  0  0.104913  0.111873  0  1.022707  0
H  H15  1  0.04485585  0.67257789  0.29521008  1  0  0.104164  0  0.962147  0  0  0.113891  0  1.02198  0  0  0.116776  0  1.020851  0  0  0.104877  0.111826  0  1.022766  0
H  H16  1  0.12548252  0.60016008  0.69398589  1  0  0.093933  0  0.959511  0  0  0.10452  0  1.021448  0  0  0.107448  0  1.019942  0  0  0.102547  0.102079  0  1.023339  0
H  H17  1  0.87451801  0.39984120  0.30601376  1  0  0.093922  0  0.959516  0  0  0.104534  0  1.021419  0  0  0.107444  0  1.019938  0  0  0.102551  0.102091  0  1.023307  0
H  H18  1  0.30275452  0.68942167  0.55948764  1  0  0.113775  0  0.929131  0  0  0.123314  0  0.988336  0  0  0.127215  0  0.985727  0  0  0.111349  0.120553  0  0.990336  0
H  H19  1  0.69724935  0.31058188  0.44051275  1  0  0.113788  0  0.929127  0  0  0.123325  0  0.988322  0  0  0.127224  0  0.985714  0  0  0.111362  0.120566  0  0.990318  0
H  H20  1  0.56490878  0.08463211  0.09973439  1  0  0.093546  0  0.949007  0  0  0.11654  0  1.007916  0  0  0.116934  0  1.008536  0  0  0.097601  0.116534  0  1.007091  0
H  H21  1  0.43509136  0.91536802  0.90026458  1  0  0.093557  0  0.94898  0  0  0.116551  0  1.007886  0  0  0.116945  0  1.008507  0  0  0.097612  0.116544  0  1.007064  0
H  H22  1  0.36464600  0.11702955  0.05299646  1  0  0.088044  0  0.973264  0  0  0.105721  0  1.04264  0  0  0.106136  0  1.043391  0  0  0.091912  0.105613  0  1.0419  0
H  H23  1  0.63535508  0.88296944  0.94700318  1  0  0.088022  0  0.973264  0  0  0.1057  0  1.042647  0  0  0.106114  0  1.0434  0  0  0.091903  0.105588  0  1.041915  0
H  H24  1  0.37349733  0.92675189  0.07568373  1  0  0.065726  0  0.95232  0  0  0.087847  0  1.018664  0  0  0.087821  0  1.019162  0  0  0.085773  0.088304  0  1.01781  0
H  H25  1  0.62650539  0.07324821  0.92431461  1  0  0.065728  0  0.95231  0  0  0.087867  0  1.018634  0  0  0.087843  0  1.019131  0  0  0.085788  0.088324  0  1.017779  0
H  H26  1  0.39953044  0.85028707  0.22091876  1  0  0.034746  0  0.948263  0  0  0.053718  0  1.021456  0  0  0.053779  0  1.020192  0  0  0.085512  0.052928  0  1.024507  0
H  H27  1  0.60047192  0.14971190  0.77908024  1  0  0.034737  0  0.948289  0  0  0.053688  0  1.021506  0  0  0.053742  0  1.020238  0  0  0.085495  0.052908  0  1.024544  0
H  H28  1  0.31919075  0.94647975  0.30827563  1  0  0.06855  0  0.932129  0  0  0.088167  0  0.987804  0  0  0.088301  0  0.988658  0  0  0.10284  0.088305  0  0.986857  0
H  H29  1  0.68081161  0.05351922  0.69172336  1  0  0.06851  0  0.932149  0  0  0.08814  0  0.987813  0  0  0.088267  0  0.988661  0  0  0.102834  0.088275  0  0.986868  0
H  H30  1  0.69429982  0.05793993  0.23376927  1  0  0.063572  0  0.927839  0  0  0.085534  0  0.984006  0  0  0.085413  0  0.984933  0  0  0.103459  0.085698  0  0.983242  0
H  H31  1  0.30570032  0.94206020  0.76622970  1  0  0.063601  0  0.927836  0  0  0.085579  0  0.983988  0  0  0.085459  0  0.984914  0  0  0.103474  0.085744  0  0.983225  0
H  H32  1  0.61027388  0.13702064  0.32691123  1  0  0.026344  0  0.957354  0  0  0.045379  0  1.030023  0  0  0.045159  0  1.0292  0  0  0.084331  0.045193  0  1.032032  0
H  H33  1  0.38972660  0.86298062  0.67308576  1  0  0.026401  0  0.957301  0  0  0.045467  0  1.029927  0  0  0.045247  0  1.029105  0  0  0.084363  0.045281  0  1.031938  0
H  H34  1  0.21749528  0.03177889  0.18479930  1  0  0.24388  0  0.933212  0  0  0.240771  0  0.982039  0  0  0.245027  0  0.980414  0  0  0.288137  0.237999  0  0.982733  0
H  H35  1  0.78250541  0.96821895  0.81519966  1  0  0.243896  0  0.933166  0  0  0.240785  0  0.981995  0  0  0.245042  0  0.980372  0  0  0.288143  0.238011  0  0.982692  0
H  H36  1  0.59572344  0.90029311  0.40146643  1  0  0.295613  0  0.89335  0  0  0.292902  0  0.936841  0  0  0.297824  0  0.934408  0  0  0.290409  0.289459  0  0.938365  0
H  H37  1  0.40427912  0.09971044  0.59853261  1  0  0.295564  0  0.893405  0  0  0.292849  0  0.936899  0  0  0.297772  0  0.934466  0  0  0.29038  0.289405  0  0.938428  0
H  H38  1  0.79614489  0.96356128  0.36152152  1  0  0.284429  0  0.94427  0  0  0.275118  0  1.004278  0  0  0.279889  0  1.001893  0  0  0.280384  0.271946  0  1.005444  0
H  H39  1  0.20385729  0.03644113  0.63847750  1  0  0.284485  0  0.944251  0  0  0.275133  0  1.004299  0  0  0.279907  0  1.00191  0  0  0.280377  0.271959  0  1.005467  0
C  C40  1  0.87172179  0.69114121  0.00461054  1  0  -0.123056  0  3.746678  0  0  -0.104126  0  3.991039  0  0  -0.108969  0  4.012495  0  0  -0.011182  -0.101322  0  3.977334  0
C  C41  1  0.12827860  0.30885552  0.99539239  1  0  -0.123151  0  3.746568  0  0  -0.104185  0  3.990996  0  0  -0.109032  0  4.012445  0  0  -0.011174  -0.101376  0  3.977288  0
C  C42  1  0.95838361  0.75080929  0.92891044  1  0  -0.042731  0  3.68728  0  0  -0.067806  0  3.935499  0  0  -0.066874  0  3.951913  0  0  -0.076319  -0.068599  0  3.924783  0
C  C43  1  0.04161714  0.24918858  0.07109184  1  0  -0.042679  0  3.687254  0  0  -0.067772  0  3.935429  0  0  -0.066845  0  3.951846  0  0  -0.076312  -0.068568  0  3.924713  0
C  C44  1  0.93320436  0.65262086  0.85360959  1  0  -0.057132  0  3.711261  0  0  -0.069309  0  3.964447  0  0  -0.070111  0  3.981953  0  0  -0.083222  -0.068312  0  3.951702  0
C  C45  1  0.06679544  0.34737815  0.14639136  1  0  -0.057183  0  3.71124  0  0  -0.069371  0  3.964434  0  0  -0.070172  0  3.981944  0  0  -0.083255  -0.068362  0  3.951679  0
C  C46  1  0.82863016  0.50074513  0.85628174  1  0  -0.075153  0  3.752994  0  0  -0.091996  0  4.016784  0  0  -0.093061  0  4.034323  0  0  -0.087655  -0.091193  0  4.005017  0
C  C47  1  0.17136892  0.49925161  0.14372051  1  0  -0.075147  0  3.753113  0  0  -0.091974  0  4.016875  0  0  -0.093031  0  4.034399  0  0  -0.087594  -0.091177  0  4.005115  0
C  C48  1  0.74549370  0.44258871  0.93412693  1  0  -0.041517  0  3.685696  0  0  -0.06858  0  3.941562  0  0  -0.068252  0  3.959672  0  0  -0.072477  -0.068975  0  3.929538  0
C  C49  1  0.25450446  0.55740918  0.06587531  1  0  -0.041685  0  3.685756  0  0  -0.06871  0  3.941676  0  0  -0.068384  0  3.959768  0  0  -0.072537  -0.069109  0  3.929661  0
C  C50  1  0.76632718  0.54054284  0.00836909  1  0  -0.051717  0  3.780797  0  0  -0.035492  0  4.009021  0  0  -0.041484  0  4.032852  0  0  -0.008098  -0.031379  0  3.993326  0
C  C51  1  0.23367227  0.45945503  0.99163250  1  0  -0.051456  0  3.780373  0  0  -0.035401  0  4.008803  0  0  -0.04137  0  4.032603  0  0  -0.008054  -0.031289  0  3.993105  0
C  C52  1  0.68103371  0.50905713  0.09594154  1  0  0.545423  0  3.908046  0  0  0.497654  0  4.18688  0  0  0.528205  0  4.189928  0  0  0.225852  0.476857  0  4.183771  0
C  C53  1  0.31896740  0.49094188  0.90406010  1  0  0.545364  0  3.908082  0  0  0.497661  0  4.186889  0  0  0.528207  0  4.189937  0  0  0.225823  0.476873  0  4.183769  0
C  C54  1  0.13536073  0.31108213  0.50580354  1  0  -0.127946  0  3.752479  0  0  -0.109542  0  3.995932  0  0  -0.114235  0  4.017442  0  0  -0.013188  -0.106777  0  3.982093  0
C  C55  1  0.86463625  0.68892031  0.49419406  1  0  -0.127996  0  3.75248  0  0  -0.109602  0  3.995944  0  0  -0.114295  0  4.017453  0  0  -0.01317  -0.106842  0  3.982116  0
C  C56  1  0.03155779  0.25833218  0.57778403  1  0  -0.047513  0  3.704025  0  0  -0.07146  0  3.955826  0  0  -0.070361  0  3.971445  0  0  -0.077254  -0.072244  0  3.945163  0
C  C57  1  0.96844046  0.74167024  0.42221227  1  0  -0.0475  0  3.704048  0  0  -0.071475  0  3.955852  0  0  -0.070376  0  3.971471  0  0  -0.077266  -0.072255  0  3.945197  0
C  C58  1  0.03076962  0.36566837  0.64599200  1  0  -0.055438  0  3.715235  0  0  -0.068723  0  3.968496  0  0  -0.06944  0  3.986344  0  0  -0.083345  -0.067483  0  3.954987  0
C  C59  1  0.96922568  0.63433293  0.35400490  1  0  -0.055373  0  3.715182  0  0  -0.068646  0  3.968439  0  0  -0.069368  0  3.986299  0  0  -0.08328  -0.067411  0  3.954927  0
C  C60  1  0.12791156  0.51912124  0.64003877  1  0  -0.077566  0  3.747841  0  0  -0.094213  0  4.011043  0  0  -0.095745  0  4.02911  0  0  -0.087387  -0.092717  0  3.998326  0
C  C61  1  0.87208563  0.48087777  0.35996014  1  0  -0.077516  0  3.747785  0  0  -0.094187  0  4.010972  0  0  -0.095707  0  4.029049  0  0  -0.0874  -0.092689  0  3.998245  0
C  C62  1  0.22740418  0.57040595  0.56542828  1  0  -0.049886  0  3.70066  0  0  -0.076246  0  3.958191  0  0  -0.075836  0  3.976441  0  0  -0.07369  -0.076456  0  3.945611  0
C  C63  1  0.77259282  0.42959651  0.43457066  1  0  -0.049985  0  3.700694  0  0  -0.076334  0  3.958223  0  0  -0.075923  0  3.976465  0  0  -0.073712  -0.076543  0  3.945638  0
C  C64  1  0.23130392  0.46370605  0.49847779  1  0  -0.056159  0  3.795388  0  0  -0.039647  0  4.022882  0  0  -0.046023  0  4.047434  0  0  -0.011155  -0.035417  0  4.006676  0
C  C65  1  0.76869697  0.53629637  0.50152188  1  0  -0.055925  0  3.795441  0  0  -0.0394  0  4.022867  0  0  -0.045773  0  4.047419  0  0  -0.011108  -0.035172  0  4.006667  0
C  C66  1  0.33281612  0.48961581  0.41527940  1  0  0.549909  0  3.901154  0  0  0.503293  0  4.181591  0  0  0.533516  0  4.18485  0  0  0.224365  0.482777  0  4.178439  0
C  C67  1  0.66718569  0.51038546  0.58471961  1  0  0.549697  0  3.90146  0  0  0.503094  0  4.181908  0  0  0.533315  0  4.185169  0  0  0.224263  0.482579  0  4.178758  0
C  C68  1  0.41779133  0.04708971  0.09955142  1  0  -0.129387  0  3.680328  0  0  -0.225301  0  3.935642  0  0  -0.222225  0  3.9473  0  0  -0.160546  -0.227369  0  3.926154  0
C  C69  1  0.58220844  0.95290928  0.90044753  1  0  -0.12935  0  3.680253  0  0  -0.225279  0  3.935588  0  0  -0.222192  0  3.947223  0  0  -0.160559  -0.227348  0  3.92611  0
C  C70  1  0.41067293  0.96380387  0.25289554  1  0  0.009197  0  3.660111  0  0  -0.045799  0  3.919337  0  0  -0.042327  0  3.933216  0  0  -0.079461  -0.048165  0  3.909674  0
C  C71  1  0.58932684  0.03619512  0.74710341  1  0  0.009289  0  3.660145  0  0  -0.045698  0  3.919352  0  0  -0.042193  0  3.933196  0  0  -0.07942  -0.048069  0  3.909686  0
C  C72  1  0.60319639  0.02986997  0.28903613  1  0  0.068765  0  3.677944  0  0  0.008355  0  3.943587  0  0  0.012713  0  3.957448  0  0  -0.081189  0.005288  0  3.93397  0
C  C73  1  0.39680542  0.97013130  0.71096288  1  0  0.068615  0  3.678004  0  0  0.008159  0  3.943651  0  0  0.012506  0  3.95751  0  0  -0.081245  0.005092  0  3.934036  0
S  S74  1  0.86189263  0.78192143  0.10908359  1  0  1.210958  0  5.403721  0  0  1.121218  0  5.912636  0  0  1.166718  0  5.897138  0  0  0.550284  1.089814  0  5.922436  0
S  S75  1  0.13810940  0.21807642  0.89091805  1  0  1.21115  0  5.403503  0  0  1.121408  0  5.912407  0  0  1.166903  0  5.896912  0  0  0.550364  1.089995  0  5.922216  0
S  S76  1  0.18427560  0.20882063  0.41269072  1  0  1.218263  0  5.38594  0  0  1.131245  0  5.895611  0  0  1.176039  0  5.881337  0  0  0.55182  1.100344  0  5.90491  0
S  S77  1  0.81572362  0.79118066  0.58730824  1  0  1.218286  0  5.385751  0  0  1.131279  0  5.895441  0  0  1.176074  0  5.881159  0  0  0.551871  1.100372  0  5.90475  0
N  N78  1  0.72103080  0.63306739  0.15199899  1  0  -0.686818  0  3.17823  0  0  -0.607236  0  3.505493  0  0  -0.638558  0  3.506298  0  0  -0.419919  -0.585108  0  3.50381  0
N  N79  1  0.27896774  0.36693166  0.84800394  1  0  -0.68686  0  3.178331  0  0  -0.607269  0  3.505542  0  0  -0.638594  0  3.506359  0  0  -0.419921  -0.585142  0  3.503855  0
N  N80  1  0.31660984  0.35913781  0.36647179  1  0  -0.684776  0  3.149923  0  0  -0.605253  0  3.477471  0  0  -0.636733  0  3.478686  0  0  -0.416714  -0.583113  0  3.475412  0
N  N81  1  0.68339679  0.64086228  0.63352795  1  0  -0.684753  0  3.149837  0  0  -0.605265  0  3.477394  0  0  -0.636754  0  3.478629  0  0  -0.416748  -0.583132  0  3.47535  0
N  N82  1  0.35513773  0.06541239  0.18933087  1  0  -0.376169  0  3.253767  0  0  -0.29556  0  3.514839  0  0  -0.31459  0  3.527619  0  0  -0.49917  -0.279931  0  3.503762  0
N  N83  1  0.64486333  0.93458658  0.81066744  1  0  -0.376236  0  3.253734  0  0  -0.295632  0  3.51481  0  0  -0.314682  0  3.527594  0  0  -0.499203  -0.280001  0  3.503734  0
N  N84  1  0.66304274  0.91843435  0.34359130  1  0  -0.626458  0  3.117932  0  0  -0.56859  0  3.368065  0  0  -0.588845  0  3.369685  0  0  -0.640085  -0.552333  0  3.364864  0
N  N85  1  0.33695944  0.08156806  0.65640772  1  0  -0.626427  0  3.117962  0  0  -0.568505  0  3.368111  0  0  -0.588765  0  3.369731  0  0  -0.640029  -0.552247  0  3.364912  0
O  O86  1  0.58084904  0.38064892  0.11314110  1  0  -0.525481  0  2.094732  0  0  -0.451802  0  2.353583  0  0  -0.479397  0  2.347274  0  0  -0.293259  -0.432502  0  2.357453  0
O  O87  1  0.41914691  0.61935014  0.88686112  1  0  -0.525523  0  2.094842  0  0  -0.45188  0  2.353732  0  0  -0.479462  0  2.347387  0  0  -0.293271  -0.432571  0  2.357575  0
O  O88  1  0.03471783  0.81763230  0.15820604  1  0  -0.593218  0  1.96681  0  0  -0.539792  0  2.209694  0  0  -0.562012  0  2.200041  0  0  -0.303003  -0.524043  0  2.215472  0
O  O89  1  0.96528126  0.18236444  0.84179687  1  0  -0.593278  0  1.966612  0  0  -0.539832  0  2.209469  0  0  -0.56205  0  2.199821  0  0  -0.303023  -0.524076  0  2.215238  0
O  O90  1  0.77898960  0.90715408  0.09970780  1  0  -0.588769  0  1.958218  0  0  -0.53875  0  2.201709  0  0  -0.560155  0  2.190613  0  0  -0.299323  -0.523943  0  2.208763  0
O  O91  1  0.22101279  0.09284490  0.90029319  1  0  -0.588849  0  1.95822  0  0  -0.538818  0  2.201681  0  0  -0.560222  0  2.190583  0  0  -0.29936  -0.524015  0  2.208741  0
O  O92  1  0.42251938  0.62002155  0.39466830  1  0  -0.532715  0  2.055282  0  0  -0.467487  0  2.314261  0  0  -0.493546  0  2.306222  0  0  -0.299891  -0.449331  0  2.320113  0
O  O93  1  0.57748857  0.37997853  0.60533279  1  0  -0.532653  0  2.055305  0  0  -0.467424  0  2.314277  0  0  -0.493483  0  2.306239  0  0  -0.299844  -0.449266  0  2.32013  0
O  O94  1  0.02597420  0.14487224  0.35427515  1  0  -0.600007  0  1.92221  0  0  -0.547918  0  2.159686  0  0  -0.569401  0  2.148895  0  0  -0.311065  -0.532939  0  2.166704  0
O  O95  1  0.97402427  0.85513477  0.64572252  1  0  -0.599981  0  1.922233  0  0  -0.547885  0  2.159705  0  0  -0.569365  0  2.14891  0  0  -0.311063  -0.5329  0  2.166721  0
O  O96  1  0.28409574  0.10179813  0.44163269  1  0  -0.58788  0  1.897454  0  0  -0.539527  0  2.127074  0  0  -0.56018  0  2.115791  0  0  -0.309392  -0.525604  0  2.134973  0
O  O97  1  0.71589461  0.89819981  0.55836677  1  0  -0.587909  0  1.897405  0  0  -0.539549  0  2.12701  0  0  -0.5602  0  2.115723  0  0  -0.309415  -0.52562  0  2.134908  0
