# generated using pymatgen
data_CoH20C26N4(ClO2)2
_symmetry_space_group_name_H-M   'P 1'
_cell_length_a   9.78858272
_cell_length_b   10.02614881
_cell_length_c   13.20879175
_cell_angle_alpha   81.74046925
_cell_angle_beta   69.75896879
_cell_angle_gamma   87.25214887
_symmetry_Int_Tables_number   1
_chemical_formula_structural   CoH20C26N4(ClO2)2
_chemical_formula_sum   'Co2 H40 C52 N8 Cl4 O8'
_cell_volume   1203.66192548
_cell_formula_units_Z   2
loop_
 _symmetry_equiv_pos_site_id
 _symmetry_equiv_pos_as_xyz
  1  'x, y, z'
loop_
 _atom_site_type_symbol
 _atom_site_label
 _atom_site_symmetry_multiplicity
 _atom_site_fract_x
 _atom_site_fract_y
 _atom_site_fract_z
 _atom_site_occupancy
 _atom_site_hle17_ddec_charge
 _atom_site_hle17_ddec_spin_density
 _atom_site_hle17_ddec_sum_bond_order
 _atom_site_hle17_magmom
 _atom_site_hse06_10hf_ddec_charge
 _atom_site_hse06_10hf_ddec_spin_density
 _atom_site_hse06_10hf_ddec_sum_bond_order
 _atom_site_hse06_10hf_magmom
 _atom_site_hse06_ddec_charge
 _atom_site_hse06_ddec_spin_density
 _atom_site_hse06_ddec_sum_bond_order
 _atom_site_hse06_magmom
 _atom_site_pbe_cm5_charge
 _atom_site_pbe_ddec_charge
 _atom_site_pbe_ddec_spin_density
 _atom_site_pbe_ddec_sum_bond_order
 _atom_site_pbe_magmom
Co  Co0  1  0.33230224  0.67571129  0.71343602  1  0.952051  -2.879156  1.997572  -2.538  0.899341  -2.841318  2.441144  -2.596  0.992033  -2.888905  2.35412  -2.685  0.671172  0.826983  -2.79576  2.50652  -2.513
Co  Co1  1  0.66769497  0.32428734  0.28655981  1  0.952033  2.879153  1.99761  2.538  0.899304  2.84131  2.441186  2.596  0.991993  2.888894  2.354171  2.685  0.671138  0.826958  2.795755  2.506566  2.513
H  H2  1  0.81176798  0.66240820  0.47270667  1  0.106494  -8e-05  1.003535  0.0  0.112543  3.2e-05  1.072953  0.0  0.114307  2.4e-05  1.074776  0.0  0.100826  0.111415  4.5e-05  1.071634  0.0
H  H3  1  0.18822048  0.33758334  0.52729743  1  0.106523  7.8e-05  1.003634  0.0  0.112579  -3.2e-05  1.073016  0.0  0.114343  -2.4e-05  1.074838  0.0  0.100808  0.111425  -4.5e-05  1.071724  0.0
H  H4  1  0.63703245  0.51036923  0.66302969  1  0.092034  -0.000144  0.937268  -0.001  0.103096  -0.000202  0.999765  0.0  0.105186  -0.000147  0.996692  0.0  0.135156  0.101439  -0.000271  1.002177  0.0
H  H5  1  0.36296911  0.48963138  0.33696862  1  0.092003  0.000142  0.937294  0.001  0.103102  0.000201  0.999751  0.0  0.105193  0.000147  0.996674  0.0  0.135172  0.101443  0.000271  1.002164  0.0
H  H6  1  0.49595084  0.65121234  0.46014919  1  0.117038  1e-06  0.959431  0.0  0.127756  -6.2e-05  1.019444  0.0  0.131479  -9e-06  1.017271  0.0  0.105386  0.124992  -0.000117  1.021023  0.0
H  H7  1  0.50404855  0.34878928  0.53984881  1  0.117048  -3e-06  0.959406  0.0  0.127778  6.2e-05  1.01941  0.0  0.131501  9e-06  1.017235  0.0  0.105384  0.125011  0.000117  1.020992  0.0
H  H8  1  0.73076310  0.17184257  0.53198757  1  0.085551  -0.000147  0.932039  0.0  0.099331  -0.000174  0.999034  0.0  0.100357  -0.000173  0.998769  0.0  0.109062  0.098521  -0.000178  0.999086  0.0
H  H9  1  0.26923299  0.82815701  0.46801526  1  0.08559  0.000142  0.932009  0.0  0.099336  0.000174  0.999013  0.0  0.100366  0.000173  0.998735  0.0  0.109073  0.098512  0.000177  0.99908  0.0
H  H10  1  0.85231125  0.05611122  0.57046094  1  0.05883  -8.4e-05  0.932565  0.0  0.070139  -0.000131  1.006083  0.0  0.070728  -9.2e-05  1.005495  0.0  0.097797  0.070172  -0.000158  1.005167  0.0
H  H11  1  0.14768595  0.94389039  0.42953989  1  0.058832  8.5e-05  0.932565  0.0  0.070116  0.000131  1.006074  0.0  0.070703  9.2e-05  1.005486  0.0  0.097782  0.07015  0.000158  1.005155  0.0
H  H12  1  0.14371010  0.53625137  0.94765360  1  0.114568  0.000101  0.941976  0.0  0.127124  8e-06  0.997058  0.0  0.129842  3.1e-05  0.996126  0.0  0.10969  0.125148  -2.7e-05  0.997828  0.0
H  H13  1  0.85629254  0.46375223  0.05234791  1  0.114552  -9.7e-05  0.941984  0.0  0.127131  -9e-06  0.99704  0.0  0.129852  -3.1e-05  0.996102  0.0  0.109693  0.125154  2.7e-05  0.997811  0.0
H  H14  1  0.49941508  0.92546730  0.74724272  1  0.106714  -5.7e-05  0.953805  -0.001  0.113908  -1e-06  1.019128  0.0  0.116981  2.3e-05  1.014953  0.0  0.13847  0.111479  -2.1e-05  1.022375  0.0
H  H15  1  0.50058211  0.07453130  0.25275691  1  0.106721  5.7e-05  0.953896  0.001  0.113929  2e-06  1.019198  0.0  0.117002  -2.3e-05  1.015023  0.0  0.13848  0.111498  2.1e-05  1.022447  0.0
H  H16  1  0.89572579  0.21335196  0.69286125  1  0.079003  -8e-06  0.925207  0.0  0.100921  -8e-06  0.978105  0.0  0.10115  -7e-06  0.979717  0.0  0.09557  0.100886  -1.6e-05  0.976505  0.0
H  H17  1  0.10427247  0.78664661  0.30714189  1  0.078991  1.6e-05  0.925239  0.0  0.100912  8e-06  0.978134  0.0  0.101142  7e-06  0.979746  0.0  0.095555  0.100878  1.6e-05  0.976534  0.0
H  H18  1  0.79484875  0.32463005  0.63117521  1  0.064403  1.2e-05  0.962923  0.0  0.080689  3.2e-05  1.029639  0.0  0.080247  1.9e-05  1.032295  0.0  0.088669  0.080816  3.5e-05  1.028023  0.0
H  H19  1  0.20514951  0.67536751  0.36882728  1  0.064388  -1.2e-05  0.962879  0.0  0.080672  -3.2e-05  1.02961  0.0  0.080231  -1.9e-05  1.032268  0.0  0.088658  0.0808  -3.5e-05  1.027994  0.0
H  H20  1  0.53679333  0.25432522  0.04051862  1  0.122218  -0.000122  0.998232  0.0  0.12706  -0.000102  1.06867  0.0  0.131486  -9.8e-05  1.065112  0.0  0.098654  0.123757  -0.000111  1.071407  0.0
H  H21  1  0.46320931  0.74567739  0.95948072  1  0.122171  0.00012  0.998222  0.0  0.127004  0.000102  1.068681  0.0  0.131429  9.8e-05  1.065124  0.0  0.098622  0.123702  0.000111  1.071412  0.0
H  H22  1  0.69138863  0.05106239  0.76885205  1  0.069762  -9e-06  0.932477  0.0  0.087676  -7e-06  0.992661  0.0  0.088659  -5e-06  0.992718  0.0  0.088771  0.086432  -8e-06  0.993418  0.0
H  H23  1  0.30860964  0.94893618  0.23115034  1  0.06982  7e-06  0.932415  0.0  0.087692  7e-06  0.992611  0.0  0.088679  5e-06  0.992663  0.0  0.088767  0.086449  8e-06  0.993368  0.0
H  H24  1  0.57279418  0.16736781  0.72705563  1  0.072991  -5e-06  0.950967  0.0  0.085835  -1e-06  1.021513  0.0  0.086502  -1e-06  1.022781  0.0  0.089714  0.085279  -3e-06  1.020651  0.0
H  H25  1  0.42720190  0.83263175  0.27294872  1  0.073049  1e-05  0.950981  0.0  0.085857  1e-06  1.021532  0.0  0.086521  1e-06  1.022799  0.0  0.089733  0.085304  3e-06  1.020669  0.0
H  H26  1  0.85785415  0.88442053  0.22603998  1  0.087342  1.3e-05  0.968705  0.0  0.101476  -8e-06  1.023339  0.0  0.103527  -7e-06  1.023829  0.0  0.097031  0.09998  -1e-05  1.023063  0.0
H  H27  1  0.14214849  0.11557907  0.77395816  1  0.087355  -2e-05  0.968735  0.0  0.101481  9e-06  1.023367  0.0  0.10353  7e-06  1.023863  0.0  0.097036  0.099985  1e-05  1.023096  0.0
H  H28  1  0.85856108  0.03164820  0.36252998  1  0.111508  -0.000193  0.95867  0.0  0.118521  -0.00014  1.025766  0.0  0.122477  -0.000128  1.023148  0.0  0.1022  0.115889  -0.000147  1.027133  0.0
H  H29  1  0.14143829  0.96835039  0.63746986  1  0.111521  0.000193  0.958605  0.0  0.118524  0.00014  1.025711  0.0  0.122477  0.000128  1.023099  0.0  0.102187  0.115893  0.000147  1.027079  0.0
H  H30  1  0.08369095  0.16324102  0.08996404  1  0.125998  0.000186  0.958144  0.0  0.133041  0.000138  1.022224  0.0  0.136789  7e-05  1.020353  0.0  0.108348  0.129885  0.000212  1.023951  0.0
H  H31  1  0.91631275  0.83675452  0.91003728  1  0.126016  -0.000185  0.958091  0.0  0.133069  -0.000138  1.022168  0.0  0.136818  -7e-05  1.020295  0.0  0.108366  0.129908  -0.000212  1.023893  0.0
H  H32  1  0.68162958  0.69881730  0.27236445  1  0.101493  -9.7e-05  0.957619  0.0  0.11121  -0.0001  1.017412  0.0  0.113835  -0.000103  1.017161  0.0  0.101136  0.109116  -0.000103  1.018039  0.0
H  H33  1  0.31836981  0.30118332  0.72763290  1  0.10147  9.6e-05  0.957687  0.0  0.111214  0.0001  1.017448  0.0  0.113838  0.000103  1.017199  0.0  0.101152  0.109122  0.000103  1.018076  0.0
H  H34  1  0.72057227  0.25099919  0.87865263  1  0.08501  -0.000101  0.921325  0.0  0.101154  -7.6e-05  0.982567  0.0  0.102283  -5.8e-05  0.981971  0.0  0.11307  0.100072  -9.1e-05  0.98338  0.0
H  H35  1  0.27942710  0.74900442  0.12134971  1  0.085081  0.000101  0.921265  0.0  0.101208  7.7e-05  0.982524  0.0  0.102337  5.8e-05  0.981923  0.0  0.11309  0.10011  9.1e-05  0.983352  0.0
H  H36  1  0.81802055  0.39572319  0.79858681  1  0.084249  -4e-06  0.929579  0.0  0.097543  -4.8e-05  0.995204  0.0  0.098335  -2.5e-05  0.99511  0.0  0.109936  0.096607  -3.4e-05  0.99563  0.0
H  H37  1  0.18198318  0.60427741  0.20141247  1  0.084207  7e-06  0.929653  0.0  0.097527  4.8e-05  0.995249  0.0  0.098316  2.5e-05  0.995153  0.0  0.109936  0.096593  3.4e-05  0.995668  0.0
H  H38  1  0.29292727  0.27670323  0.17946218  1  0.069146  -2.2e-05  0.987265  0.0  0.07517  -3.5e-05  1.060443  0.0  0.077685  -2.7e-05  1.059529  0.0  0.081104  0.073328  -4.2e-05  1.061175  0.0
H  H39  1  0.70707645  0.72329735  0.82053861  1  0.069197  2e-05  0.987293  0.0  0.075222  3.5e-05  1.060461  0.0  0.077746  2.7e-05  1.059538  0.0  0.081126  0.07338  4.2e-05  1.061192  0.0
H  H40  1  0.09776529  0.41210164  0.13494736  1  0.102767  -6.3e-05  0.97719  0.0  0.110134  -8.8e-05  1.043939  0.0  0.113685  -9.3e-05  1.041768  0.0  0.095715  0.10727  -8.1e-05  1.046124  0.0
H  H41  1  0.90223844  0.58789996  0.86505181  1  0.102727  6.4e-05  0.977249  0.0  0.110086  8.7e-05  1.044012  0.0  0.113637  9.3e-05  1.041842  0.0  0.095695  0.107221  8.1e-05  1.046197  0.0
C  C42  1  0.89348445  0.59072211  0.48505362  1  -0.145885  0.003642  3.749348  0.005  -0.178089  0.002065  4.007649  0.003  -0.179304  0.001758  4.025703  0.002  -0.095852  -0.177336  0.002459  3.995795  0.003
C  C43  1  0.10650727  0.40926640  0.51494921  1  -0.145906  -0.003636  3.749439  -0.005  -0.178132  -0.002065  4.007719  -0.003  -0.179342  -0.001758  4.025771  -0.002  -0.095853  -0.177355  -0.002459  3.995886  -0.003
C  C44  1  0.56061324  0.48032942  0.74441181  1  0.199278  0.005213  3.640778  0.007  0.14117  -0.000892  3.915707  -0.001  0.160245  -0.000828  3.926424  -0.001  0.157306  0.128118  -0.000932  3.90824  -0.001
C  C45  1  0.43938723  0.51967420  0.25558797  1  0.199264  -0.005203  3.640556  -0.007  0.141126  0.000893  3.915503  0.001  0.1602  0.000824  3.92622  0.001  0.157273  0.128077  0.000932  3.908036  0.001
C  C46  1  0.07428599  0.52178279  0.57049352  1  -0.076144  0.001898  3.742901  0.002  -0.062289  0.001282  3.983003  0.002  -0.06418  0.001417  3.997863  0.002  -0.014955  -0.061828  0.00129  3.97389  0.002
C  C47  1  0.92570684  0.47820977  0.42950708  1  -0.076077  -0.001897  3.743058  -0.002  -0.062225  -0.001282  3.983135  -0.002  -0.064109  -0.001419  3.997999  -0.002  -0.014983  -0.061761  -0.00129  3.974024  -0.002
C  C48  1  0.36593600  0.46381943  0.88980645  1  0.149866  0.000665  3.816711  0.001  0.151385  -0.001112  4.065064  -0.002  0.155516  -0.000709  4.089329  -0.001  0.088567  0.14824  -0.001476  4.048891  -0.002
C  C49  1  0.63406882  0.53618518  0.11019364  1  0.149919  -0.000633  3.816733  -0.001  0.151424  0.001113  4.065116  0.002  0.155554  0.00071  4.089383  0.001  0.088556  0.148279  0.001477  4.048942  0.002
C  C50  1  0.15436965  0.54566107  0.64502551  1  0.644122  0.002399  3.942614  0.006  0.595691  -0.001709  4.251182  0.0  0.630497  -0.001038  4.246187  0.0  0.199205  0.571512  -0.002494  4.252671  0.0
C  C51  1  0.84562428  0.45433551  0.35497440  1  0.644164  -0.002401  3.942389  -0.006  0.5957  0.00171  4.251036  0.0  0.630502  0.001039  4.24604  0.0  0.199221  0.571522  0.002495  4.25252  0.0
C  C52  1  0.67998437  0.91859162  0.48934267  1  0.090849  -0.002194  3.790317  -0.003  0.0784  -0.001157  4.037209  -0.002  0.081839  -0.000804  4.059597  -0.001  0.086079  0.076238  -0.001517  4.022248  -0.002
C  C53  1  0.32001390  0.08140795  0.51065961  1  0.090851  0.002217  3.790429  0.003  0.078463  0.001157  4.037243  0.002  0.081898  0.000805  4.059633  0.001  0.086094  0.0763  0.001517  4.022281  0.002
C  C54  1  0.57752846  0.81249840  0.51686075  1  0.138906  -8.7e-05  3.823063  0.0  0.139433  -0.001812  4.074917  -0.002  0.143936  -0.00134  4.098956  -0.002  0.081215  0.136172  -0.002216  4.058351  -0.002
C  C55  1  0.42247309  0.18749919  0.48313788  1  0.138916  6.3e-05  3.823092  -0.001  0.139425  0.001813  4.074952  0.002  0.14393  0.001339  4.098991  0.002  0.081173  0.136165  0.002216  4.058384  0.002
C  C56  1  0.96733019  0.61167738  0.55453254  1  0.107102  -0.003528  3.787116  -0.005  0.106063  -0.001966  4.062133  -0.003  0.109547  -0.001692  4.080925  -0.002  0.012524  0.103605  -0.002331  4.049978  -0.003
C  C57  1  0.03266263  0.38831616  0.44547176  1  0.107128  0.003522  3.787203  0.005  0.106133  0.001966  4.062157  0.003  0.10961  0.001694  4.080952  0.002  0.01254  0.103674  0.002331  4.049995  0.003
C  C58  1  0.57489357  0.73260450  0.43873635  1  -0.146262  -0.00141  3.72656  -0.002  -0.165041  -0.000507  3.975817  -0.001  -0.168578  -0.000308  3.995052  0.0  -0.09565  -0.162289  -0.000787  3.962596  -0.001
C  C59  1  0.42510690  0.26739511  0.56126158  1  -0.146315  0.001452  3.726559  0.002  -0.165102  0.000505  3.975829  0.001  -0.16864  0.000305  3.995063  0.0  -0.095653  -0.162347  0.000787  3.962602  0.001
C  C60  1  0.47423257  0.38114535  0.91505860  1  0.098311  -0.002404  3.780854  -0.004  0.089018  -0.001178  4.020748  -0.002  0.09214  -0.000785  4.043621  -0.001  0.091075  0.086655  -0.001558  4.006214  -0.002
C  C61  1  0.52576898  0.61886026  0.08494298  1  0.098267  0.002376  3.780792  0.004  0.088962  0.001178  4.02071  0.002  0.092084  0.000785  4.043584  0.001  0.09114  0.086601  0.001558  4.006173  0.002
C  C62  1  0.20131566  0.82246618  0.86271517  1  0.617371  0.00512  3.927358  0.009  0.572609  -0.000314  4.224932  0.002  0.60867  -0.000228  4.221487  0.001  0.196215  0.546375  -0.000168  4.226726  0.003
C  C63  1  0.79869135  0.17753343  0.13728035  1  0.617473  -0.005121  3.92733  -0.009  0.572666  0.000314  4.224933  -0.002  0.608726  0.000228  4.221483  -0.001  0.196266  0.546431  0.000168  4.226729  -0.003
C  C64  1  0.73734161  0.08748014  0.59349274  1  0.008523  -0.000422  3.632457  -0.001  -0.05328  -0.000364  3.894323  0.0  -0.049007  -0.000282  3.906223  0.0  -0.054807  -0.055873  -0.000468  3.885907  -0.001
C  C65  1  0.26265558  0.91252046  0.40650895  1  0.008556  0.000426  3.632565  0.001  -0.053146  0.000364  3.894248  0.0  -0.048871  0.000283  3.906146  0.0  -0.05476  -0.05573  0.000468  3.885835  0.001
C  C66  1  0.10122481  0.91372922  0.93505095  1  -0.082934  -0.003316  3.734241  -0.004  -0.06778  -0.000788  3.970179  -0.001  -0.072371  -0.000265  3.987636  0.0  -0.013554  -0.065721  -0.001342  3.96037  -0.001
C  C67  1  0.89877784  0.08627038  0.06494719  1  -0.083028  0.003311  3.734282  0.004  -0.067832  0.000788  3.970216  0.001  -0.072416  0.000263  3.987671  0.0  -0.013589  -0.065773  0.001342  3.960408  0.001
C  C68  1  0.22795632  0.47507512  0.96806251  1  -0.122967  -0.001634  3.713093  -0.002  -0.142104  -0.000502  3.957776  -0.001  -0.144949  -0.000295  3.977898  -0.001  -0.088059  -0.14013  -0.000729  3.944141  -0.001
C  C69  1  0.77204742  0.52493151  0.03193765  1  -0.123002  0.001577  3.71319  0.002  -0.142153  0.000504  3.957868  0.001  -0.144997  0.000296  3.977988  0.001  -0.088114  -0.14018  0.000729  3.944233  0.001
C  C70  1  0.54335004  0.90463726  0.66368796  1  0.215358  0.005934  3.628483  0.008  0.153624  -0.000345  3.904638  0.0  0.173632  -0.000375  3.914634  -0.001  0.161284  0.139829  -4.7e-05  3.897711  0.0
C  C71  1  0.45664827  0.09536337  0.33630890  1  0.215436  -0.005943  3.628356  -0.008  0.15369  0.000343  3.904533  0.0  0.173698  0.000371  3.914525  0.001  0.161346  0.139897  4.7e-05  3.897607  0.0
C  C72  1  0.78454796  0.25026060  0.70334272  1  -0.122551  3.7e-05  3.671388  0.0  -0.16086  -7e-06  3.928486  0.0  -0.162391  -2e-06  3.943131  0.0  -0.160825  -0.15964  -2.8e-05  3.918053  0.0
C  C73  1  0.21544923  0.74973698  0.29665853  1  -0.12251  -4.8e-05  3.671466  0.0  -0.160846  7e-06  3.92851  0.0  -0.162383  3e-06  3.943163  0.0  -0.160833  -0.159627  2.8e-05  3.918076  0.0
C  C74  1  0.45177653  0.31296018  0.01925821  1  -0.153656  0.000363  3.76846  0.001  -0.175778  -0.000203  4.027719  0.0  -0.178557  -0.000136  4.047183  0.0  -0.104671  -0.174148  -0.000295  4.015367  0.0
C  C75  1  0.54822721  0.68704244  0.98074010  1  -0.1537  -0.000311  3.768396  -0.001  -0.175806  0.000205  4.027671  0.0  -0.178584  0.000134  4.047137  0.0  -0.104688  -0.17418  0.000295  4.015325  0.0
C  C76  1  0.68693357  0.13411248  0.70564257  1  -0.131389  1.9e-05  3.683781  0.0  -0.173055  4e-06  3.946441  0.0  -0.174506  6e-06  3.959993  0.0  -0.165319  -0.172015  -7e-06  3.937439  0.0
C  C77  1  0.31306469  0.86588507  0.29436068  1  -0.131603  -2.1e-05  3.683984  0.0  -0.173176  -4e-06  3.946484  0.0  -0.174632  -5e-06  3.96004  0.0  -0.165349  -0.172136  7e-06  3.937479  0.0
C  C78  1  0.77923578  0.86645797  0.30835031  1  -0.07073  -0.000927  3.773379  -0.001  -0.085476  -6e-05  4.025054  0.0  -0.087518  -8e-06  4.046767  0.0  -0.098214  -0.084408  -0.000193  4.010679  0.0
C  C79  1  0.22076468  0.13354161  0.69165066  1  -0.070744  0.00097  3.773352  0.001  -0.085483  6.1e-05  4.025037  0.0  -0.087526  1.2e-05  4.046754  0.0  -0.098245  -0.084416  0.000193  4.010665  0.0
C  C80  1  0.78223421  0.94790796  0.38477112  1  -0.147963  0.000113  3.754029  0.0  -0.169086  -0.000236  4.014901  0.0  -0.17159  -0.000193  4.033882  0.0  -0.097628  -0.167562  -0.000231  4.002102  0.0
C  C81  1  0.21776844  0.05209265  0.61522616  1  -0.14797  -0.000145  3.75402  0.0  -0.169096  0.000234  4.014877  0.0  -0.171601  0.000191  4.033865  0.0  -0.097566  -0.16757  0.000231  4.002079  0.0
C  C82  1  0.04723054  0.09071207  0.05077621  1  -0.11966  -0.001546  3.706071  -0.002  -0.150504  0.000242  3.953609  0.0  -0.151169  0.000227  3.97079  0.0  -0.085037  -0.150508  0.000259  3.943264  0.0
C  C83  1  0.95277318  0.90928851  0.94922534  1  -0.119705  0.001546  3.706147  0.002  -0.150543  -0.000243  3.9537  0.0  -0.151206  -0.000227  3.97089  0.0  -0.085064  -0.150537  -0.000259  3.943348  0.0
C  C84  1  0.67731077  0.76116135  0.33449905  1  -0.077237  0.000764  3.775745  0.001  -0.091814  5.5e-05  4.030257  0.0  -0.093177  1.9e-05  4.051364  0.0  -0.099006  -0.091364  0.000164  4.016278  0.0
C  C85  1  0.32268970  0.23883825  0.66549965  1  -0.077166  -0.000798  3.775834  -0.001  -0.091768  -5.4e-05  4.030353  0.0  -0.093133  -1.6e-05  4.051464  0.0  -0.098997  -0.091319  -0.000164  4.016372  0.0
C  C86  1  0.14741871  0.00629872  0.98738382  1  0.120778  0.001384  3.765936  0.002  0.122087  -0.000209  4.037698  0.0  0.125965  -0.000182  4.057253  0.0  0.017634  0.119349  -5e-06  4.024482  0.0
C  C87  1  0.85258391  0.99369986  0.01261670  1  0.120938  -0.001383  3.76604  -0.002  0.122198  0.000209  4.037853  0.0  0.126064  0.000184  4.057423  0.0  0.017709  0.11946  5e-06  4.024634  0.0
C  C88  1  0.73487035  0.32223581  0.80442010  1  0.012645  -0.000453  3.594669  -0.001  -0.04953  -0.000324  3.851089  0.0  -0.044877  -0.000247  3.861333  0.0  -0.048734  -0.05236  -0.000428  3.844239  -0.001
C  C89  1  0.26513011  0.67776679  0.19558131  1  0.012551  0.000447  3.594772  0.001  -0.049618  0.000324  3.851196  0.0  -0.044958  0.000244  3.861434  0.0  -0.048763  -0.052436  0.000428  3.84435  0.001
C  C90  1  0.31495595  0.32730708  0.09668277  1  -0.076515  -0.001169  3.804879  -0.001  -0.095308  -0.000198  4.068124  0.0  -0.097942  -0.000126  4.090909  0.0  -0.107267  -0.093267  -0.000281  4.052683  0.0
C  C91  1  0.68504560  0.67269552  0.90331837  1  -0.076443  0.001124  3.804959  0.001  -0.095239  0.000196  4.068196  0.0  -0.097881  0.00013  4.090976  0.0  -0.107243  -0.0932  0.000281  4.052756  0.0
C  C92  1  0.20391750  0.40523511  0.07174388  1  -0.091392  0.000885  3.780832  0.001  -0.10534  8e-05  4.036085  0.0  -0.107311  6e-05  4.057524  0.0  -0.102804  -0.104029  0.000156  4.021785  0.0
C  C93  1  0.79608623  0.59476851  0.92825584  1  -0.091426  -0.00084  3.780879  -0.001  -0.105365  -8.1e-05  4.036125  0.0  -0.107339  -6.2e-05  4.057572  0.0  -0.102814  -0.104052  -0.000156  4.021823  0.0
N  N94  1  0.42451242  0.52558821  0.78253320  1  -0.427865  -0.041792  3.31356  -0.059  -0.392642  -0.029836  3.639991  -0.034  -0.423495  -0.023838  3.650635  -0.025  -0.362948  -0.36998  -0.035221  3.632856  -0.041
N  N95  1  0.57548914  0.47441441  0.21746565  1  -0.427839  0.041787  3.313421  0.059  -0.392588  0.029835  3.63983  0.034  -0.423439  0.023841  3.650472  0.025  -0.362931  -0.36993  0.03522  3.6327  0.041
N  N96  1  0.65413143  0.97508791  0.58447304  1  -0.123571  -0.001984  3.524656  -0.003  -0.033651  -0.002268  3.746465  -0.004  -0.050614  -0.001739  3.77082  -0.003  -0.240154  -0.022618  -0.002827  3.730178  -0.005
N  N97  1  0.34586794  0.02491068  0.41552756  1  -0.123652  0.001982  3.524525  0.003  -0.033784  0.002269  3.746342  0.004  -0.050742  0.00174  3.770684  0.003  -0.24019  -0.022749  0.002827  3.73005  0.005
N  N98  1  0.59525939  0.39155991  0.81994800  1  -0.115889  -0.00122  3.50417  -0.002  -0.025375  -0.001437  3.72252  -0.003  -0.041481  -0.001089  3.746245  -0.002  -0.238753  -0.014786  -0.001852  3.706676  -0.003
N  N99  1  0.40474217  0.60844572  0.18005205  1  -0.115753  0.001216  3.504094  0.002  -0.025263  0.001436  3.722478  0.003  -0.041365  0.001091  3.7462  0.002  -0.238731  -0.014673  0.001852  3.706627  0.003
N  N100  1  0.49374811  0.80659588  0.62694545  1  -0.43421  -0.042185  3.277903  -0.064  -0.397092  -0.029467  3.597445  -0.037  -0.428745  -0.023889  3.608654  -0.029  -0.363863  -0.373944  -0.034444  3.589973  -0.044
N  N101  1  0.50625234  0.19340271  0.37305486  1  -0.434183  0.042193  3.277868  0.064  -0.39708  0.029469  3.597446  0.037  -0.428734  0.02389  3.608659  0.029  -0.363881  -0.373936  0.034443  3.589982  0.044
Cl  Cl102  1  0.92774581  0.75403452  0.62058211  1  -0.064338  -9.2e-05  1.356402  0.0  -0.037342  -6.1e-05  1.587654  0.0  -0.039311  -9e-06  1.582199  0.0  0.033004  -0.036322  -0.000205  1.591123  0.0
Cl  Cl103  1  0.07224594  0.24596106  0.37941845  1  -0.06438  9.2e-05  1.35642  0.0  -0.037398  6.1e-05  1.587656  0.0  -0.039364  1.2e-05  1.582206  0.0  0.033006  -0.036379  0.000205  1.591125  0.0
Cl  Cl104  1  0.32803259  0.02571506  0.97363556  1  -0.072192  -0.000138  1.401958  0.0  -0.057901  -0.000322  1.641798  0.0  -0.060898  -0.000173  1.637854  0.0  0.019658  -0.053651  -0.000512  1.643242  0.0
Cl  Cl105  1  0.67197221  0.97428250  0.02636527  1  -0.072258  0.00014  1.40195  0.0  -0.057945  0.000322  1.641805  0.0  -0.060939  0.000173  1.637864  0.0  0.019625  -0.053696  0.000512  1.643251  0.0
O  O106  1  0.26967154  0.62063034  0.59806672  1  -0.633343  -0.052089  2.043877  -0.084  -0.597337  -0.038137  2.325767  -0.056  -0.639474  -0.029766  2.314365  -0.043  -0.329996  -0.564454  -0.045711  2.33123  -0.067
O  O107  1  0.73032021  0.37936023  0.40193058  1  -0.633468  0.052099  2.043852  0.084  -0.59743  0.038141  2.325712  0.056  -0.639564  0.029772  2.31431  0.043  -0.330048  -0.564552  0.045715  2.331178  0.067
O  O108  1  0.10803088  0.49665650  0.74270014  1  -0.573777  -0.008071  1.894061  -0.013  -0.535959  -0.009449  2.113833  -0.015  -0.562488  -0.006997  2.10765  -0.011  -0.296404  -0.515671  -0.012383  2.117221  -0.019
O  O109  1  0.89196851  0.50335416  0.25730070  1  -0.57377  0.008066  1.893847  0.013  -0.535946  0.009447  2.113671  0.015  -0.562473  0.006994  2.107489  0.011  -0.296383  -0.51566  0.012381  2.117055  0.019
O  O110  1  0.32484555  0.79150278  0.86825866  1  -0.602084  -0.020658  2.029501  -0.036  -0.562008  -0.019539  2.274195  -0.033  -0.594011  -0.014477  2.269303  -0.025  -0.298217  -0.537501  -0.025227  2.276304  -0.042
O  O111  1  0.67515709  0.20849381  0.13173828  1  -0.602206  0.02066  2.029487  0.036  -0.562108  0.019543  2.274191  0.033  -0.594103  0.014478  2.269283  0.025  -0.298281  -0.537597  0.02523  2.276299  0.042
O  O112  1  0.15626216  0.77651689  0.79326882  1  -0.599715  -0.056866  2.033406  -0.092  -0.568503  -0.039429  2.310545  -0.06  -0.611608  -0.028923  2.303103  -0.043  -0.3185  -0.534153  -0.050136  2.313578  -0.076
O  O113  1  0.84374272  0.22349283  0.20672316  1  -0.59966  0.056866  2.033347  0.092  -0.568459  0.039427  2.310562  0.06  -0.611592  0.028924  2.303187  0.043  -0.318472  -0.534112  0.050135  2.313599  0.076
