# generated using pymatgen
data_Cu3H20C16(NO10)2
_symmetry_space_group_name_H-M   'P 1'
_cell_length_a   7.27177739
_cell_length_b   8.03292437
_cell_length_c   10.84281836
_cell_angle_alpha   77.86030805
_cell_angle_beta   85.76344454
_cell_angle_gamma   75.69935188
_symmetry_Int_Tables_number   1
_chemical_formula_structural   Cu3H20C16(NO10)2
_chemical_formula_sum   'Cu3 H20 C16 N2 O20'
_cell_volume   599.85682387
_cell_formula_units_Z   1
loop_
 _symmetry_equiv_pos_site_id
 _symmetry_equiv_pos_as_xyz
  1  'x, y, z'
loop_
 _atom_site_type_symbol
 _atom_site_label
 _atom_site_symmetry_multiplicity
 _atom_site_fract_x
 _atom_site_fract_y
 _atom_site_fract_z
 _atom_site_occupancy
 _atom_site_hle17_ddec_charge
 _atom_site_hle17_ddec_spin_density
 _atom_site_hle17_ddec_sum_bond_order
 _atom_site_hle17_magmom
 _atom_site_hse06_10hf_ddec_charge
 _atom_site_hse06_10hf_ddec_spin_density
 _atom_site_hse06_10hf_ddec_sum_bond_order
 _atom_site_hse06_10hf_magmom
 _atom_site_hse06_ddec_charge
 _atom_site_hse06_ddec_spin_density
 _atom_site_hse06_ddec_sum_bond_order
 _atom_site_hse06_magmom
 _atom_site_pbe_cm5_charge
 _atom_site_pbe_ddec_charge
 _atom_site_pbe_ddec_spin_density
 _atom_site_pbe_ddec_sum_bond_order
 _atom_site_pbe_magmom
Cu  Cu0  1  0.49999945  0.49999666  0.50000026  1  1.082351  -0.655898  1.753401  -0.484  1.091156  -0.790901  2.15416  -0.651  1.166477  -0.880635  2.097144  -0.747  0.703368  1.039074  -0.651987  2.208817  -0.518
Cu  Cu1  1  0.59696612  0.13075789  0.68099237  1  1.068078  0.680563  1.582451  0.518  1.08619  0.800872  1.962468  0.667  1.1695  0.875867  1.908016  0.761  0.689724  1.016154  0.718766  2.025259  0.584
Cu  Cu2  1  0.40302899  0.86923936  0.31900859  1  1.068122  0.680565  1.582513  0.518  1.086246  0.800876  1.962551  0.667  1.169557  0.875874  1.908089  0.761  0.689747  1.016222  0.718769  2.025303  0.584
H  H3  1  0.42113915  0.31016148  0.02063060  1  0.115689  0.000283  0.959396  0.0  0.121569  0.000248  1.025096  0.0  0.125384  0.000154  1.02209  0.0  0.107805  0.118668  0.000338  1.027443  0.0
H  H4  1  0.57885594  0.68984110  0.97937128  1  0.115666  0.000287  0.959377  0.0  0.121567  0.000248  1.025052  0.0  0.125377  0.000155  1.022056  0.0  0.107799  0.118667  0.000338  1.0274  0.0
H  H5  1  0.22910140  0.43136712  0.19396977  1  0.1191  -6.2e-05  0.922302  0.0  0.127962  -2.6e-05  0.978388  0.0  0.132308  -1.6e-05  0.976433  0.0  0.111807  0.124553  -3.3e-05  0.9802  0.0
H  H6  1  0.77090229  0.56863958  0.80603366  1  0.119054  -6.8e-05  0.9224  0.0  0.127949  -2.5e-05  0.978422  0.0  0.132297  -1.6e-05  0.976462  0.0  0.111819  0.124541  -3.3e-05  0.980248  0.0
H  H7  1  0.98347912  0.71621172  0.14102060  1  0.120533  7e-06  0.932873  0.0  0.128411  -4.1e-05  0.991944  0.0  0.132499  -2.9e-05  0.98828  0.0  0.117992  0.124984  -5.4e-05  0.995367  0.0
H  H8  1  0.01652797  0.28379750  0.85897851  1  0.120427  1.2e-05  0.932953  0.0  0.128362  -4.1e-05  0.991977  0.0  0.132493  -2.9e-05  0.988259  0.0  0.117989  0.124939  -5.4e-05  0.995399  0.0
H  H9  1  0.10888157  0.71375955  0.49551846  1  0.424147  3.9e-05  0.879872  0.0  0.396123  0.000101  0.939416  0.0  0.408437  7.7e-05  0.921087  0.0  0.286135  0.387274  0.000114  0.952613  0.0
H  H10  1  0.89111351  0.28624289  0.50447975  1  0.424148  3.9e-05  0.879874  0.0  0.396123  0.000101  0.939417  0.0  0.408438  7.7e-05  0.921086  0.0  0.286146  0.387274  0.000114  0.952615  0.0
H  H11  1  0.08490143  0.64616993  0.37332680  1  0.424409  -7.2e-05  0.825628  0.0  0.417949  9e-06  0.865945  0.0  0.42658  -7e-06  0.853367  0.0  0.314783  0.411727  3.3e-05  0.87507  0.0
H  H12  1  0.91508948  0.35383772  0.62667072  1  0.424363  -7.2e-05  0.825529  0.0  0.417897  9e-06  0.865987  0.0  0.426528  -7e-06  0.853408  0.0  0.314769  0.411677  3.3e-05  0.875112  0.0
H  H13  1  0.41342874  0.22493242  0.48395339  1  0.410083  -0.000527  0.865004  -0.002  0.393499  0.000321  0.924251  0.0  0.404337  0.000205  0.909705  0.0  0.282673  0.385613  0.000264  0.934859  0.0
H  H14  1  0.58656570  0.77506220  0.51604807  1  0.410108  -0.000527  0.864992  -0.002  0.393511  0.000321  0.924226  0.0  0.404363  0.000204  0.909665  0.0  0.282697  0.385623  0.000264  0.934838  0.0
H  H15  1  0.39413552  0.91084788  0.75936704  1  0.416638  -2.7e-05  0.893749  0.0  0.385002  -1e-06  0.96041  0.0  0.397709  -4.9e-05  0.941917  0.0  0.284127  0.375924  4.8e-05  0.973466  0.0
H  H16  1  0.60586958  0.08914280  0.24063176  1  0.416599  -2.6e-05  0.893812  0.0  0.384963  -1e-06  0.96047  0.0  0.39767  -4.9e-05  0.941976  0.0  0.284104  0.375883  4.8e-05  0.973529  0.0
H  H17  1  0.42801503  0.98249104  0.87799790  1  0.425348  -0.000115  0.853953  0.0  0.403408  -2.5e-05  0.913398  0.0  0.412913  -5.2e-05  0.899141  0.0  0.30406  0.396981  1.2e-05  0.923008  0.0
H  H18  1  0.57198800  0.01750228  0.12200147  1  0.425348  -0.000114  0.853935  0.0  0.403418  -2.5e-05  0.913381  0.0  0.412941  -5.2e-05  0.899102  0.0  0.304045  0.396982  1.2e-05  0.923002  0.0
H  H19  1  0.73699813  0.01825697  0.48251654  1  0.428335  -0.000296  0.873782  -0.001  0.398796  9.9e-05  0.935119  0.0  0.41215  7e-06  0.916026  0.0  0.295775  0.389038  0.000165  0.949047  0.0
H  H20  1  0.26299938  0.98174162  0.51748406  1  0.428287  -0.000296  0.873821  -0.001  0.398755  9.9e-05  0.935146  0.0  0.412109  7e-06  0.916054  0.0  0.295765  0.388998  0.000165  0.949075  0.0
H  H21  1  0.82951899  0.87856592  0.60378731  1  0.428537  0.000558  0.875486  0.0  0.39824  0.000918  0.938394  0.001  0.409046  0.000663  0.92306  0.001  0.296111  0.390534  0.001043  0.949357  0.001
H  H22  1  0.17047918  0.12143520  0.39621004  1  0.428565  0.000558  0.875441  0.0  0.398238  0.000918  0.93838  0.001  0.409044  0.000663  0.923045  0.001  0.296113  0.390532  0.001043  0.949342  0.001
C  C23  1  0.41977372  0.44607424  0.77362907  1  0.665456  -0.00221  3.85082  -0.003  0.628286  -0.00107  4.139763  -0.002  0.668936  -0.0008  4.132458  -0.002  0.222026  0.600635  -0.001312  4.141496  -0.002
C  C24  1  0.58022036  0.55392169  0.22637219  1  0.665522  -0.002216  3.850637  -0.003  0.628303  -0.00107  4.139641  -0.002  0.668952  -0.000801  4.132335  -0.002  0.222044  0.600655  -0.001312  4.141375  -0.002
C  C25  1  0.29904092  0.52665438  0.87430236  1  -0.079126  -0.000683  3.69501  -0.001  -0.060533  0.000367  3.922593  0.0  -0.071102  0.000451  3.943887  0.001  -0.006799  -0.054769  -0.000504  3.909784  -0.001
C  C26  1  0.70096382  0.47334297  0.12569804  1  -0.079172  -0.000624  3.694932  -0.001  -0.060566  0.000368  3.922504  0.0  -0.071135  0.000451  3.943796  0.001  -0.006852  -0.054807  -0.000504  3.909695  -0.001
C  C27  1  0.31903805  0.43602327  0.99954754  1  -0.021803  -0.001142  3.680489  -0.001  -0.055391  -0.000765  3.938179  -0.001  -0.051411  -0.000628  3.955756  -0.001  -0.066707  -0.057876  -0.001076  3.926952  -0.001
C  C28  1  0.68096290  0.56397808  0.00045515  1  -0.021803  -0.001215  3.680552  -0.001  -0.055421  -0.000766  3.938237  -0.001  -0.051442  -0.000628  3.955815  -0.001  -0.066699  -0.057907  -0.001076  3.927012  -0.001
C  C29  1  0.21051198  0.50386057  0.09702363  1  -0.056105  0.00025  3.708153  0.0  -0.071512  8.5e-05  3.973279  0.0  -0.076972  0.000158  3.993063  0.0  -0.082301  -0.068297  8.1e-05  3.960544  0.0
C  C30  1  0.78949067  0.49614474  0.90297826  1  -0.05616  0.000335  3.70819  0.0  -0.071544  8.6e-05  3.973296  0.0  -0.077006  0.000158  3.993094  0.0  -0.082352  -0.068338  8.1e-05  3.960565  0.0
C  C31  1  0.07507752  0.66074950  0.06865102  1  -0.057536  -0.001611  3.691984  -0.001  -0.091056  -0.000853  3.962037  -0.001  -0.087285  -0.00064  3.978942  -0.001  -0.066852  -0.093582  -0.00111  3.951114  -0.001
C  C32  1  0.92492545  0.33925972  0.93134924  1  -0.057307  -0.001695  3.691783  -0.002  -0.090891  -0.000854  3.961866  -0.001  -0.087152  -0.00064  3.978757  -0.001  -0.066788  -0.093426  -0.00111  3.950955  -0.001
C  C33  1  0.05270768  0.74949839  0.94282282  1  0.040077  0.001639  3.68012  0.002  0.023818  0.001029  3.943855  0.001  0.017259  0.000779  3.967787  0.001  0.078754  0.028338  0.001131  3.928162  0.001
C  C34  1  0.94729738  0.25050287  0.05717596  1  0.040047  0.001684  3.679985  0.002  0.023729  0.00103  3.943828  0.001  0.017166  0.000782  3.96777  0.001  0.078685  0.02825  0.001131  3.928129  0.001
C  C35  1  0.16601024  0.68864733  0.84323150  1  -0.061275  0.000111  3.635187  0.0  -0.05895  0.000304  3.877755  0.0  -0.056476  4.8e-05  3.893442  0.0  0.012697  -0.061536  0.000542  3.868436  0.001
C  C36  1  0.83399277  0.31135131  0.15676877  1  -0.061192  5.6e-05  3.635086  0.0  -0.058814  0.000304  3.877582  0.0  -0.056336  4.8e-05  3.893262  0.0  0.012784  -0.0614  0.000542  3.86826  0.001
C  C37  1  0.14006753  0.78420058  0.70676877  1  0.697732  -9.3e-05  3.907924  0.0  0.629628  2.8e-05  4.228827  0.0  0.664702  1.1e-05  4.218575  0.0  0.223239  0.605998  3.9e-05  4.234611  0.0
C  C38  1  0.85993822  0.21580341  0.29323226  1  0.697775  -8.9e-05  3.907787  0.0  0.629682  2.8e-05  4.228684  0.0  0.664754  1.1e-05  4.218432  0.0  0.223233  0.606044  3.9e-05  4.23447  0.0
N  N39  1  0.89875191  0.90657645  0.91731873  1  0.516803  0.000155  3.8627  0.0  0.540261  0.000644  4.167645  0.001  0.563117  0.000358  4.176034  0.0  0.055353  0.524309  0.000853  4.162078  0.001
N  N40  1  0.10125004  0.09342606  0.08267908  1  0.516638  0.000155  3.862468  0.0  0.540109  0.000643  4.167452  0.001  0.562964  0.000355  4.175844  0.0  0.055281  0.524157  0.000853  4.161884  0.001
O  O41  1  0.43887454  0.55008588  0.67048217  1  -0.592636  -0.054663  2.135303  -0.074  -0.560995  -0.037098  2.407896  -0.055  -0.598206  -0.029746  2.39745  -0.046  -0.306721  -0.530912  -0.039818  2.412096  -0.056
O  O42  1  0.56111611  0.44990732  0.32951791  1  -0.592683  -0.054658  2.135305  -0.074  -0.561003  -0.037097  2.407914  -0.055  -0.598228  -0.029745  2.397502  -0.046  -0.306709  -0.530922  -0.039817  2.412113  -0.056
O  O43  1  0.49318330  0.28168047  0.80149908  1  -0.599874  0.071039  2.09066  0.096  -0.583219  0.04654  2.378286  0.068  -0.626608  0.034671  2.369046  0.053  -0.316228  -0.551141  0.051837  2.384812  0.073
O  O44  1  0.50680942  0.71831552  0.19850409  1  -0.599847  0.071041  2.090564  0.096  -0.58322  0.04654  2.378267  0.068  -0.626591  0.03467  2.368992  0.053  -0.31623  -0.551147  0.051836  2.384793  0.073
O  O45  1  0.23150953  0.90051932  0.66594706  1  -0.604739  0.000119  2.036937  0.001  -0.54131  -7.9e-05  2.255512  0.0  -0.568467  -0.00018  2.243105  0.0  -0.291686  -0.521732  9.6e-05  2.262992  0.001
O  O46  1  0.76848867  0.09948201  0.33405578  1  -0.604744  0.000118  2.036759  0.001  -0.541321  -7.9e-05  2.255313  0.0  -0.568484  -0.00018  2.242923  0.0  -0.291658  -0.52173  9.7e-05  2.262785  0.001
O  O47  1  0.02760679  0.73621399  0.64465183  1  -0.63899  0.001328  1.989207  0.002  -0.576615  0.000862  2.205499  0.001  -0.603126  0.000438  2.193437  0.001  -0.314394  -0.558517  0.001293  2.213922  0.002
O  O48  1  0.97239239  0.26379377  0.35534613  1  -0.639063  0.001327  1.98921  0.002  -0.576684  0.000861  2.205498  0.001  -0.603193  0.000438  2.193437  0.001  -0.314429  -0.558588  0.001293  2.213918  0.002
O  O49  1  0.88068186  0.99359973  0.80721496  1  -0.38147  0.004803  1.875867  0.006  -0.36695  0.004948  2.124967  0.006  -0.382906  0.003763  2.119068  0.005  -0.1146  -0.356322  0.00565  2.13064  0.007
O  O50  1  0.11932321  0.00639620  0.19278291  1  -0.381465  0.004829  1.875817  0.006  -0.366953  0.004947  2.12491  0.006  -0.382908  0.003761  2.119006  0.005  -0.114653  -0.356332  0.00565  2.130589  0.007
O  O51  1  0.79157876  0.94680049  0.00681791  1  -0.376432  0.001181  1.803491  0.002  -0.349472  0.001465  2.020141  0.002  -0.359691  0.001256  2.015095  0.002  -0.125358  -0.34424  0.001599  2.024518  0.002
O  O52  1  0.20842558  0.05320324  0.99317678  1  -0.376316  0.001168  1.80329  0.002  -0.34935  0.001467  2.019922  0.002  -0.359571  0.001258  2.014876  0.002  -0.125247  -0.344119  0.001599  2.024294  0.002
O  O53  1  0.17229220  0.69047603  0.41407351  1  -0.870027  0.001672  1.852244  0.003  -0.850373  0.001737  2.038295  0.002  -0.866044  0.001055  1.998848  0.002  -0.589673  -0.835531  0.002789  2.067101  0.004
O  O54  1  0.82770185  0.30952508  0.58592499  1  -0.869971  0.001672  1.852131  0.003  -0.850312  0.001737  2.038299  0.002  -0.865986  0.001054  1.998862  0.002  -0.58967  -0.835467  0.002788  2.067101  0.004
O  O55  1  0.42224525  0.28401289  0.55304619  1  -0.848269  0.067625  1.811068  0.092  -0.895299  0.027419  2.122139  0.042  -0.962378  0.015026  2.097047  0.027  -0.592806  -0.844883  0.03135  2.141459  0.046
O  O56  1  0.57775573  0.71598317  0.44695650  1  -0.848333  0.067637  1.811075  0.092  -0.895335  0.027423  2.122162  0.042  -0.962437  0.015024  2.09703  0.026  -0.592852  -0.844916  0.031351  2.141483  0.046
O  O57  1  0.49650701  0.92466381  0.81166248  1  -0.833828  0.007536  1.883724  0.011  -0.793223  0.009838  2.078647  0.015  -0.815523  0.007534  2.043717  0.012  -0.587451  -0.774481  0.011088  2.103949  0.016
O  O58  1  0.50349980  0.07533089  0.18833736  1  -0.833833  0.007535  1.883842  0.011  -0.793201  0.009839  2.078707  0.015  -0.815528  0.007533  2.043738  0.012  -0.587426  -0.774459  0.011089  2.104032  0.016
O  O59  1  0.70660852  0.96069332  0.57170358  1  -0.820002  0.050536  1.955027  0.069  -0.769837  0.037569  2.162474  0.054  -0.80193  0.029944  2.125721  0.046  -0.573158  -0.746454  0.040766  2.190743  0.057
O  O60  1  0.29339000  0.03930649  0.42829397  1  -0.819987  0.050533  1.955002  0.069  -0.769795  0.037568  2.162508  0.054  -0.801887  0.029942  2.125746  0.046  -0.573153  -0.746417  0.040764  2.190766  0.057
