# generated using pymatgen
data_H5PbC8NO7
_symmetry_space_group_name_H-M   'P 1'
_cell_length_a   7.09404092
_cell_length_b   7.48615436
_cell_length_c   9.76390475
_cell_angle_alpha   89.11202088
_cell_angle_beta   82.45371955
_cell_angle_gamma   76.84195288
_symmetry_Int_Tables_number   1
_chemical_formula_structural   H5PbC8NO7
_chemical_formula_sum   'H10 Pb2 C16 N2 O14'
_cell_volume   500.49016363
_cell_formula_units_Z   2
loop_
 _symmetry_equiv_pos_site_id
 _symmetry_equiv_pos_as_xyz
  1  'x, y, z'
loop_
 _atom_site_type_symbol
 _atom_site_label
 _atom_site_symmetry_multiplicity
 _atom_site_fract_x
 _atom_site_fract_y
 _atom_site_fract_z
 _atom_site_occupancy
 _atom_site_hle17_bader_spin_density
 _atom_site_hle17_ddec_charge
 _atom_site_hle17_ddec_spin_density
 _atom_site_hle17_ddec_sum_bond_order
 _atom_site_hle17_magmom
 _atom_site_hse06_10hf_bader_spin_density
 _atom_site_hse06_10hf_ddec_charge
 _atom_site_hse06_10hf_ddec_spin_density
 _atom_site_hse06_10hf_ddec_sum_bond_order
 _atom_site_hse06_10hf_magmom
 _atom_site_hse06_bader_spin_density
 _atom_site_hse06_ddec_charge
 _atom_site_hse06_ddec_spin_density
 _atom_site_hse06_ddec_sum_bond_order
 _atom_site_hse06_magmom
 _atom_site_pbe_bader_spin_density
 _atom_site_pbe_cm5_charge
 _atom_site_pbe_ddec_charge
 _atom_site_pbe_ddec_spin_density
 _atom_site_pbe_ddec_sum_bond_order
 _atom_site_pbe_magmom
H  H0  1  0.75557925  0.17841288  0.66106454  1  0  0.131396  0  0.928649  0  0  0.138968  0  0.989585  0  0  0.14355  0  0.985506  0  0  0.120976  0.135573  0  0.992465  0
H  H1  1  0.24440479  0.82158653  0.33893420  1  0  0.131351  0  0.928534  0  0  0.138935  0  0.989472  0  0  0.14352  0  0.985395  0  0  0.120921  0.135537  0  0.992354  0
H  H2  1  0.73819198  0.76031214  0.36527664  1  0  0.140047  0  0.96424  0  0  0.14449  0  1.028645  0  0  0.149466  0  1.02406  0  0  0.115556  0.141072  0  1.031624  0
H  H3  1  0.26182325  0.23968736  0.63472349  1  0  0.140042  0  0.964218  0  0  0.144463  0  1.028652  0  0  0.149453  0  1.024049  0  0  0.115516  0.141045  0  1.031636  0
H  H4  1  0.76019427  0.53045133  0.55249722  1  0  0.117744  0  0.947909  0  0  0.127647  0  1.006101  0  0  0.131432  0  1.004002  0  0  0.110118  0.124878  0  1.007763  0
H  H5  1  0.23982500  0.46955502  0.44750141  1  0  0.11774  0  0.947934  0  0  0.127631  0  1.006136  0  0  0.131417  0  1.004035  0  0  0.110086  0.124859  0  1.007801  0
H  H6  1  0.73901705  0.76513173  0.11696187  1  0  0.429411  0  0.86265  0  0  0.400639  0  0.925726  0  0  0.411071  0  0.910555  0  0  0.296014  0.393279  0  0.936429  0
H  H7  1  0.26098455  0.23486619  0.88302615  1  0  0.429492  0  0.86255  0  0  0.400718  0  0.925613  0  0  0.411151  0  0.91044  0  0  0.296005  0.39336  0  0.936313  0
H  H8  1  0.51991962  0.75375977  0.14437819  1  0  0.421212  0  0.885911  0  0  0.386935  0  0.955489  0  0  0.398037  0  0.939678  0  0  0.286781  0.379032  0  0.966703  0
H  H9  1  0.48007792  0.24623688  0.85561738  1  0  0.421282  0  0.885828  0  0  0.387013  0  0.95539  0  0  0.398113  0  0.939579  0  0  0.286815  0.379111  0  0.966605  0
Pb  Pb10  1  0.77011238  0.36005381  0.08741222  1  0  1.407551  0  1.366312  0  0  1.219517  0  1.770534  0  0  1.282157  0  1.720882  0  0  0.65279  1.173289  0  1.805714  0
Pb  Pb11  1  0.22987670  0.63994277  0.91257999  1  0  1.407509  0  1.366298  0  0  1.219466  0  1.770524  0  0  1.282109  0  1.720872  0  0  0.652754  1.173237  0  1.80573  0
C  C12  1  0.77423824  0.72341485  0.71152953  1  0  -0.012007  0  3.665113  0  0  -0.007536  0  3.911808  0  0  -0.007254  0  3.928812  0  0  0.013496  -0.008301  0  3.900619  0
C  C13  1  0.22576579  0.27657783  0.28847579  1  0  -0.01197  0  3.665495  0  0  -0.007534  0  3.912208  0  0  -0.007253  0  3.929214  0  0  0.013465  -0.00829  0  3.900996  0
C  C14  1  0.77088052  0.90748354  0.74332003  1  0  -0.079347  0  3.702257  0  0  -0.065956  0  3.9474  0  0  -0.074096  0  3.967852  0  0  -0.00968  -0.060749  0  3.93333  0
C  C15  1  0.22911078  0.09253241  0.25668292  1  0  -0.079348  0  3.702518  0  0  -0.065904  0  3.947658  0  0  -0.074039  0  3.968106  0  0  -0.009637  -0.060699  0  3.933576  0
C  C16  1  0.75947621  0.03587291  0.63790657  1  0  -0.084633  0  3.688791  0  0  -0.125318  0  3.955059  0  0  -0.121817  0  3.971196  0  0  -0.07037  -0.126598  0  3.943451  0
C  C17  1  0.24050529  0.96413624  0.36210247  1  0  -0.084682  0  3.688462  0  0  -0.125366  0  3.954745  0  0  -0.121874  0  3.970883  0  0  -0.070394  -0.126641  0  3.943126  0
C  C18  1  0.75165665  0.97988776  0.50376864  1  0  0.060026  0  3.732612  0  0  0.04355  0  3.995352  0  0  0.037971  0  4.019515  0  0  0.070978  0.046969  0  3.979208  0
C  C19  1  0.24833900  0.02011591  0.49623824  1  0  0.059975  0  3.732599  0  0  0.043472  0  3.995421  0  0  0.037893  0  4.019591  0  0  0.07091  0.046886  0  3.979277  0
C  C20  1  0.75114908  0.79901353  0.47043016  1  0  -0.066084  0  3.658406  0  0  -0.095409  0  3.920021  0  0  -0.09232  0  3.935683  0  0  -0.071348  -0.097813  0  3.909715  0
C  C21  1  0.24885663  0.20099006  0.52956970  1  0  -0.065982  0  3.658189  0  0  -0.095263  0  3.919763  0  0  -0.092186  0  3.93542  0  0  -0.071206  -0.097666  0  3.909466  0
C  C22  1  0.76247806  0.67171213  0.57591178  1  0  -0.071435  0  3.677864  0  0  -0.092991  0  3.931916  0  0  -0.09777  0  3.95101  0  0  -0.078267  -0.08994  0  3.919623  0
C  C23  1  0.23753551  0.32828867  0.42408335  1  0  -0.071443  0  3.67792  0  0  -0.092975  0  3.931969  0  0  -0.097755  0  3.951069  0  0  -0.078268  -0.089927  0  3.919677  0
C  C24  1  0.77849028  0.58020990  0.82172284  1  0  0.661683  0  3.9288  0  0  0.60364  0  4.23041  0  0  0.639985  0  4.221566  0  0  0.220861  0.579027  0  4.234976  0
C  C25  1  0.22151507  0.41978398  0.17827005  1  0  0.661743  0  3.928639  0  0  0.6037  0  4.230276  0  0  0.640045  0  4.221434  0  0  0.22088  0.579087  0  4.234835  0
C  C26  1  0.77585729  0.97144651  0.88851716  1  0  0.679065  0  3.88757  0  0  0.620548  0  4.19029  0  0  0.655874  0  4.182148  0  0  0.221101  0.596755  0  4.194661  0
C  C27  1  0.22413188  0.02855444  0.11149238  1  0  0.679109  0  3.887495  0  0  0.620469  0  4.190399  0  0  0.655796  0  4.182254  0  0  0.22114  0.596676  0  4.194771  0
N  N28  1  0.73957554  0.11565103  0.39495127  1  0  0.467322  0  3.956664  0  0  0.52317  0  4.209502  0  0  0.544236  0  4.220663  0  0  0.056893  0.509263  0  4.20178  0
N  N29  1  0.26042126  0.88435397  0.60505241  1  0  0.467448  0  3.956612  0  0  0.523237  0  4.209552  0  0  0.544302  0  4.220716  0  0  0.056937  0.509339  0  4.201822  0
O  O30  1  0.61536765  0.55926221  0.88232414  1  0  -0.652216  0  2.032753  0  0  -0.57501  0  2.273506  0  0  -0.609371  0  2.266521  0  0  -0.276526  -0.55038  0  2.277339  0
O  O31  1  0.38463810  0.44071915  0.11765665  1  0  -0.652286  0  2.032818  0  0  -0.575066  0  2.273572  0  0  -0.609429  0  2.266591  0  0  -0.276496  -0.55044  0  2.277407  0
O  O32  1  0.94080890  0.48284726  0.84766284  1  0  -0.649083  0  1.980115  0  0  -0.57678  0  2.212604  0  0  -0.610308  0  2.206315  0  0  -0.282638  -0.552198  0  2.215526  0
O  O33  1  0.05919576  0.51714938  0.15233109  1  0  -0.649124  0  1.98017  0  0  -0.576829  0  2.212673  0  0  -0.610356  0  2.206386  0  0  -0.282647  -0.552245  0  2.21559  0
O  O34  1  0.86594311  0.85994718  0.96960980  1  0  -0.661649  0  2.029015  0  0  -0.600223  0  2.268365  0  0  -0.628159  0  2.259279  0  0  -0.295173  -0.580391  0  2.273827  0
O  O35  1  0.13405748  0.14005373  0.03039568  1  0  -0.661695  0  2.028995  0  0  -0.600247  0  2.268426  0  0  -0.628181  0  2.259331  0  0  -0.295213  -0.580413  0  2.273882  0
O  O36  1  0.68718587  0.13706807  0.91869134  1  0  -0.651473  0  2.032028  0  0  -0.578893  0  2.268127  0  0  -0.608487  0  2.257899  0  0  -0.292179  -0.558017  0  2.274687  0
O  O37  1  0.31280288  0.86292876  0.08131831  1  0  -0.651498  0  2.031998  0  0  -0.578871  0  2.268158  0  0  -0.608467  0  2.257932  0  0  -0.292209  -0.557994  0  2.27472  0
O  O38  1  0.75431429  0.27373584  0.42169898  1  0  -0.376713  0  1.782476  0  0  -0.363264  0  1.979014  0  0  -0.377174  0  1.978008  0  0  -0.120148  -0.353853  0  1.979486  0
O  O39  1  0.24569200  0.72626507  0.57830600  1  0  -0.376699  0  1.782434  0  0  -0.36321  0  1.978988  0  0  -0.377121  0  1.977985  0  0  -0.120089  -0.353798  0  1.979457  0
O  O40  1  0.71519191  0.06706205  0.27808929  1  0  -0.371457  0  1.821563  0  0  -0.352443  0  2.028969  0  0  -0.36684  0  2.027406  0  0  -0.104559  -0.343214  0  2.030762  0
O  O41  1  0.28480535  0.93294703  0.72191224  1  0  -0.371575  0  1.821594  0  0  -0.352534  0  2.02902  0  0  -0.366937  0  2.027467  0  0  -0.104636  -0.343315  0  2.030818  0
O  O42  1  0.65123163  0.69656508  0.17091441  1  0  -0.839329  0  1.852051  0  0  -0.775239  0  2.033221  0  0  -0.800139  0  2.003165  0  0  -0.564659  -0.757642  0  2.053703  0
O  O43  1  0.34877485  0.30343014  0.82907631  1  0  -0.839421  0  1.851914  0  0  -0.775346  0  2.033108  0  0  -0.800248  0  2.003053  0  0  -0.564645  -0.757747  0  2.053592  0
