# generated using pymatgen
data_H18PbC28(NO2)2
_symmetry_space_group_name_H-M   'P 1'
_cell_length_a   8.12249376
_cell_length_b   10.86908447
_cell_length_c   12.77187431
_cell_angle_alpha   89.41283158
_cell_angle_beta   84.76761858
_cell_angle_gamma   85.18552352
_symmetry_Int_Tables_number   1
_chemical_formula_structural   H18PbC28(NO2)2
_chemical_formula_sum   'H36 Pb2 C56 N4 O8'
_cell_volume   1118.88895500
_cell_formula_units_Z   2
loop_
 _symmetry_equiv_pos_site_id
 _symmetry_equiv_pos_as_xyz
  1  'x, y, z'
loop_
 _atom_site_type_symbol
 _atom_site_label
 _atom_site_symmetry_multiplicity
 _atom_site_fract_x
 _atom_site_fract_y
 _atom_site_fract_z
 _atom_site_occupancy
 _atom_site_hle17_bader_spin_density
 _atom_site_hle17_ddec_charge
 _atom_site_hle17_ddec_spin_density
 _atom_site_hle17_ddec_sum_bond_order
 _atom_site_hle17_magmom
 _atom_site_hse06_10hf_bader_spin_density
 _atom_site_hse06_10hf_ddec_charge
 _atom_site_hse06_10hf_ddec_spin_density
 _atom_site_hse06_10hf_ddec_sum_bond_order
 _atom_site_hse06_10hf_magmom
 _atom_site_hse06_bader_spin_density
 _atom_site_hse06_ddec_charge
 _atom_site_hse06_ddec_spin_density
 _atom_site_hse06_ddec_sum_bond_order
 _atom_site_hse06_magmom
 _atom_site_pbe_bader_spin_density
 _atom_site_pbe_cm5_charge
 _atom_site_pbe_ddec_charge
 _atom_site_pbe_ddec_spin_density
 _atom_site_pbe_ddec_sum_bond_order
 _atom_site_pbe_magmom
H  H0  1  0.46514590  0.86796729  0.47087420  1  0  0.110584  0  0.951488  0  0  0.118749  0  1.016527  0  0  0.12265  0  1.013833  0  0  0.104606  0.115937  0  1.018643  0
H  H1  1  0.53484288  0.13201763  0.52912585  1  0  0.110559  0  0.951375  0  0  0.118714  0  1.016442  0  0  0.122616  0  1.013743  0  0  0.104586  0.115916  0  1.018544  0
H  H2  1  0.90784758  0.04772581  0.10465557  1  0  0.111425  0  0.94512  0  0  0.119873  0  1.008316  0  0  0.123769  0  1.006148  0  0  0.109507  0.117332  0  1.009585  0
H  H3  1  0.09219151  0.95230348  0.89535029  1  0  0.111424  0  0.945042  0  0  0.11988  0  1.008222  0  0  0.123746  0  1.00609  0  0  0.109508  0.117379  0  1.009463  0
H  H4  1  0.31676695  0.30575919  0.35703067  1  0  0.092099  0  0.972976  0  0  0.099618  0  1.037872  0  0  0.102824  0  1.034361  0  0  0.118985  0.097284  0  1.040281  0
H  H5  1  0.68328689  0.69425552  0.64296287  1  0  0.09205  0  0.972837  0  0  0.09967  0  1.037615  0  0  0.102876  0  1.034108  0  0  0.119034  0.097333  0  1.040026  0
H  H6  1  0.16306363  0.50218664  0.42570734  1  0  0.103037  0  0.961042  0  0  0.113257  0  1.024352  0  0  0.116012  0  1.024485  0  0  0.104537  0.111098  0  1.024681  0
H  H7  1  0.83703068  0.49784636  0.57429194  1  0  0.102945  0  0.961163  0  0  0.113193  0  1.024432  0  0  0.115927  0  1.024633  0  0  0.104519  0.111063  0  1.024724  0
H  H8  1  0.44876610  0.17533628  0.87605113  1  0  0.095027  0  0.948893  0  0  0.102048  0  1.015315  0  0  0.105098  0  1.011649  0  0  0.120912  0.099867  0  1.017816  0
H  H9  1  0.55118335  0.82464052  0.12393833  1  0  0.095083  0  0.949162  0  0  0.102071  0  1.015563  0  0  0.105117  0  1.011898  0  0  0.120956  0.099895  0  1.01806  0
H  H10  1  0.37190384  0.31485774  0.73284602  1  0  0.11241  0  0.951605  0  0  0.121844  0  1.013867  0  0  0.125354  0  1.012319  0  0  0.107933  0.119356  0  1.015014  0
H  H11  1  0.62807816  0.68514834  0.26715572  1  0  0.112392  0  0.951556  0  0  0.121821  0  1.013849  0  0  0.125329  0  1.012301  0  0  0.107879  0.119333  0  1.014997  0
H  H12  1  0.17370682  0.69913723  0.92172533  1  0  0.0851  0  0.996364  0  0  0.096032  0  1.061749  0  0  0.098081  0  1.061827  0  0  0.101947  0.094486  0  1.061857  0
H  H13  1  0.82624991  0.30087395  0.07827051  1  0  0.085201  0  0.996361  0  0  0.096164  0  1.061703  0  0  0.098212  0  1.061787  0  0  0.101988  0.094618  0  1.06181  0
H  H14  1  0.11018961  0.74544188  0.10673878  1  0  0.099549  0  0.967043  0  0  0.11066  0  1.026863  0  0  0.112439  0  1.027948  0  0  0.103973  0.109076  0  1.026793  0
H  H15  1  0.88977387  0.25452965  0.89326259  1  0  0.099548  0  0.966707  0  0  0.110524  0  1.026756  0  0  0.112303  0  1.027849  0  0  0.1039  0.108944  0  1.026677  0
H  H16  1  0.47363639  0.48138278  0.65176687  1  0  0.077353  0  0.990838  0  0  0.088354  0  1.055772  0  0  0.090362  0  1.056001  0  0  0.095411  0.086863  0  1.055793  0
H  H17  1  0.52635473  0.51863552  0.34824450  1  0  0.07724  0  0.990792  0  0  0.088338  0  1.055653  0  0  0.090346  0  1.055882  0  0  0.095385  0.086857  0  1.055668  0
H  H18  1  0.43197831  0.62140887  0.50119343  1  0  0.083542  0  0.95355  0  0  0.098427  0  1.008558  0  0  0.100723  0  1.007942  0  0  0.099554  0.096799  0  1.009031  0
H  H19  1  0.56800454  0.37858243  0.49880919  1  0  0.083478  0  0.953422  0  0  0.0984  0  1.008411  0  0  0.100697  0  1.007796  0  0  0.099549  0.09677  0  1.008887  0
H  H20  1  0.18755859  0.77760100  0.50827752  1  0  0.083616  0  0.982062  0  0  0.093108  0  1.047322  0  0  0.094474  0  1.048884  0  0  0.098015  0.092043  0  1.046407  0
H  H21  1  0.81246854  0.22241607  0.49173293  1  0  0.083564  0  0.982089  0  0  0.093106  0  1.047303  0  0  0.094471  0  1.048866  0  0  0.097947  0.092038  0  1.04639  0
H  H22  1  0.98553539  0.78886078  0.66849063  1  0  0.100792  0  0.953058  0  0  0.110905  0  1.013609  0  0  0.113798  0  1.012345  0  0  0.104559  0.10888  0  1.014426  0
H  H23  1  0.01450372  0.21117775  0.33151121  1  0  0.100457  0  0.953593  0  0  0.110763  0  1.013949  0  0  0.113675  0  1.012633  0  0  0.104468  0.108736  0  1.014765  0
H  H24  1  0.02437018  0.64891503  0.81579136  1  0  0.098667  0  0.968548  0  0  0.107221  0  1.03212  0  0  0.110182  0  1.030907  0  0  0.101094  0.105064  0  1.033101  0
H  H25  1  0.97561156  0.35110214  0.18420715  1  0  0.098745  0  0.968531  0  0  0.107341  0  1.032016  0  0  0.110297  0  1.030811  0  0  0.101127  0.105172  0  1.033015  0
H  H26  1  0.25213184  0.82193308  0.24300631  1  0  0.105335  0  0.959719  0  0  0.114492  0  1.023139  0  0  0.117655  0  1.021556  0  0  0.102628  0.112154  0  1.024506  0
H  H27  1  0.74786886  0.17804739  0.75698695  1  0  0.105432  0  0.959702  0  0  0.114567  0  1.023161  0  0  0.117729  0  1.021581  0  0  0.102603  0.112239  0  1.024499  0
H  H28  1  0.10771241  0.01208110  0.31897434  1  0  0.097617  0  0.97093  0  0  0.105962  0  1.034381  0  0  0.10892  0  1.033256  0  0  0.100939  0.103882  0  1.035148  0
H  H29  1  0.89234215  0.98790412  0.68105860  1  0  0.097636  0  0.970938  0  0  0.10601  0  1.034298  0  0  0.108962  0  1.033182  0  0  0.101018  0.103942  0  1.035073  0
H  H30  1  0.84728712  0.00358878  0.43890875  1  0  0.082437  0  0.973781  0  0  0.092504  0  1.037604  0  0  0.093928  0  1.039123  0  0  0.096711  0.09169  0  1.036172  0
H  H31  1  0.15272642  0.99641322  0.56108996  1  0  0.082512  0  0.973643  0  0  0.09251  0  1.037556  0  0  0.093934  0  1.039071  0  0  0.096693  0.091696  0  1.036126  0
H  H32  1  0.73660980  0.80213124  0.48251244  1  0  0.088786  0  0.977918  0  0  0.098222  0  1.042064  0  0  0.100997  0  1.04074  0  0  0.097922  0.09622  0  1.043121  0
H  H33  1  0.26338162  0.19787961  0.51748098  1  0  0.08866  0  0.977912  0  0  0.09818  0  1.041972  0  0  0.100905  0  1.040699  0  0  0.097873  0.096173  0  1.043035  0
H  H34  1  0.87890035  0.60899177  0.40172030  1  0  0.083667  0  0.972559  0  0  0.09482  0  1.036401  0  0  0.09707  0  1.036516  0  0  0.094499  0.093328  0  1.036167  0
H  H35  1  0.12107544  0.39101695  0.59826840  1  0  0.083644  0  0.972677  0  0  0.094812  0  1.036494  0  0  0.09706  0  1.036611  0  0  0.094569  0.09332  0  1.036259  0
Pb  Pb36  1  0.47747940  0.14484972  0.14338260  1  0  1.189341  0  1.477693  0  0  0.990583  0  1.873626  0  0  1.051264  0  1.835211  0  0  0.606393  0.94451  0  1.904677  0
Pb  Pb37  1  0.52256240  0.85501384  0.85657377  1  0  1.189156  0  1.477982  0  0  0.990399  0  1.87394  0  0  1.051077  0  1.835521  0  0  0.606377  0.944347  0  1.904989  0
C  C38  1  0.46991044  0.01656607  0.35154569  1  0  0.657093  0  3.955013  0  0  0.616396  0  4.237252  0  0  0.650548  0  4.230953  0  0  0.195789  0.593375  0  4.240228  0
C  C39  1  0.53006260  0.98343339  0.64845732  1  0  0.657311  0  3.954642  0  0  0.616528  0  4.237003  0  0  0.650683  0  4.230693  0  0  0.195941  0.593507  0  4.239989  0
C  C40  1  0.48204315  0.96591830  0.45966036  1  0  -0.162448  0  3.657797  0  0  -0.181561  0  3.913753  0  0  -0.185511  0  3.925318  0  0  -0.083219  -0.179166  0  3.906394  0
C  C41  1  0.51793426  0.03406827  0.54034022  1  0  -0.162281  0  3.657651  0  0  -0.181326  0  3.913625  0  0  -0.185277  0  3.925182  0  0  -0.083169  -0.178943  0  3.906255  0
C  C42  1  0.18038876  0.04698261  0.07618994  1  0  0.667558  0  3.918044  0  0  0.622543  0  4.202197  0  0  0.658123  0  4.194858  0  0  0.205033  0.598384  0  4.206065  0
C  C43  1  0.81962925  0.95302315  0.92380617  1  0  0.667809  0  3.917404  0  0  0.622875  0  4.201459  0  0  0.658454  0  4.194102  0  0  0.205023  0.598717  0  4.205338  0
C  C44  1  0.01265033  0.02295744  0.04689119  1  0  -0.155728  0  3.651011  0  0  -0.171234  0  3.897131  0  0  -0.175904  0  3.909729  0  0  -0.078602  -0.168111  0  3.88863  0
C  C45  1  0.98737749  0.97705683  0.95310829  1  0  -0.155482  0  3.650461  0  0  -0.170967  0  3.896539  0  0  -0.175604  0  3.909151  0  0  -0.078502  -0.167893  0  3.888016  0
C  C46  1  0.27996066  0.37993518  0.30383055  1  0  0.144919  0  3.719392  0  0  0.112304  0  3.977973  0  0  0.121687  0  3.99265  0  0  0.057492  0.106247  0  3.967674  0
C  C47  1  0.72008144  0.62006456  0.69617465  1  0  0.145096  0  3.719489  0  0  0.112444  0  3.978029  0  0  0.121839  0  3.992698  0  0  0.057551  0.106382  0  3.96774  0
C  C48  1  0.19524388  0.49026754  0.34150014  1  0  -0.168655  0  3.732449  0  0  -0.188068  0  3.985523  0  0  -0.195662  0  4.005358  0  0  -0.085721  -0.183208  0  3.972386  0
C  C49  1  0.80475807  0.50973144  0.65848583  1  0  -0.16877  0  3.732449  0  0  -0.188201  0  3.985581  0  0  -0.195802  0  4.005385  0  0  -0.085717  -0.183362  0  3.972442  0
C  C50  1  0.15793495  0.58590750  0.27249027  1  0  0.074436  0  3.724497  0  0  0.080267  0  3.956896  0  0  0.085  0  3.977501  0  0  0.019084  0.077296  0  3.94278  0
C  C51  1  0.84205531  0.41408392  0.72751199  1  0  0.074689  0  3.724047  0  0  0.080522  0  3.956511  0  0  0.085266  0  3.977107  0  0  0.01921  0.077543  0  3.942407  0
C  C52  1  0.20079261  0.56470382  0.16280388  1  0  -0.009422  0  3.743435  0  0  0.000497  0  3.976533  0  0  -0.00279  0  3.999575  0  0  -0.000539  0.002428  0  3.961147  0
C  C53  1  0.79918012  0.43530491  0.83720767  1  0  -0.009529  0  3.74307  0  0  0.000441  0  3.976128  0  0  -0.002838  0  3.99915  0  0  -0.000495  0.002372  0  3.960747  0
C  C54  1  0.27854824  0.44684685  0.13132508  1  0  0.131641  0  3.741145  0  0  0.124954  0  3.985106  0  0  0.13069  0  4.005194  0  0  0.119756  0.121145  0  3.971427  0
C  C55  1  0.72143875  0.55316947  0.86866614  1  0  0.131923  0  3.741175  0  0  0.125167  0  3.985278  0  0  0.130909  0  4.005355  0  0  0.119812  0.121355  0  3.971601  0
C  C56  1  0.30823983  0.41682738  0.02045405  1  0  0.14037  0  3.74288  0  0  0.130785  0  3.98766  0  0  0.135867  0  4.00838  0  0  0.118974  0.127376  0  3.973552  0
C  C57  1  0.69173652  0.58319431  0.97953685  1  0  0.140633  0  3.741857  0  0  0.130916  0  3.986796  0  0  0.135993  0  4.007518  0  0  0.119097  0.127507  0  3.972688  0
C  C58  1  0.39682077  0.26928392  0.89416075  1  0  0.150316  0  3.708071  0  0  0.119171  0  3.963444  0  0  0.128412  0  3.978343  0  0  0.0583  0.113299  0  3.953035  0
C  C59  1  0.60314302  0.73070151  0.10584753  1  0  0.150201  0  3.708946  0  0  0.119184  0  3.964137  0  0  0.128432  0  3.979036  0  0  0.058215  0.113303  0  3.953732  0
C  C60  1  0.35483393  0.35010358  0.81295436  1  0  -0.152968  0  3.691261  0  0  -0.174124  0  3.946484  0  0  -0.180776  0  3.965217  0  0  -0.082637  -0.16991  0  3.933868  0
C  C61  1  0.64513067  0.64989388  0.18705141  1  0  -0.153046  0  3.691625  0  0  -0.174265  0  3.946832  0  0  -0.180923  0  3.965565  0  0  -0.082618  -0.170047  0  3.934217  0
C  C62  1  0.28989376  0.47091676  0.83491716  1  0  0.070132  0  3.696653  0  0  0.07322  0  3.934899  0  0  0.077369  0  3.956143  0  0  0.016609  0.070698  0  3.920328  0
C  C63  1  0.71012570  0.52908809  0.16507576  1  0  0.070395  0  3.695892  0  0  0.073482  0  3.934047  0  0  0.077643  0  3.955263  0  0  0.016751  0.070949  0  3.919493  0
C  C64  1  0.26497515  0.50683574  0.94331181  1  0  -0.005816  0  3.722235  0  0  0.005822  0  3.955709  0  0  0.003181  0  3.978752  0  0  -0.000285  0.007411  0  3.940129  0
C  C65  1  0.73501496  0.49315192  0.05666935  1  0  -0.006188  0  3.722322  0  0  0.005644  0  3.955638  0  0  0.003007  0  3.978676  0  0  -0.00047  0.007237  0  3.940053  0
C  C66  1  0.19964126  0.62715380  0.97899556  1  0  -0.109222  0  3.772056  0  0  -0.132472  0  4.028137  0  0  -0.13589  0  4.051307  0  0  -0.089873  -0.129977  0  4.012504  0
C  C67  1  0.80028506  0.37284392  0.02100891  1  0  -0.10925  0  3.772234  0  0  -0.132582  0  4.028265  0  0  -0.136  0  4.051431  0  0  -0.089842  -0.130085  0  4.012631  0
C  C68  1  0.16542679  0.65403518  0.08335801  1  0  -0.088891  0  3.746882  0  0  -0.111808  0  4.000236  0  0  -0.114028  0  4.023002  0  0  -0.086551  -0.110378  0  3.985486  0
C  C69  1  0.83453044  0.34596398  0.91663714  1  0  -0.088794  0  3.745981  0  0  -0.111588  0  3.999408  0  0  -0.113814  0  4.022174  0  0  -0.086449  -0.110161  0  3.984663  0
C  C70  1  0.25538682  0.55573474  0.74673103  1  0  0.030843  0  3.781739  0  0  0.048899  0  4.013168  0  0  0.046871  0  4.037781  0  0  -0.011887  0.050306  0  3.996021  0
C  C71  1  0.74462247  0.44426346  0.25326165  1  0  0.03096  0  3.781661  0  0  0.048977  0  4.013165  0  0  0.046946  0  4.037777  0  0  -0.011848  0.050386  0  3.996014  0
C  C72  1  0.36536734  0.54793708  0.65475006  1  0  -0.117777  0  3.761626  0  0  -0.137825  0  4.007831  0  0  -0.140298  0  4.030154  0  0  -0.093108  -0.136149  0  3.992554  0
C  C73  1  0.63462393  0.45206727  0.34523716  1  0  -0.117682  0  3.761785  0  0  -0.137811  0  4.008002  0  0  -0.140282  0  4.030328  0  0  -0.093141  -0.136146  0  3.992718  0
C  C74  1  0.34205411  0.62720086  0.57013784  1  0  -0.068995  0  3.781626  0  0  -0.081783  0  4.033107  0  0  -0.083983  0  4.053966  0  0  -0.093497  -0.080149  0  4.018911  0
C  C75  1  0.65795029  0.37282134  0.42986424  1  0  -0.068993  0  3.781423  0  0  -0.081794  0  4.032925  0  0  -0.083997  0  4.05379  0  0  -0.093501  -0.080162  0  4.018731  0
C  C76  1  0.20635317  0.71549877  0.57441544  1  0  -0.060822  0  3.758705  0  0  -0.076232  0  4.007117  0  0  -0.077457  0  4.029362  0  0  -0.087162  -0.075385  0  3.991921  0
C  C77  1  0.79366059  0.28452456  0.42560029  1  0  -0.060619  0  3.758458  0  0  -0.076115  0  4.006969  0  0  -0.077343  0  4.029224  0  0  -0.086969  -0.075267  0  3.991769  0
C  C78  1  0.09395137  0.72239668  0.66384582  1  0  -0.066217  0  3.761081  0  0  -0.078495  0  4.008471  0  0  -0.081404  0  4.030641  0  0  -0.08914  -0.076274  0  3.992704  0
C  C79  1  0.90603301  0.27760112  0.33615745  1  0  -0.065879  0  3.761319  0  0  -0.078307  0  4.008695  0  0  -0.08121  0  4.030876  0  0  -0.089037  -0.076085  0  3.99292  0
C  C80  1  0.11772707  0.64350965  0.74893446  1  0  -0.116545  0  3.74606  0  0  -0.135157  0  3.991245  0  0  -0.137261  0  4.012758  0  0  -0.089866  -0.133316  0  3.976109  0
C  C81  1  0.88227387  0.35649397  0.25106483  1  0  -0.11675  0  3.746136  0  0  -0.135399  0  3.991404  0  0  -0.137503  0  4.012919  0  0  -0.089922  -0.133551  0  3.976272  0
C  C82  1  0.07236251  0.70235148  0.31482087  1  0  0.032689  0  3.803639  0  0  0.051887  0  4.030843  0  0  0.050282  0  4.054583  0  0  -0.013002  0.052912  0  4.014557  0
C  C83  1  0.92762595  0.29765195  0.68518450  1  0  0.032701  0  3.803251  0  0  0.051773  0  4.030649  0  0  0.050166  0  4.054389  0  0  -0.013056  0.0528  0  4.014359  0
C  C84  1  0.13608191  0.81670617  0.29225712  1  0  -0.113616  0  3.728256  0  0  -0.132239  0  3.970913  0  0  -0.134351  0  3.991037  0  0  -0.090823  -0.130746  0  3.957364  0
C  C85  1  0.86393064  0.18328289  0.70775585  1  0  -0.113677  0  3.728073  0  0  -0.132255  0  3.970749  0  0  -0.134368  0  3.990865  0  0  -0.090747  -0.130761  0  3.957215  0
C  C86  1  0.05596467  0.92441335  0.33752238  1  0  -0.070382  0  3.766675  0  0  -0.082555  0  4.01458  0  0  -0.085096  0  4.03636  0  0  -0.091969  -0.080836  0  3.99962  0
C  C87  1  0.94405496  0.07558042  0.66247690  1  0  -0.07069  0  3.767215  0  0  -0.082866  0  4.015178  0  0  -0.085397  0  4.036948  0  0  -0.092206  -0.081167  0  4.000236  0
C  C88  1  0.91119998  0.91933959  0.40472928  1  0  -0.063291  0  3.760025  0  0  -0.074492  0  4.000223  0  0  -0.076541  0  4.023577  0  0  -0.088639  -0.072851  0  3.983868  0
C  C89  1  0.08883301  0.08065353  0.59528268  1  0  -0.063138  0  3.760089  0  0  -0.074281  0  4.000314  0  0  -0.076328  0  4.023654  0  0  -0.088502  -0.072642  0  3.983966  0
C  C90  1  0.84816031  0.80575573  0.42865520  1  0  -0.067745  0  3.771473  0  0  -0.078416  0  4.014934  0  0  -0.081049  0  4.037113  0  0  -0.092537  -0.076723  0  4.000027  0
C  C91  1  0.15185429  0.19424448  0.57135992  1  0  -0.067734  0  3.771106  0  0  -0.078457  0  4.014557  0  0  -0.081051  0  4.036764  0  0  -0.092491  -0.07676  0  3.999646  0
C  C92  1  0.92842125  0.69791188  0.38422305  1  0  -0.118081  0  3.750549  0  0  -0.13609  0  3.99296  0  0  -0.13837  0  4.014617  0  0  -0.092962  -0.134259  0  3.977906  0
C  C93  1  0.07155554  0.30209778  0.61576950  1  0  -0.117949  0  3.75002  0  0  -0.135933  0  3.992516  0  0  -0.138208  0  4.014158  0  0  -0.092968  -0.134103  0  3.97746  0
N  N94  1  0.32197394  0.35857741  0.20215360  1  0  -0.343175  0  3.191336  0  0  -0.279159  0  3.44801  0  0  -0.297661  0  3.467215  0  0  -0.294762  -0.266228  0  3.434671  0
N  N95  1  0.67806111  0.64142035  0.79784882  1  0  -0.343322  0  3.192752  0  0  -0.279218  0  3.449408  0  0  -0.297734  0  3.46862  0  0  -0.294857  -0.266278  0  3.436064  0
N  N96  1  0.37431890  0.30120654  0.99495074  1  0  -0.365906  0  3.225197  0  0  -0.301098  0  3.478476  0  0  -0.320044  0  3.499773  0  0  -0.299018  -0.287973  0  3.463846  0
N  N97  1  0.62567597  0.69881364  0.00504869  1  0  -0.366024  0  3.224989  0  0  -0.30124  0  3.478284  0  0  -0.320194  0  3.499589  0  0  -0.299051  -0.28811  0  3.463659  0
O  O98  1  0.44463755  0.13410569  0.34126631  1  0  -0.655427  0  1.975598  0  0  -0.588142  0  2.205004  0  0  -0.618168  0  2.199224  0  0  -0.315386  -0.566728  0  2.207901  0
O  O99  1  0.55531293  0.86587857  0.65873791  1  0  -0.655554  0  1.97552  0  0  -0.588251  0  2.205  0  0  -0.618297  0  2.199252  0  0  -0.315513  -0.566832  0  2.207902  0
O  O100  1  0.48724457  0.94164105  0.27485963  1  0  -0.644073  0  1.900322  0  0  -0.586751  0  2.120439  0  0  -0.614253  0  2.113352  0  0  -0.31727  -0.566946  0  2.124364  0
O  O101  1  0.51274354  0.05835682  0.72514267  1  0  -0.644095  0  1.900215  0  0  -0.586773  0  2.120355  0  0  -0.614272  0  2.113283  0  0  -0.317295  -0.566974  0  2.124281  0
O  O102  1  0.18379747  0.12010140  0.15453175  1  0  -0.607362  0  1.937721  0  0  -0.537883  0  2.169354  0  0  -0.568042  0  2.16261  0  0  -0.290969  -0.516274  0  2.173062  0
O  O103  1  0.81622158  0.87987576  0.84548650  1  0  -0.607557  0  1.937631  0  0  -0.538123  0  2.169211  0  0  -0.568285  0  2.162478  0  0  -0.29095  -0.516516  0  2.172931  0
O  O104  1  0.31073271  0.99965642  0.02463539  1  0  -0.66809  0  1.949931  0  0  -0.598222  0  2.180008  0  0  -0.629466  0  2.174466  0  0  -0.302016  -0.575545  0  2.183503  0
O  O105  1  0.68930176  0.00036442  0.97535745  1  0  -0.668172  0  1.949901  0  0  -0.598277  0  2.179812  0  0  -0.629517  0  2.17427  0  0  -0.301985  -0.575599  0  2.183303  0
