# generated using pymatgen
data_Zn4H53C86I5(N11O6)2
_symmetry_space_group_name_H-M   'P 1'
_cell_length_a   15.62797260
_cell_length_b   16.10226909
_cell_length_c   15.32719578
_cell_angle_alpha   114.44757106
_cell_angle_beta   110.41239491
_cell_angle_gamma   103.17736724
_symmetry_Int_Tables_number   1
_chemical_formula_structural   Zn4H53C86I5(N11O6)2
_chemical_formula_sum   'Zn4 H53 C86 I5 N22 O12'
_cell_volume   2960.86865630
_cell_formula_units_Z   1
loop_
 _symmetry_equiv_pos_site_id
 _symmetry_equiv_pos_as_xyz
  1  'x, y, z'
loop_
 _atom_site_type_symbol
 _atom_site_label
 _atom_site_symmetry_multiplicity
 _atom_site_fract_x
 _atom_site_fract_y
 _atom_site_fract_z
 _atom_site_occupancy
 _atom_site_pbe_bader_charge
 _atom_site_pbe_bader_spin_density
 _atom_site_pbe_cm5_charge
 _atom_site_pbe_ddec_charge
 _atom_site_pbe_ddec_spin_density
 _atom_site_pbe_ddec_sum_bond_order
 _atom_site_pbe_magmom
Zn  Zn0  1  0.00821795  0.36675528  0.87255900  1  1.200971  0  0.752418  0.655414  0  2.310522  0
Zn  Zn1  1  0.01059216  0.65822508  0.14503004  1  1.182753  0  0.713203  0.634451  0  2.355061  0
Zn  Zn2  1  0.14820083  0.51149268  0.14921717  1  1.19275  0  0.760741  0.64871  0  2.404085  0
Zn  Zn3  1  0.87288026  0.51301141  0.86401501  1  1.181119  0  0.711188  0.600031  0  2.387916  0
H  H4  1  0.93884579  0.14147433  0.85212795  1  0.120299  0  0.114689  0.099139  0  1.018974  0
H  H5  1  0.05887916  0.40555095  0.24131774  1  0.083287  0  0.113204  0.098068  0  1.051108  0
H  H6  1  0.65203961  0.30581953  0.65386725  1  0.103586  0  0.105648  0.092537  0  1.071913  0
H  H7  1  0.90297734  0.59739532  0.26203983  1  0.109123  0  0.098083  0.087553  0  1.088766  0
H  H8  1  0.82576329  0.16415129  0.77126206  1  0.100463  0  0.113302  0.101753  0  1.036185  0
H  H9  1  0.68117777  0.38467808  0.85539993  1  0.12454  0  0.113919  0.107519  0  1.025688  0
H  H10  1  0.15157423  0.33306386  0.20280290  1  0.097181  0  0.108826  0.09052  0  1.061902  0
H  H11  1  0.02310884  0.34849375  0.63297344  1  0.068058  0  0.111004  0.090591  0  1.019448  0
H  H12  1  0.21654874  0.86318442  0.27917560  1  0.08729  0  0.10144  0.092363  0  1.052868  0
H  H13  1  0.36808723  0.60388202  0.18301178  1  0.105024  0  0.11684  0.105994  0  1.013893  0
H  H14  1  0.86414080  0.70987376  0.82543271  1  0.130939  0  0.10973  0.104102  0  1.033918  0
H  H15  1  0.18846062  0.38013631  0.83063111  1  0.105446  0  0.114887  0.101928  0  1.002944  0
H  H16  1  0.97825815  0.61760065  0.78125294  1  0.123991  0  0.112706  0.101358  0  1.051833  0
H  H17  1  0.36509828  0.70105310  0.38800081  1  0.077673  0  0.118136  0.110422  0  0.992052  0
H  H18  1  0.92057118  0.08119414  0.42996736  1  0.046952  0  0.094695  0.090894  0  1.007105  0
H  H19  1  0.84079293  0.20263882  0.45906997  1  0.076267  0  0.091531  0.088599  0  1.030615  0
H  H20  1  0.69657743  0.16890830  0.49022721  1  0.067125  0  0.103493  0.109507  0  1.005611  0
H  H21  1  0.85076707  0.92802100  0.43202813  1  0.069898  0  0.086689  0.098737  0  1.028503  0
H  H22  1  0.50093721  0.86807731  0.35407763  1  0.076724  0  0.095663  0.104496  0  1.018111  0
H  H23  1  0.53700944  0.14418086  0.68899721  1  0.08217  0  0.101351  0.108525  0  1.006738  0
H  H24  1  0.26283344  0.01146155  0.44467147  1  0.049231  0  0.089055  0.083761  0  1.045185  0
H  H25  1  0.13910359  0.02845132  0.50969532  1  0.017118  0  0.086262  0.088388  0  1.017439  0
H  H26  1  0.16028209  0.01927265  0.67399965  1  0.077364  0  0.100259  0.100452  0  0.991984  0
H  H27  1  0.30696361  0.99435824  0.77298231  1  0.072685  0  0.10563  0.105947  0  0.982161  0
H  H28  1  0.43214538  0.98082548  0.70958821  1  0.093926  0  0.107044  0.111268  0  0.983428  0
H  H29  1  0.49170236  0.29475654  0.50830531  1  0.083897  0  0.106573  0.116689  0  0.985809  0
H  H30  1  0.61296199  0.54750573  0.84044932  1  0.076758  0  0.10703  0.12407  0  0.997476  0
H  H31  1  0.36968768  0.26384849  0.71165666  1  0.070969  0  0.101533  0.105918  0  1.005885  0
H  H32  1  0.36625173  0.19231546  0.53187240  1  0.071081  0  0.100891  0.100506  0  1.006375  0
H  H33  1  0.34620904  0.43952356  0.83564265  1  0.058604  0  0.096914  0.102815  0  1.021815  0
H  H34  1  0.63691363  0.49250056  0.15058567  1  0.097372  0  0.091926  0.100112  0  1.065905  0
H  H35  1  0.64459034  0.59666030  0.30040723  1  0.071364  0  0.082276  0.079403  0  1.079991  0
H  H36  1  0.65071580  0.60342925  0.46659444  1  0.074097  0  0.092558  0.096343  0  1.003184  0
H  H37  1  0.49475058  0.50521805  0.45531828  1  0.056656  0  0.086085  0.076385  0  1.054974  0
H  H38  1  0.33368696  0.39425949  0.27262605  1  0.046697  0  0.087751  0.079486  0  1.055319  0
H  H39  1  0.32873696  0.38292626  0.10549923  1  0.090961  0  0.098124  0.102548  0  1.016214  0
H  H40  1  0.04609002  0.38410180  0.52399672  1  0.099456  0  0.125392  0.093353  0  1.005398  0
H  H41  1  0.11633642  0.47536360  0.42447983  1  0.120832  0  0.116051  0.135868  0  0.998905  0
H  H42  1  0.00623803  0.36232194  0.35478056  1  0.072543  0  0.105572  0.118748  0  0.989824  0
H  H43  1  0.89167655  0.35396251  0.44071895  1  0.171997  0  0.140914  0.117574  0  1.019727  0
H  H44  1  0.12268290  0.62215876  0.52757460  1  0.169552  0  0.11753  0.128775  0  1.024638  0
H  H45  1  0.28724010  0.38020198  0.56952602  1  0.057257  0  0.10013  0.101673  0  1.007808  0
H  H46  1  0.35517330  0.36782706  0.44261610  1  0.088374  0  0.100618  0.100361  0  1.012565  0
H  H47  1  0.24492548  0.24260177  0.24016802  1  0.047952  0  0.105733  0.108516  0  0.999927  0
H  H48  1  0.99341127  0.14931825  0.28802510  1  0.053909  0  0.100112  0.103833  0  1.003256  0
H  H49  1  0.10594183  0.26776808  0.49188974  1  0.044915  0  0.093797  0.0875  0  1.011742  0
H  H50  1  0.06439240  0.00670839  0.18585839  1  0.050668  0  0.078406  0.081279  0  1.095989  0
H  H51  1  0.85851122  0.02691625  0.87774841  1  0.05278  0  0.100012  0.104685  0  1.017499  0
H  H52  1  0.77753413  0.86243831  0.71347537  1  0.063217  0  0.087556  0.082605  0  1.047331  0
H  H53  1  0.59790121  0.74184321  0.57457694  1  0.033756  0  0.08367  0.078978  0  1.053079  0
H  H54  1  0.48731166  0.65524324  0.62435208  1  0.071979  0  0.097465  0.098019  0  0.997152  0
H  H55  1  0.55938321  0.69012979  0.81544697  1  0.060406  0  0.101108  0.102031  0  0.99081  0
H  H56  1  0.73917407  0.81187993  0.95545214  1  0.062932  0  0.097894  0.09997  0  1.006463  0
C  C57  1  0.99308328  0.20334178  0.93698631  1  0.376631  0  0.007543  -0.046307  0  3.986278  0
C  C58  1  0.76818542  0.59644022  0.08867929  1  0.261334  0  0.040054  0.081952  0  3.950338  0
C  C59  1  0.02593902  0.45676884  0.23593884  1  0.423731  0  0.000624  -0.043415  0  3.97487  0
C  C60  1  0.70932258  0.28749615  0.69564539  1  0.444368  0  0.009666  -0.04928  0  3.973371  0
C  C61  1  0.94602188  0.55444359  0.24661008  1  0.423558  0  -0.003194  -0.038773  0  3.960567  0
C  C62  1  0.79819378  0.21510913  0.75534670  1  0.360356  0  0.003501  -0.053729  0  3.975411  0
C  C63  1  0.71974529  0.45808318  0.93219446  1  0.369961  0  0.004407  -0.029716  0  3.968814  0
C  C64  1  0.10291424  0.29978118  0.11525307  1  0.36629  0  0.000852  -0.058796  0  4.000927  0
C  C65  1  0.02739336  0.20001223  0.03302596  1  0.022702  0  -0.036404  -0.034975  0  4.069543  0
C  C66  1  0.68401771  0.50142989  0.00342358  1  0.039957  0  -0.041408  -0.066936  0  4.052057  0
C  C67  1  0.97992472  0.50124884  0.29327805  1  -0.004201  0  -0.056635  -0.07225  0  4.035239  0
C  C68  1  0.70231858  0.19284011  0.67770590  1  -0.016451  0  -0.034348  -0.030409  0  4.09172  0
C  C69  1  0.00827905  0.41006915  0.67942687  1  0.488521  0  0.008049  -0.026875  0  4.014151  0
C  C70  1  0.23700649  0.80848499  0.29414217  1  0.425358  0  -0.000907  -0.049391  0  4.003586  0
C  C71  1  0.30949608  0.54956266  0.09710390  1  0.374897  0  0.008915  -0.043506  0  3.955359  0
C  C72  1  0.90546357  0.73143348  0.91063701  1  0.384656  0  0.009826  -0.041052  0  3.948819  0
C  C73  1  0.98761770  0.80787750  0.09122517  1  0.266622  0  0.041136  0.068002  0  3.924036  0
C  C74  1  0.21760571  0.43551346  0.91728555  1  0.411445  0  0.00936  -0.0437  0  3.964299  0
C  C75  1  0.98603032  0.54763677  0.75503523  1  0.425933  0  -0.003879  -0.034187  0  4.001916  0
C  C76  1  0.31291210  0.72581117  0.34930673  1  0.400971  0  0.007193  -0.047314  0  3.982428  0
C  C77  1  0.00536625  0.49367678  0.67100880  1  -0.011286  0  -0.066837  -0.105063  0  4.047008  0
C  C78  1  0.33138212  0.82234310  0.36657844  1  0.025295  0  -0.035623  -0.025393  0  4.058397  0
C  C79  1  0.31735758  0.48723277  0.00656647  1  -0.002454  0  -0.033841  -0.029976  0  4.078789  0
C  C80  1  0.93820436  0.82416172  0.00744973  1  0.035122  0  -0.032285  -0.050898  0  4.052206  0
C  C81  1  0.81196638  0.13474212  0.45983496  1  -0.049281  0  -0.099998  -0.083798  0  4.033275  0
C  C82  1  0.72990516  0.11547636  0.47723302  1  -0.005795  0  -0.08312  -0.102708  0  3.942926  0
C  C83  1  0.68840134  0.02913947  0.47923209  1  0.008869  0  -0.009174  0.041418  0  3.967563  0
C  C84  1  0.73372013  0.96194748  0.46125263  1  -0.25004  0  -0.050205  0.006326  0  3.874314  0
C  C85  1  0.81678918  0.98099607  0.44440828  1  0.020537  0  -0.109282  -0.129899  0  4.045002  0
C  C86  1  0.85620068  0.06753980  0.44384232  1  -0.099468  0  -0.100169  -0.083862  0  4.041925  0
C  C87  1  0.50995084  0.92884476  0.42893570  1  -0.033843  0  -0.093417  -0.176917  0  3.980605  0
C  C88  1  0.42644215  0.91700897  0.44604572  1  -0.006056  0  -0.005491  0.05093  0  3.983254  0
C  C89  1  0.43646995  0.99606567  0.54173360  1  0.017114  0  -0.005842  0.026975  0  3.975231  0
C  C90  1  0.52881980  0.08301766  0.61496140  1  -0.077963  0  -0.092286  -0.180728  0  3.986978  0
C  C91  1  0.61137242  0.09538715  0.59703996  1  -0.004539  0  -0.004736  0.054462  0  4.001323  0
C  C92  1  0.60268821  0.01638054  0.50227526  1  -0.007433  0  -0.013445  0.021767  0  3.980539  0
C  C93  1  0.27197715  0.00668805  0.51602804  1  -0.084271  0  -0.099301  -0.140875  0  4.008321  0
C  C94  1  0.20221538  0.01584049  0.55246441  1  -0.02787  0  -0.109571  -0.095208  0  4.050526  0
C  C95  1  0.21441822  0.01169274  0.64514017  1  -0.11172  0  -0.102243  -0.096644  0  4.04597  0
C  C96  1  0.29708206  0.99838484  0.70103354  1  -0.000852  0  -0.091698  -0.077596  0  4.035443  0
C  C97  1  0.36720990  0.99022914  0.66512189  1  -0.089054  0  -0.086592  -0.127429  0  3.956362  0
C  C98  1  0.35557172  0.99419626  0.57199714  1  0.014439  0  -0.003451  0.083673  0  3.987488  0
C  C99  1  0.55877329  0.42689344  0.67330802  1  -0.252988  0  -0.051737  0.045312  0  3.958115  0
C  C100  1  0.55862634  0.46993035  0.77311527  1  -0.024881  0  -0.094697  -0.175602  0  3.980245  0
C  C101  1  0.49075722  0.41068266  0.78809166  1  0.00468  0  0.00119  0.097411  0  3.976226  0
C  C102  1  0.42125002  0.31072602  0.69978063  1  -0.093604  0  -0.088757  -0.139009  0  3.954786  0
C  C103  1  0.42030266  0.27009179  0.59931502  1  -0.012519  0  -0.088223  -0.058239  0  4.024733  0
C  C104  1  0.48999181  0.32737581  0.58539817  1  -0.024937  0  -0.103422  -0.147868  0  4.037294  0
C  C105  1  0.41005075  0.45030288  0.90537136  1  -0.033642  0  -0.09565  -0.187171  0  3.985186  0
C  C106  1  0.40566018  0.47409916  0.00239093  1  -0.026096  0  -0.007202  0.049825  0  4.009312  0
C  C107  1  0.48666939  0.48320284  0.09076713  1  -0.002098  0  -0.007487  0.028513  0  3.944099  0
C  C108  1  0.57352609  0.48429044  0.08296246  1  -0.023117  0  -0.098543  -0.176287  0  3.985137  0
C  C109  1  0.58273348  0.47314097  0.99162481  1  0.013608  0  -0.012202  0.053258  0  4.00663  0
C  C110  1  0.49521933  0.44669130  0.89649539  1  -0.008173  0  -0.01015  0.024455  0  3.98237  0
C  C111  1  0.57598108  0.55207331  0.29380703  1  -0.011939  0  -0.100897  -0.131624  0  3.975272  0
C  C112  1  0.57933434  0.55675760  0.38799767  1  -0.080272  0  -0.102822  -0.076529  0  4.013979  0
C  C113  1  0.49196756  0.50110262  0.38144599  1  -0.080559  0  -0.106018  -0.098709  0  4.04191  0
C  C114  1  0.40210966  0.43920254  0.27920282  1  -0.084559  0  -0.106258  -0.096726  0  4.052697  0
C  C115  1  0.39915608  0.43308827  0.18461853  1  -0.025512  0  -0.095376  -0.133107  0  3.983834  0
C  C116  1  0.48594381  0.49064774  0.19040402  1  -0.072892  0  -0.008477  0.079881  0  3.961722  0
C  C117  1  0.06570504  0.45707011  0.53096304  1  0.152837  0  0.004068  -0.038044  0  3.69013  0
C  C118  1  0.04381812  0.44332892  0.41964736  1  -0.056317  0  -0.166718  -0.267099  0  3.876783  0
C  C119  1  0.89100586  0.42842442  0.46832428  1  0.15522  0  0.007253  -0.117319  0  3.664071  0
C  C120  1  0.03127456  0.61312286  0.59683895  1  0.359503  0  0.149078  0.042219  0  3.583966  0
C  C121  1  0.00117645  0.50458291  0.57707151  1  0.063077  0  0.020509  0.059956  0  3.691289  0
C  C122  1  0.98132659  0.49950919  0.39054769  1  0.058499  0  0.00408  0.100034  0  3.765608  0
C  C123  1  0.87520027  0.43927263  0.36998842  1  0.359258  0  0.156144  0.026264  0  3.570158  0
C  C124  1  0.04331746  0.60958993  0.50067153  1  -0.199671  0  -0.107365  -0.152627  0  3.64388  0
C  C125  1  0.27540413  0.32105232  0.40878663  1  -0.085279  0  -0.092125  -0.076688  0  4.012284  0
C  C126  1  0.21323488  0.25147754  0.29479951  1  -0.043807  0  -0.091344  -0.140724  0  3.985028  0
C  C127  1  0.11064076  0.19002698  0.24968963  1  0.025166  0  -0.00308  0.089901  0  3.974397  0
C  C128  1  0.07267744  0.19865878  0.32241415  1  -0.144779  0  -0.098428  -0.14744  0  3.984607  0
C  C129  1  0.13574923  0.26598706  0.43667663  1  -0.048298  0  -0.105293  -0.09745  0  4.057833  0
C  C130  1  0.23731468  0.32825111  0.48038680  1  0.010094  0  -0.099043  -0.088695  0  4.019812  0
C  C131  1  0.01704985  0.00962899  0.11670365  1  0.001333  0  -0.10238  -0.185899  0  4.015361  0
C  C132  1  0.93990107  0.91932241  0.01897669  1  -0.024147  0  -0.013845  0.048711  0  4.019733  0
C  C133  1  0.87464027  0.92791315  0.93481766  1  0.015811  0  -0.005873  0.033965  0  3.954392  0
C  C134  1  0.90669621  0.02153324  0.94463246  1  -0.048078  0  -0.090694  -0.175797  0  3.934489  0
C  C135  1  0.99331902  0.11041614  0.03813803  1  -0.014545  0  -0.005301  0.051597  0  4.010377  0
C  C136  1  0.04115669  0.10519708  0.13173541  1  -0.033891  0  -0.014866  0.015933  0  3.968934  0
C  C137  1  0.73022238  0.82507170  0.73664394  1  -0.067527  0  -0.100404  -0.141011  0  3.984333  0
C  C138  1  0.62878184  0.75668455  0.65800920  1  -0.051586  0  -0.10232  -0.08698  0  4.05146  0
C  C139  1  0.56680829  0.70788933  0.68564384  1  -0.03325  0  -0.101405  -0.096102  0  4.03947  0
C  C140  1  0.60739023  0.72728857  0.79276974  1  -0.170097  0  -0.098238  -0.087516  0  4.051339  0
C  C141  1  0.70866649  0.79541688  0.87135764  1  0.027819  0  -0.09234  -0.13287  0  3.978011  0
C  C142  1  0.77169100  0.84636586  0.84508115  1  0.015585  0  -0.009482  0.074416  0  3.986935  0
I  I143  1  0.03257156  0.88413077  0.25883716  1  0.151463  0  0.168874  0.024609  0  1.862365  0
I  I144  1  0.77687995  0.71050774  0.22724425  1  0.125592  0  0.087977  -0.049212  0  1.718247  0
I  I145  1  0.68214950  0.82693233  0.45854003  1  0.095816  0  0.099979  -0.015269  0  1.613073  0
I  I146  1  0.67418786  0.50808894  0.65883419  1  0.128998  0  0.14739  0.033502  0  1.687206  0
I  I147  1  0.06358511  0.74595508  0.49631327  1  0.182335  0  0.117823  0.037522  0  1.646921  0
N  N148  1  0.04173649  0.29681654  0.96052370  1  -0.806438  0  -0.26808  -0.194568  0  3.527677  0
N  N149  1  0.84543195  0.60935706  0.06863038  1  -0.765712  0  -0.277781  -0.243338  0  3.507212  0
N  N150  1  0.02362565  0.48493231  0.16403425  1  -0.772608  0  -0.282748  -0.183121  0  3.566038  0
N  N151  1  0.80296385  0.35997006  0.77669156  1  -0.790405  0  -0.273926  -0.158061  0  3.601567  0
N  N152  1  0.97574970  0.54603631  0.17199712  1  -0.769212  0  -0.271546  -0.145061  0  3.559132  0
N  N153  1  0.85826553  0.31619757  0.81527475  1  -0.785745  0  -0.28286  -0.194846  0  3.568381  0
N  N154  1  0.81524152  0.52304840  0.97071792  1  -0.803187  0  -0.275936  -0.195359  0  3.54797  0
N  N155  1  0.11090875  0.35707641  0.07212384  1  -0.775131  0  -0.271403  -0.18467  0  3.511802  0
N  N156  1  0.98968696  0.41348977  0.75917440  1  -0.774571  0  -0.263505  -0.169757  0  3.509979  0
N  N157  1  0.16702677  0.71192701  0.23937148  1  -0.810934  0  -0.275584  -0.20556  0  3.553627  0
N  N158  1  0.21153725  0.53321851  0.06383817  1  -0.767601  0  -0.292839  -0.196129  0  3.582851  0
N  N159  1  0.93423768  0.66746508  0.93543358  1  -0.752733  0  -0.265986  -0.152597  0  3.520792  0
N  N160  1  0.98738887  0.71606796  0.04792865  1  -0.788686  0  -0.280685  -0.209859  0  3.575432  0
N  N161  1  0.15531763  0.46264315  0.95312491  1  -0.797124  0  -0.286336  -0.182952  0  3.632616  0
N  N162  1  0.97725225  0.49939807  0.80737270  1  -0.7914  0  -0.275967  -0.195073  0  3.514067  0
N  N163  1  0.21458149  0.66043569  0.27430024  1  -0.791056  0  -0.281992  -0.199077  0  3.551264  0
N  N164  1  0.18181470  0.51159328  0.61337698  1  0.48262  0  0.045588  0.501947  0  4.138153  0
N  N165  1  0.82454143  0.32749103  0.26300397  1  0.526224  0  0.057527  0.46822  0  4.143862  0
N  N166  1  0.95932326  0.65937435  0.62227214  1  0.494291  0  0.051258  0.479461  0  4.174342  0
N  N167  1  0.13669738  0.69416221  0.70994463  1  0.528616  0  0.058272  0.465048  0  4.145468  0
N  N168  1  0.79658864  0.40533170  0.48135127  1  0.500838  0  0.049878  0.517823  0  4.178157  0
N  N169  1  0.80190384  0.48573691  0.33846101  1  0.489663  0  0.061499  0.485401  0  4.19447  0
O  O170  1  0.20843110  0.50554555  0.69550893  1  -0.442419  0  -0.112545  -0.306612  0  1.934927  0
O  O171  1  0.23954303  0.55307584  0.59053846  1  -0.443052  0  -0.108715  -0.297003  0  1.97116  0
O  O172  1  0.80493339  0.25569990  0.27575834  1  -0.452584  0  -0.121118  -0.300371  0  1.932821  0
O  O173  1  0.81122730  0.32128082  0.17675330  1  -0.387698  0  -0.075726  -0.24395  0  1.987882  0
O  O174  1  0.88091908  0.60351347  0.60896637  1  -0.448263  0  -0.105191  -0.292336  0  2.066184  0
O  O175  1  0.98662160  0.74914698  0.65361039  1  -0.414142  0  -0.100969  -0.280621  0  2.020428  0
O  O176  1  0.21259346  0.72139629  0.70271732  1  -0.410406  0  -0.091397  -0.264126  0  2.004138  0
O  O177  1  0.13240085  0.72230975  0.79515070  1  -0.405459  0  -0.087039  -0.255819  0  1.969003  0
O  O178  1  0.79566185  0.36640169  0.53538971  1  -0.449474  0  -0.098862  -0.291134  0  2.021025  0
O  O179  1  0.72644761  0.41957181  0.43128631  1  -0.423272  0  -0.107328  -0.30359  0  2.019144  0
O  O180  1  0.72059390  0.43141977  0.25216072  1  -0.390209  0  -0.073269  -0.242126  0  2.011028  0
O  O181  1  0.83651046  0.57795468  0.40330537  1  -0.43139  0  -0.101596  -0.288832  0  2.06354  0
