# generated using pymatgen
data_CdH14C7S2(NO)4
_symmetry_space_group_name_H-M   'P 1'
_cell_length_a   7.66021394
_cell_length_b   11.36274470
_cell_length_c   16.00000000
_cell_angle_alpha   90.00000000
_cell_angle_beta   100.35103580
_cell_angle_gamma   90.00000000
_symmetry_Int_Tables_number   1
_chemical_formula_structural   CdH14C7S2(NO)4
_chemical_formula_sum   'Cd4 H56 C28 S8 N16 O16'
_cell_volume   1369.99192577
_cell_formula_units_Z   4
loop_
 _symmetry_equiv_pos_site_id
 _symmetry_equiv_pos_as_xyz
  1  'x, y, z'
loop_
 _atom_site_type_symbol
 _atom_site_label
 _atom_site_symmetry_multiplicity
 _atom_site_fract_x
 _atom_site_fract_y
 _atom_site_fract_z
 _atom_site_occupancy
 _atom_site_hle17_bader_spin_density
 _atom_site_hle17_ddec_charge
 _atom_site_hle17_ddec_spin_density
 _atom_site_hle17_ddec_sum_bond_order
 _atom_site_hle17_magmom
 _atom_site_hse06_10hf_bader_spin_density
 _atom_site_hse06_10hf_ddec_charge
 _atom_site_hse06_10hf_ddec_spin_density
 _atom_site_hse06_10hf_ddec_sum_bond_order
 _atom_site_hse06_10hf_magmom
 _atom_site_hse06_bader_spin_density
 _atom_site_hse06_ddec_charge
 _atom_site_hse06_ddec_spin_density
 _atom_site_hse06_ddec_sum_bond_order
 _atom_site_hse06_magmom
 _atom_site_pbe_bader_charge
 _atom_site_pbe_bader_spin_density
 _atom_site_pbe_cm5_charge
 _atom_site_pbe_ddec_charge
 _atom_site_pbe_ddec_spin_density
 _atom_site_pbe_ddec_sum_bond_order
 _atom_site_pbe_magmom
Cd  Cd0  1  0.86509448  0.49367914  0.01914908  1  0  0.916901  0  1.892382  0  0  0.743772  0  2.356323  0  0  0.795168  0  2.312099  0  1.065094  0  0.617322  0.707761  0  2.386273  0
Cd  Cd1  1  0.86509581  0.50632309  0.51914919  1  0  0.916908  0  1.892332  0  0  0.743769  0  2.356277  0  0  0.795166  0  2.312053  0  1.065102  0  0.61731  0.707757  0  2.386228  0
Cd  Cd2  1  0.44996734  0.99201736  0.70186339  1  0  0.918017  0  1.88825  0  0  0.744706  0  2.351863  0  0  0.796106  0  2.307664  0  1.065548  0  0.617223  0.708663  0  2.381784  0
Cd  Cd3  1  0.44996734  0.00798223  0.20186339  1  0  0.918057  0  1.888236  0  0  0.744742  0  2.35186  0  0  0.796141  0  2.307662  0  1.06555  0  0.617238  0.708698  0  2.38178  0
H  H4  1  0.82917141  0.90003254  0.11628323  1  0  0.343536  0  0.881768  0  0  0.326773  0  0.940718  0  0  0.334528  0  0.934768  0  0.491605  0  0.309474  0.321277  0  0.945014  0
H  H5  1  0.82917273  0.09996704  0.61628272  1  0  0.343507  0  0.881765  0  0  0.326732  0  0.940736  0  0  0.334487  0  0.934787  0  0.491618  0  0.309439  0.321235  0  0.945033  0
H  H6  1  0.04179391  0.83891087  0.12487963  1  0  0.311659  0  0.94557  0  0  0.287515  0  1.026146  0  0  0.295346  0  1.019933  0  0.495109  0  0.278046  0.281929  0  1.030641  0
H  H7  1  0.04179524  0.16109048  0.62488037  1  0  0.311657  0  0.945548  0  0  0.287503  0  1.02613  0  0  0.295334  0  1.019919  0  0.495094  0  0.278058  0.281917  0  1.030627  0
H  H8  1  0.60100880  0.83210089  0.00727213  1  0  0.351033  0  0.91973  0  0  0.331331  0  0.979584  0  0  0.341031  0  0.971404  0  0.534714  0  0.296288  0.324484  0  0.985341  0
H  H9  1  0.60101146  0.16789957  0.50727236  1  0  0.351046  0  0.919698  0  0  0.331348  0  0.979545  0  0  0.341049  0  0.971364  0  0.534737  0  0.29629  0.324501  0  0.985303  0
H  H10  1  0.65527029  0.72333228  0.93528864  1  0  0.341443  0  0.89873  0  0  0.318402  0  0.970758  0  0  0.326118  0  0.964479  0  0.50233  0  0.301175  0.312908  0  0.975338  0
H  H11  1  0.65527295  0.27666907  0.43528825  1  0  0.341438  0  0.898681  0  0  0.318401  0  0.970704  0  0  0.326116  0  0.964427  0  0.502318  0  0.301198  0.312908  0  0.975279  0
H  H12  1  0.69509620  0.05542147  0.03634398  1  0  0.33466  0  0.900288  0  0  0.31779  0  0.961018  0  0  0.325163  0  0.95554  0  0.483807  0  0.305379  0.312576  0  0.965  0
H  H13  1  0.69509487  0.94457812  0.53634387  1  0  0.334651  0  0.900298  0  0  0.31779  0  0.961023  0  0  0.325161  0  0.955545  0  0.483834  0  0.305379  0.312576  0  0.965002  0
H  H14  1  0.73073263  0.08960071  0.93330643  1  0  0.354173  0  0.913525  0  0  0.332061  0  0.981068  0  0  0.341125  0  0.972704  0  0.538874  0  0.297248  0.325658  0  0.986986  0
H  H15  1  0.73073130  0.91039888  0.43330694  1  0  0.354192  0  0.913523  0  0  0.332068  0  0.98108  0  0  0.341132  0  0.972714  0  0.538879  0  0.297257  0.325666  0  0.986998  0
H  H16  1  0.84375429  0.16236394  0.15050332  1  0  0.344466  0  0.912505  0  0  0.326641  0  0.971853  0  0  0.335395  0  0.964772  0  0.505603  0  0.298938  0.320477  0  0.976854  0
H  H17  1  0.84375429  0.83763477  0.65050332  1  0  0.344485  0  0.912493  0  0  0.32666  0  0.971839  0  0  0.335415  0  0.964757  0  0.50561  0  0.298955  0.320495  0  0.976843  0
H  H18  1  0.96138344  0.29278489  0.13225469  1  0  0.344295  0  0.910911  0  0  0.324982  0  0.975  0  0  0.332794  0  0.968667  0  0.51969  0  0.299872  0.319476  0  0.97952  0
H  H19  1  0.96138344  0.70721469  0.63225407  1  0  0.344281  0  0.910903  0  0  0.324964  0  0.975002  0  0  0.332776  0  0.968667  0  0.519692  0  0.299869  0.319458  0  0.979522  0
H  H20  1  0.29862730  0.36389271  0.91344647  1  0  0.105985  0  0.918606  0  0  0.12284  0  0.976093  0  0  0.124927  0  0.97558  0  0.068444  0  0.099437  0.121372  0  0.976513  0
H  H21  1  0.29862995  0.63610687  0.41344544  1  0  0.106005  0  0.918575  0  0  0.122862  0  0.976057  0  0  0.124948  0  0.975544  0  0.068458  0  0.099461  0.121394  0  0.976476  0
H  H22  1  0.22763179  0.49203517  0.95698856  1  0  0.090202  0  0.951646  0  0  0.108108  0  1.014164  0  0  0.109556  0  1.013784  0  0.033978  0  0.088059  0.107096  0  1.014477  0
H  H23  1  0.22763577  0.50796354  0.45698703  1  0  0.090192  0  0.951597  0  0  0.108104  0  1.014106  0  0  0.109553  0  1.013721  0  0.034021  0  0.088049  0.107091  0  1.01442  0
H  H24  1  0.23095869  0.60012877  0.81873412  1  0  0.067013  0  0.955379  0  0  0.081844  0  1.020986  0  0  0.082848  0  1.021159  0  0.017405  0  0.079076  0.081063  0  1.020959  0
H  H25  1  0.23095869  0.39987082  0.31873225  1  0  0.067007  0  0.95542  0  0  0.081843  0  1.021026  0  0  0.082848  0  1.021198  0  0.017384  0  0.079074  0.081064  0  1.021001  0
H  H26  1  0.31710240  0.47447339  0.77711138  1  0  0.06913  0  0.94976  0  0  0.083684  0  1.015437  0  0  0.084303  0  1.01646  0  0.026958  0  0.085742  0.083181  0  1.014845  0
H  H27  1  0.31710240  0.52552620  0.27710951  1  0  0.069105  0  0.949783  0  0  0.083665  0  1.015463  0  0  0.084284  0  1.016486  0  0.026777  0  0.085724  0.083163  0  1.014871  0
H  H28  1  0.04073626  0.36047364  0.79765990  1  0  0.100845  0  0.937681  0  0  0.115452  0  1.000119  0  0  0.117387  0  0.999755  0  0.026062  0  0.090726  0.114093  0  1.000439  0
H  H29  1  0.04073759  0.63952682  0.29765939  1  0  0.100831  0  0.937685  0  0  0.115454  0  1.000113  0  0  0.117389  0  0.999749  0  0.026061  0  0.090737  0.114095  0  1.000433  0
H  H30  1  0.94910563  0.49238808  0.82766726  1  0  0.099955  0  0.932183  0  0  0.117442  0  0.991977  0  0  0.11912  0  0.991508  0  0.060052  0  0.094073  0.116243  0  0.992386  0
H  H31  1  0.94910696  0.50761151  0.32766738  1  0  0.099928  0  0.932217  0  0  0.117413  0  0.992031  0  0  0.119092  0  0.991561  0  0.059988  0  0.094056  0.116213  0  0.992439  0
H  H32  1  0.66072842  0.21955083  0.78301817  1  0  0.34086  0  0.900752  0  0  0.318357  0  0.972116  0  0  0.326027  0  0.965897  0  0.513213  0  0.300563  0.312903  0  0.976644  0
H  H33  1  0.66072710  0.78044876  0.28301806  1  0  0.34083  0  0.900791  0  0  0.318326  0  0.972152  0  0  0.325997  0  0.965932  0  0.51319  0  0.300542  0.312871  0  0.976678  0
H  H34  1  0.71432772  0.32990005  0.71193710  1  0  0.350848  0  0.920312  0  0  0.330725  0  0.980773  0  0  0.34054  0  0.972444  0  0.549121  0  0.296193  0.32381  0  0.986638  0
H  H35  1  0.71432639  0.67009866  0.21193698  1  0  0.350846  0  0.920307  0  0  0.330727  0  0.980764  0  0  0.340541  0  0.972437  0  0.549118  0  0.29619  0.323811  0  0.98663  0
H  H36  1  0.27106725  0.34002612  0.59697003  1  0  0.31252  0  0.944223  0  0  0.288076  0  1.025072  0  0  0.295905  0  1.018875  0  0.483545  0  0.277698  0.282469  0  1.029616  0
H  H37  1  0.27106593  0.65997435  0.09696929  1  0  0.312497  0  0.944238  0  0  0.288053  0  1.025085  0  0  0.295881  0  1.01889  0  0.48353  0  0.277687  0.282446  0  1.029629  0
H  H38  1  0.48347520  0.40093922  0.60481585  1  0  0.344034  0  0.881027  0  0  0.327312  0  0.939818  0  0  0.335092  0  0.93382  0  0.498074  0  0.309786  0.321823  0  0.944077  0
H  H39  1  0.48347254  0.59905949  0.10481563  1  0  0.343992  0  0.881024  0  0  0.327268  0  0.939814  0  0  0.335048  0  0.933816  0  0.498072  0  0.309765  0.321777  0  0.944069  0
H  H40  1  0.35732244  0.79088550  0.58952563  1  0  0.343433  0  0.91319  0  0  0.324297  0  0.976644  0  0  0.332125  0  0.970316  0  0.517337  0  0.299655  0.318796  0  0.981128  0
H  H41  1  0.35732244  0.20911321  0.08952625  1  0  0.343442  0  0.913101  0  0  0.324376  0  0.976497  0  0  0.332204  0  0.970166  0  0.517331  0  0.299651  0.318874  0  0.980983  0
H  H42  1  0.47480429  0.66033693  0.57147870  1  0  0.343483  0  0.91523  0  0  0.325423  0  0.974906  0  0  0.334192  0  0.967867  0  0.521947  0  0.298282  0.319279  0  0.979827  0
H  H43  1  0.47480429  0.33966177  0.07147808  1  0  0.343449  0  0.915272  0  0  0.325491  0  0.974818  0  0  0.33426  0  0.967779  0  0.521956  0  0.298312  0.319348  0  0.97974  0
H  H44  1  0.58785514  0.58807974  0.78868248  1  0  0.353871  0  0.915309  0  0  0.332047  0  0.982606  0  0  0.341084  0  0.974265  0  0.522686  0  0.297273  0.325644  0  0.988538  0
H  H45  1  0.58785514  0.41192072  0.28868123  1  0  0.35385  0  0.915295  0  0  0.332046  0  0.982571  0  0  0.341083  0  0.97423  0  0.522706  0  0.297296  0.325645  0  0.9885  0
H  H46  1  0.62510526  0.55430269  0.68581999  1  0  0.334522  0  0.900555  0  0  0.31717  0  0.961911  0  0  0.324614  0  0.956368  0  0.480065  0  0.304682  0.311902  0  0.965955  0
H  H47  1  0.62510393  0.44569777  0.18581925  1  0  0.334503  0  0.900548  0  0  0.31717  0  0.961884  0  0  0.324613  0  0.956343  0  0.48005  0  0.304693  0.311903  0  0.965927  0
H  H48  1  0.02073638  0.86549775  0.80566444  1  0  0.105321  0  0.921908  0  0  0.122041  0  0.979639  0  0  0.124104  0  0.979168  0  0.026729  0  0.099141  0.12058  0  0.98007  0
H  H49  1  0.02073638  0.13450183  0.30566507  1  0  0.105359  0  0.921903  0  0  0.122066  0  0.979637  0  0  0.124133  0  0.979153  0  0.026742  0  0.099156  0.120604  0  0.980067  0
H  H50  1  0.08793257  0.99719393  0.76536552  1  0  0.091567  0  0.950666  0  0  0.10965  0  1.012813  0  0  0.111014  0  1.012497  0  0.04166  0  0.088769  0.108711  0  1.013094  0
H  H51  1  0.08793257  0.00280390  0.26536614  1  0  0.091571  0  0.950684  0  0  0.109659  0  1.012808  0  0  0.111017  0  1.012492  0  0.041644  0  0.088759  0.108719  0  1.013088  0
H  H52  1  0.07390041  0.09801593  0.90623092  1  0  0.068075  0  0.957999  0  0  0.082857  0  1.02375  0  0  0.084048  0  1.023833  0  0.044981  0  0.079135  0.081962  0  1.023792  0
H  H53  1  0.07390174  0.90198278  0.40623166  1  0  0.068033  0  0.958004  0  0  0.082814  0  1.023767  0  0  0.084006  0  1.023852  0  0.044954  0  0.079104  0.08192  0  1.023808  0
H  H54  1  0.00065025  0.96563289  0.94466969  1  0  0.067816  0  0.95032  0  0  0.082689  0  1.015711  0  0  0.083175  0  1.017014  0  0.050341  0  0.084755  0.082297  0  1.014921  0
H  H55  1  0.00065158  0.03436670  0.44467043  1  0  0.067796  0  0.95033  0  0  0.08266  0  1.015736  0  0  0.083147  0  1.017041  0  0.050347  0  0.08475  0.082269  0  1.014945  0
H  H56  1  0.28746819  0.86711972  0.91960339  1  0  0.099807  0  0.939762  0  0  0.116411  0  0.999963  0  0  0.118305  0  0.999582  0  0.035504  0  0.090598  0.115054  0  1.000347  0
H  H57  1  0.28746819  0.13287987  0.41960277  1  0  0.099793  0  0.939755  0  0  0.116399  0  0.999961  0  0  0.118292  0  0.999581  0  0.035519  0  0.090601  0.115043  0  1.000345  0
H  H58  1  0.36386078  0.00587710  0.89322308  1  0  0.099563  0  0.931909  0  0  0.115882  0  0.993928  0  0  0.117497  0  0.993522  0  0.061962  0  0.094068  0.114734  0  0.99428  0
H  H59  1  0.36386211  0.99412248  0.39322382  1  0  0.099548  0  0.931877  0  0  0.115876  0  0.993897  0  0  0.11749  0  0.993492  0  0.062118  0  0.094075  0.11473  0  0.994248  0
C  C60  1  0.49798244  0.49292756  0.94325069  1  0  0.703293  0  3.816081  0  0  0.65412  0  4.112593  0  0  0.687401  0  4.106453  0  1.536574  0  0.204959  0.631609  0  4.115826  0
C  C61  1  0.49798376  0.50707291  0.44324956  1  0  0.7033  0  3.816169  0  0  0.654084  0  4.112723  0  0  0.687365  0  4.106585  0  1.536601  0  0.204954  0.631574  0  4.115955  0
C  C62  1  0.30645686  0.46077159  0.91016937  1  0  -0.262233  0  3.691028  0  0  -0.299293  0  3.938784  0  0  -0.305571  0  3.948423  0  -0.015294  0  -0.168014  -0.29496  0  3.931976  0
C  C63  1  0.30645951  0.53922799  0.41016772  1  0  -0.262221  0  3.691057  0  0  -0.29926  0  3.938841  0  0  -0.305536  0  3.948474  0  -0.015477  0  -0.168001  -0.294927  0  3.932033  0
C  C64  1  0.23092286  0.50350159  0.82098792  1  0  -0.064804  0  3.721294  0  0  -0.103654  0  3.97564  0  0  -0.103401  0  3.990035  0  0.025582  0  -0.177248  -0.103642  0  3.965625  0
C  C65  1  0.23092418  0.49649800  0.32098678  1  0  -0.064859  0  3.721391  0  0  -0.103723  0  3.97575  0  0  -0.103477  0  3.990165  0  0.025958  0  -0.177268  -0.103716  0  3.965742  0
C  C66  1  0.04442013  0.45677256  0.78999368  1  0  -0.264921  0  3.684648  0  0  -0.299846  0  3.930516  0  0  -0.306305  0  3.940104  0  -0.004908  0  -0.170244  -0.295392  0  3.923775  0
C  C67  1  0.04442146  0.54322702  0.28999379  1  0  -0.264864  0  3.684619  0  0  -0.299801  0  3.930535  0  0  -0.306259  0  3.940116  0  -0.004877  0  -0.170243  -0.295344  0  3.92379  0
C  C68  1  0.97120887  0.48267915  0.69769679  1  0  0.697479  0  3.826393  0  0  0.647441  0  4.125265  0  0  0.680765  0  4.119144  0  1.522888  0  0.203101  0.624883  0  4.128478  0
C  C69  1  0.97120887  0.51732131  0.19769616  1  0  0.697372  0  3.826441  0  0  0.647318  0  4.12536  0  0  0.680642  0  4.119238  0  1.522905  0  0.203018  0.624759  0  4.128573  0
C  C70  1  0.86083865  0.77544645  0.02580985  1  0  0.61166  0  3.821017  0  0  0.564949  0  4.119184  0  0  0.593016  0  4.123644  0  1.084126  0  0.257976  0.545978  0  4.115576  0
C  C71  1  0.86083998  0.22455754  0.52581122  1  0  0.611665  0  3.821057  0  0  0.564937  0  4.119231  0  0  0.593005  0  4.12369  0  1.084653  0  0.257984  0.545966  0  4.115624  0
C  C72  1  0.84132447  0.20496984  0.02619868  1  0  0.614901  0  3.825437  0  0  0.569356  0  4.123254  0  0  0.598662  0  4.126064  0  1.058307  0  0.254312  0.549553  0  4.120746  0
C  C73  1  0.84132713  0.79502974  0.52619890  1  0  0.614872  0  3.82544  0  0  0.569343  0  4.123239  0  0  0.598648  0  4.126049  0  1.058296  0  0.25428  0.549541  0  4.120731  0
C  C74  1  0.81739522  0.99275222  0.77820457  1  0  0.702113  0  3.818794  0  0  0.653708  0  4.113831  0  0  0.686933  0  4.107679  0  1.527825  0  0.20622  0.631239  0  4.11708  0
C  C75  1  0.81739522  0.00724473  0.27820520  1  0  0.702211  0  3.818678  0  0  0.653819  0  4.11368  0  0  0.687034  0  4.107525  0  1.528142  0  0.206249  0.631348  0  4.11693  0
C  C76  1  0.00954543  0.96193220  0.81114863  1  0  -0.263266  0  3.692118  0  0  -0.300598  0  3.939623  0  0  -0.306781  0  3.94941  0  0.009873  0  -0.168797  -0.296361  0  3.932788  0
C  C77  1  0.00954543  0.03806651  0.31114863  1  0  -0.263419  0  3.69216  0  0  -0.300731  0  3.939639  0  0  -0.30689  0  3.949387  0  0.009906  0  -0.168828  -0.296496  0  3.932813  0
C  C78  1  0.08282345  0.00185871  0.90128539  1  0  -0.065902  0  3.718657  0  0  -0.10455  0  3.973029  0  0  -0.104527  0  3.987558  0  -0.019557  0  -0.177421  -0.104414  0  3.963056  0
C  C79  1  0.08282478  0.99814000  0.40128613  1  0  -0.065811  0  3.718587  0  0  -0.104459  0  3.97295  0  0  -0.104445  0  3.987477  0  -0.019556  0  -0.177403  -0.104322  0  3.962976  0
C  C80  1  0.27388589  0.96216718  0.93027312  1  0  -0.26386  0  3.680895  0  0  -0.300033  0  3.927838  0  0  -0.306241  0  3.937179  0  -0.013211  0  -0.170229  -0.295765  0  3.921314  0
C  C81  1  0.27388589  0.03783153  0.43027312  1  0  -0.26381  0  3.680758  0  0  -0.30001  0  3.927721  0  0  -0.306216  0  3.937066  0  -0.013374  0  -0.170233  -0.295746  0  3.921202  0
C  C82  1  0.34623101  0.98542212  0.02304338  1  0  0.698601  0  3.825537  0  0  0.648744  0  4.124791  0  0  0.682065  0  4.118545  0  1.517549  0  0.203891  0.626199  0  4.128089  0
C  C83  1  0.34623366  0.01457658  0.52304361  1  0  0.698651  0  3.825507  0  0  0.648816  0  4.124725  0  0  0.682137  0  4.118477  0  1.517358  0  0.203941  0.626273  0  4.128023  0
C  C84  1  0.45381311  0.27452522  0.69444234  1  0  0.611886  0  3.821113  0  0  0.566793  0  4.116822  0  0  0.594844  0  4.121403  0  1.129337  0  0.257202  0.547834  0  4.113125  0
C  C85  1  0.45381179  0.72547525  0.19444160  1  0  0.61183  0  3.821155  0  0  0.566756  0  4.116841  0  0  0.594806  0  4.121422  0  1.129399  0  0.257188  0.547796  0  4.113144  0
C  C86  1  0.47729117  0.70333359  0.69569888  1  0  0.617242  0  3.821455  0  0  0.571193  0  4.120178  0  0  0.600488  0  4.123006  0  1.056678  0  0.255089  0.55139  0  4.117669  0
C  C87  1  0.47729250  0.29666776  0.19569775  1  0  0.617163  0  3.821524  0  0  0.571181  0  4.120193  0  0  0.600475  0  4.12302  0  1.056706  0  0.255103  0.551377  0  4.117684  0
S  S88  1  0.01572016  0.68565476  0.98924293  1  0  -0.486905  0  1.960366  0  0  -0.439899  0  2.291504  0  0  -0.459016  0  2.279826  0  -0.30883  0  -0.18789  -0.426707  0  2.299316  0
S  S89  1  0.01572281  0.31434747  0.48924503  1  0  -0.486867  0  1.960349  0  0  -0.439855  0  2.291491  0  0  -0.458972  0  2.279811  0  -0.308854  0  -0.187875  -0.426661  0  2.299302  0
S  S90  1  0.91370409  0.29691066  0.95295190  1  0  -0.485505  0  2.002649  0  0  -0.451491  0  2.352056  0  0  -0.471826  0  2.340214  0  -0.267312  0  -0.195692  -0.437419  0  2.359844  0
S  S91  1  0.91370807  0.70309157  0.45295099  1  0  -0.485539  0  2.002692  0  0  -0.451523  0  2.352086  0  0  -0.471857  0  2.340245  0  -0.267342  0  -0.195696  -0.43745  0  2.359875  0
S  S92  1  0.29956552  0.18437975  0.73122530  1  0  -0.488469  0  1.968675  0  0  -0.441816  0  2.300321  0  0  -0.460902  0  2.288376  0  -0.31849  0  -0.186175  -0.428652  0  2.308318  0
S  S93  1  0.29956419  0.81561984  0.23122456  1  0  -0.48844  0  1.968684  0  0  -0.441802  0  2.30033  0  0  -0.460887  0  2.288384  0  -0.318504  0  -0.186166  -0.428639  0  2.308328  0
S  S94  1  0.40390433  0.79524536  0.76872276  1  0  -0.486789  0  1.999594  0  0  -0.452327  0  2.349354  0  0  -0.472698  0  2.337476  0  -0.266899  0  -0.195425  -0.438215  0  2.357162  0
S  S95  1  0.40390566  0.20475335  0.26872288  1  0  -0.486829  0  1.999568  0  0  -0.452368  0  2.34929  0  0  -0.472737  0  2.337411  0  -0.266878  0  -0.19545  -0.438257  0  2.3571  0
N  N96  1  0.91442202  0.84605351  0.09198616  1  0  -0.634451  0  3.116237  0  0  -0.589258  0  3.350405  0  0  -0.610272  0  3.346106  0  -1.30686  0  -0.557776  -0.575015  0  3.353407  0
N  N97  1  0.91442335  0.15394784  0.59198690  1  0  -0.634429  0  3.116204  0  0  -0.589202  0  3.350371  0  0  -0.610216  0  3.346075  0  -1.307276  0  -0.557748  -0.574958  0  3.353374  0
N  N98  1  0.69282032  0.77639956  0.98660258  1  0  -0.658096  0  3.099215  0  0  -0.611679  0  3.331693  0  0  -0.633394  0  3.326481  0  -1.29877  0  -0.55986  -0.596979  0  3.335314  0
N  N99  1  0.69282165  0.22360267  0.48660269  1  0  -0.658109  0  3.099136  0  0  -0.611688  0  3.331625  0  0  -0.633403  0  3.32641  0  -1.29886  0  -0.559893  -0.596989  0  3.335246  0
N  N100  1  0.74275034  0.11209880  0.99643211  1  0  -0.65931  0  3.085927  0  0  -0.613193  0  3.315734  0  0  -0.634456  0  3.310055  0  -1.309831  0  -0.564904  -0.598789  0  3.31963  0
N  N101  1  0.74275167  0.88790167  0.49643222  1  0  -0.659287  0  3.085871  0  0  -0.613187  0  3.31571  0  0  -0.634447  0  3.310029  0  -1.309852  0  -0.564892  -0.598782  0  3.319606  0
N  N102  1  0.88004761  0.22421871  0.10955728  1  0  -0.664823  0  3.098088  0  0  -0.618791  0  3.324065  0  0  -0.640816  0  3.319223  0  -1.305482  0  -0.565766  -0.603832  0  3.327314  0
N  N103  1  0.88004893  0.77578175  0.60955676  1  0  -0.664811  0  3.098128  0  0  -0.61879  0  3.32412  0  0  -0.640815  0  3.319278  0  -1.305495  0  -0.565767  -0.603831  0  3.32737  0
N  N104  1  0.62264890  0.27396110  0.73248244  1  0  -0.657551  0  3.09778  0  0  -0.611908  0  3.329839  0  0  -0.633665  0  3.324541  0  -1.351185  0  -0.559357  -0.597194  0  3.333488  0
N  N105  1  0.62264758  0.72603849  0.23248170  1  0  -0.657491  0  3.097811  0  0  -0.61186  0  3.329867  0  0  -0.633616  0  3.324569  0  -1.351194  0  -0.559314  -0.597147  0  3.333517  0
N  N106  1  0.39883768  0.34675249  0.62940441  1  0  -0.634134  0  3.112796  0  0  -0.589135  0  3.34658  0  0  -0.61018  0  3.342323  0  -1.30791  0  -0.556788  -0.574867  0  3.349547  0
N  N107  1  0.39883635  0.65324710  0.12940367  1  0  -0.634064  0  3.112787  0  0  -0.589051  0  3.346537  0  0  -0.610095  0  3.342282  0  -1.307913  0  -0.556765  -0.574778  0  3.3495  0
N  N108  1  0.43892103  0.72250765  0.61235002  1  0  -0.66401  0  3.0994  0  0  -0.617704  0  3.326344  0  0  -0.63978  0  3.321496  0  -1.304576  0  -0.566245  -0.602729  0  3.329575  0
N  N109  1  0.43892103  0.27749193  0.11234940  1  0  -0.663969  0  3.099371  0  0  -0.617844  0  3.326104  0  0  -0.639919  0  3.321254  0  -1.304593  0  -0.566277  -0.602867  0  3.329336  0
N  N110  1  0.57647973  0.61075824  0.72559705  1  0  -0.661199  0  3.084715  0  0  -0.614549  0  3.31501  0  0  -0.635787  0  3.309205  0  -1.304794  0  -0.565806  -0.600145  0  3.319026  0
N  N111  1  0.57647840  0.38924310  0.22559569  1  0  -0.661096  0  3.084726  0  0  -0.614508  0  3.315024  0  0  -0.635746  0  3.309221  0  -1.304817  0  -0.565829  -0.600109  0  3.319038  0
O  O112  1  0.55989699  0.46666718  0.02157242  1  0  -0.671982  0  2.022966  0  0  -0.598543  0  2.260139  0  0  -0.627585  0  2.25052  0  -1.193266  0  -0.335975  -0.578336  0  2.266093  0
O  O113  1  0.55989964  0.53333241  0.52157140  1  0  -0.672028  0  2.023054  0  0  -0.598529  0  2.260219  0  0  -0.627569  0  2.250597  0  -1.193233  0  -0.335972  -0.578325  0  2.26618  0
O  O114  1  0.59500658  0.54112630  0.89685267  1  0  -0.644365  0  2.003827  0  0  -0.57985  0  2.235582  0  0  -0.607015  0  2.227453  0  -1.202156  0  -0.314514  -0.560743  0  2.240268  0
O  O115  1  0.59501189  0.45887593  0.39685188  1  0  -0.644288  0  2.003675  0  0  -0.579802  0  2.23552  0  0  -0.606968  0  2.227394  0  -1.202207  0  -0.314498  -0.560689  0  2.24019  0
O  O116  1  0.05476311  0.54998243  0.65512279  1  0  -0.626989  0  1.967932  0  0  -0.560325  0  2.199717  0  0  -0.588111  0  2.191803  0  -1.18106  0  -0.324665  -0.540891  0  2.204332  0
O  O117  1  0.05476311  0.45001715  0.15512279  1  0  -0.626926  0  1.967911  0  0  -0.560244  0  2.199707  0  0  -0.588026  0  2.191785  0  -1.181058  0  -0.324616  -0.54081  0  2.204322  0
O  O118  1  0.82399992  0.43384500  0.66372836  1  0  -0.676188  0  2.013546  0  0  -0.606943  0  2.244256  0  0  -0.635188  0  2.23571  0  -1.203389  0  -0.337467  -0.587185  0  2.249414  0
O  O119  1  0.82399859  0.56615546  0.16372824  1  0  -0.676095  0  2.013581  0  0  -0.606879  0  2.244324  0  0  -0.635121  0  2.235778  0  -1.203404  0  -0.337422  -0.587123  0  2.249489  0
O  O120  1  0.75531346  0.96508373  0.70017346  1  0  -0.671419  0  2.020348  0  0  -0.59886  0  2.25798  0  0  -0.627849  0  2.248456  0  -1.192532  0  -0.337051  -0.578581  0  2.263775  0
O  O121  1  0.75531479  0.03491322  0.20017357  1  0  -0.671396  0  2.020273  0  0  -0.598867  0  2.257935  0  0  -0.627856  0  2.248414  0  -1.192496  0  -0.33704  -0.578589  0  2.263731  0
O  O122  1  0.72076123  0.04188425  0.82440553  1  0  -0.645575  0  2.00173  0  0  -0.580622  0  2.231663  0  0  -0.607732  0  2.223686  0  -1.200547  0  -0.315709  -0.561611  0  2.236365  0
O  O123  1  0.72076123  0.95811622  0.32440740  1  0  -0.645676  0  2.001777  0  0  -0.58069  0  2.231657  0  0  -0.607811  0  2.223708  0  -1.200918  0  -0.315736  -0.561679  0  2.236359  0
O  O124  1  0.26316869  0.05276806  0.06589182  1  0  -0.62835  0  1.968384  0  0  -0.560807  0  2.199494  0  0  -0.58875  0  2.191655  0  -1.168063  0  -0.325662  -0.541281  0  2.204057  0
O  O125  1  0.26317002  0.94723153  0.56589193  1  0  -0.628382  0  1.968435  0  0  -0.560805  0  2.199491  0  0  -0.588749  0  2.191652  0  -1.168064  0  -0.325659  -0.541283  0  2.204061  0
O  O126  1  0.49213548  0.93510241  0.05694209  1  0  -0.675145  0  2.011039  0  0  -0.606949  0  2.242215  0  0  -0.635006  0  2.233702  0  -1.206263  0  -0.336759  -0.587238  0  2.247197  0
O  O127  1  0.49213548  0.06489893  0.55694147  1  0  -0.675129  0  2.010995  0  0  -0.606983  0  2.242228  0  0  -0.63504  0  2.23371  0  -1.206074  0  -0.336786  -0.587273  0  2.247209  0
