# generated using pymatgen
data_CdH30C30(NO)4
_symmetry_space_group_name_H-M   'P 1'
_cell_length_a   9.15421028
_cell_length_b   11.84241888
_cell_length_c   16.21217101
_cell_angle_alpha   78.51609373
_cell_angle_beta   86.05855070
_cell_angle_gamma   76.91213758
_symmetry_Int_Tables_number   1
_chemical_formula_structural   CdH30C30(NO)4
_chemical_formula_sum   'Cd2 H60 C60 N8 O8'
_cell_volume   1677.08951020
_cell_formula_units_Z   2
loop_
 _symmetry_equiv_pos_site_id
 _symmetry_equiv_pos_as_xyz
  1  'x, y, z'
loop_
 _atom_site_type_symbol
 _atom_site_label
 _atom_site_symmetry_multiplicity
 _atom_site_fract_x
 _atom_site_fract_y
 _atom_site_fract_z
 _atom_site_occupancy
 _atom_site_hle17_bader_spin_density
 _atom_site_hle17_ddec_charge
 _atom_site_hle17_ddec_spin_density
 _atom_site_hle17_ddec_sum_bond_order
 _atom_site_hle17_magmom
 _atom_site_hse06_10hf_bader_spin_density
 _atom_site_hse06_10hf_ddec_charge
 _atom_site_hse06_10hf_ddec_spin_density
 _atom_site_hse06_10hf_ddec_sum_bond_order
 _atom_site_hse06_10hf_magmom
 _atom_site_hse06_bader_spin_density
 _atom_site_hse06_ddec_charge
 _atom_site_hse06_ddec_spin_density
 _atom_site_hse06_ddec_sum_bond_order
 _atom_site_hse06_magmom
 _atom_site_pbe_bader_spin_density
 _atom_site_pbe_cm5_charge
 _atom_site_pbe_ddec_charge
 _atom_site_pbe_ddec_spin_density
 _atom_site_pbe_ddec_sum_bond_order
 _atom_site_pbe_magmom
Cd  Cd0  1  0.83415355  0.54575910  0.27127182  1  0  1.014547  0  1.798629  0  0  0.812835  0  2.253477  0  0  0.871114  0  2.205771  0  0  0.745125  0.771945  0  2.285591  0
Cd  Cd1  1  0.16585557  0.45424207  0.72872199  1  0  1.014582  0  1.798569  0  0  0.812885  0  2.253388  0  0  0.871162  0  2.205683  0  0  0.745104  0.771994  0  2.285501  0
H  H2  1  0.84463284  0.47752680  0.98688321  1  0  0.119825  0  0.930659  0  0  0.127845  0  0.988564  0  0  0.132518  0  0.985455  0  0  0.105707  0.124498  0  0.990963  0
H  H3  1  0.15540919  0.52245263  0.01311708  1  0  0.119902  0  0.930724  0  0  0.128024  0  0.988499  0  0  0.132698  0  0.985388  0  0  0.105807  0.124676  0  0.990901  0
H  H4  1  0.41076957  0.45177689  0.44314905  1  0  0.112362  0  0.94104  0  0  0.119443  0  1.002598  0  0  0.124365  0  0.998938  0  0  0.1004  0.115941  0  1.005326  0
H  H5  1  0.58923743  0.54822779  0.55684497  1  0  0.112366  0  0.940906  0  0  0.119447  0  1.002477  0  0  0.124368  0  0.998816  0  0  0.100397  0.115945  0  1.005206  0
H  H6  1  0.15731745  0.37484027  0.34109501  1  0  0.084258  0  0.923918  0  0  0.094164  0  0.981292  0  0  0.096566  0  0.979416  0  0  0.120558  0.092357  0  0.982721  0
H  H7  1  0.84267909  0.62516413  0.65891374  1  0  0.084338  0  0.92392  0  0  0.094235  0  0.981298  0  0  0.096637  0  0.979422  0  0  0.120526  0.092413  0  0.982739  0
H  H8  1  0.27828658  0.16381851  0.39285136  1  0  0.104747  0  0.939553  0  0  0.117902  0  0.991688  0  0  0.121266  0  0.99096  0  0  0.10765  0.115458  0  0.992432  0
H  H9  1  0.72171013  0.83618504  0.60715443  1  0  0.10468  0  0.939533  0  0  0.117841  0  0.991677  0  0  0.121205  0  0.990951  0  0  0.107615  0.115397  0  0.992421  0
H  H10  1  0.85961701  0.07541632  0.35247705  1  0  0.098283  0  0.948298  0  0  0.110404  0  1.004344  0  0  0.113967  0  1.003046  0  0  0.102898  0.107845  0  1.005443  0
H  H11  1  0.14038522  0.92458647  0.64752241  1  0  0.098285  0  0.948344  0  0  0.110422  0  1.004368  0  0  0.113985  0  1.003071  0  0  0.102895  0.107862  0  1.005468  0
H  H12  1  0.75334957  0.29334688  0.30630305  1  0  0.09622  0  0.929608  0  0  0.104819  0  0.9884  0  0  0.108037  0  0.985198  0  0  0.121106  0.10237  0  0.990863  0
H  H13  1  0.24665029  0.70665674  0.69369887  1  0  0.096287  0  0.929702  0  0  0.104851  0  0.988536  0  0  0.108055  0  0.985332  0  0  0.121117  0.102398  0  0.990997  0
H  H14  1  0.93676544  0.60378577  0.44361424  1  0  0.093502  0  0.951773  0  0  0.101033  0  1.016482  0  0  0.104251  0  1.013163  0  0  0.114794  0.098637  0  1.018914  0
H  H15  1  0.06323293  0.39622231  0.55638156  1  0  0.093572  0  0.951545  0  0  0.101054  0  1.016343  0  0  0.104271  0  1.013026  0  0  0.11482  0.098659  0  1.018775  0
H  H16  1  0.12572773  0.69582693  0.49563529  1  0  0.104753  0  0.955276  0  0  0.114357  0  1.016846  0  0  0.116646  0  1.018283  0  0  0.10372  0.112724  0  1.015984  0
H  H17  1  0.87427042  0.30418203  0.50436162  1  0  0.104723  0  0.955306  0  0  0.114327  0  1.016895  0  0  0.116618  0  1.018329  0  0  0.103715  0.112702  0  1.016008  0
H  H18  1  0.33187239  0.72189778  0.24683796  1  0  0.105462  0  0.955624  0  0  0.116124  0  1.016194  0  0  0.118659  0  1.016885  0  0  0.105847  0.114327  0  1.015841  0
H  H19  1  0.66813201  0.27810149  0.75316252  1  0  0.105516  0  0.955547  0  0  0.116155  0  1.016143  0  0  0.11869  0  1.016836  0  0  0.105884  0.114357  0  1.01579  0
H  H20  1  0.13687982  0.62525928  0.20641707  1  0  0.102231  0  0.9564  0  0  0.109542  0  1.018713  0  0  0.113075  0  1.015209  0  0  0.118395  0.106904  0  1.021341  0
H  H21  1  0.86312869  0.37473737  0.79358543  1  0  0.102222  0  0.956249  0  0  0.109487  0  1.018636  0  0  0.113021  0  1.015131  0  0  0.118353  0.106848  0  1.021265  0
H  H22  1  0.16188971  0.95872355  0.47805163  1  0  0.075731  0  0.930746  0  0  0.095416  0  0.989027  0  0  0.09583  0  0.989907  0  0  0.094264  0.095091  0  0.988458  0
H  H23  1  0.83810288  0.04127113  0.52194885  1  0  0.075727  0  0.930697  0  0  0.095439  0  0.988967  0  0  0.095853  0  0.989845  0  0  0.094272  0.095109  0  0.988403  0
H  H24  1  0.05948495  0.92099518  0.40379928  1  0  0.073435  0  0.94555  0  0  0.090287  0  1.006196  0  0  0.091372  0  1.006514  0  0  0.091711  0.089494  0  1.006015  0
H  H25  1  0.94051674  0.07900857  0.59619143  1  0  0.073404  0  0.945593  0  0  0.090272  0  1.006247  0  0  0.091358  0  1.006564  0  0  0.091695  0.089479  0  1.006066  0
H  H26  1  0.37807272  0.96854408  0.37622053  1  0  0.059503  0  0.936385  0  0  0.079606  0  0.993293  0  0  0.08029  0  0.993715  0  0  0.088404  0.07911  0  0.993021  0
H  H27  1  0.62192914  0.03146044  0.62378363  1  0  0.059518  0  0.936329  0  0  0.079634  0  0.993246  0  0  0.080316  0  0.993671  0  0  0.088447  0.079138  0  0.992973  0
H  H28  1  0.27558653  0.93935726  0.29767298  1  0  0.064219  0  0.940327  0  0  0.082884  0  1.002154  0  0  0.083412  0  1.003398  0  0  0.08807  0.08246  0  1.001339  0
H  H29  1  0.72442044  0.06065180  0.70232658  1  0  0.064249  0  0.940242  0  0  0.082972  0  1.002025  0  0  0.083504  0  1.003257  0  0  0.088114  0.082545  0  1.001213  0
H  H30  1  0.45976450  0.76019681  0.37024281  1  0  0.096928  0  0.928775  0  0  0.113509  0  0.986877  0  0  0.114478  0  0.987587  0  0  0.099886  0.112796  0  0.986399  0
H  H31  1  0.54023470  0.23980861  0.62975456  1  0  0.096926  0  0.928712  0  0  0.113521  0  0.986805  0  0  0.11449  0  0.987514  0  0  0.09986  0.112803  0  0.986337  0
H  H32  1  0.35918969  0.77053443  0.46657100  1  0  0.080693  0  0.924491  0  0  0.09997  0  0.97917  0  0  0.100885  0  0.979388  0  0  0.095207  0.099266  0  0.97908  0
H  H33  1  0.64081117  0.22946923  0.53342779  1  0  0.080694  0  0.924524  0  0  0.099981  0  0.979197  0  0  0.100895  0  0.979418  0  0  0.095211  0.099277  0  0.979106  0
H  H34  1  0.80168971  0.82693009  0.29484228  1  0  0.069693  0  0.938181  0  0  0.079309  0  0.999002  0  0  0.081827  0  0.997003  0  0  0.111038  0.077469  0  1.000458  0
H  H35  1  0.19829391  0.17306534  0.70515914  1  0  0.069631  0  0.938217  0  0  0.079205  0  0.999086  0  0  0.081722  0  0.99709  0  0  0.110985  0.077365  0  1.000541  0
H  H36  1  0.65039077  0.02925223  0.24014627  1  0  0.094412  0  0.95601  0  0  0.106084  0  1.014111  0  0  0.109411  0  1.013278  0  0  0.100876  0.103651  0  1.014915  0
H  H37  1  0.34958861  0.97074311  0.75985907  1  0  0.094364  0  0.956033  0  0  0.106072  0  1.014102  0  0  0.109372  0  1.013299  0  0  0.10087  0.103635  0  1.014909  0
H  H38  1  0.43017980  0.86998958  0.07957087  1  0  0.107419  0  1.012073  0  0  0.105596  0  1.091724  0  0  0.110524  0  1.088794  0  0  0.100891  0.10205  0  1.093911  0
H  H39  1  0.56980996  0.13000686  0.92042578  1  0  0.107301  0  1.01211  0  0  0.105524  0  1.091713  0  0  0.110441  0  1.088794  0  0  0.100834  0.101981  0  1.093893  0
H  H40  1  0.59311418  0.67744256  0.13964359  1  0  0.09873  0  0.935383  0  0  0.107668  0  0.993571  0  0  0.111041  0  0.990131  0  0  0.122316  0.10516  0  0.996121  0
H  H41  1  0.40688509  0.32255492  0.86035123  1  0  0.098702  0  0.935404  0  0  0.107626  0  0.993616  0  0  0.110997  0  0.99018  0  0  0.122316  0.10512  0  0.996162  0
H  H42  1  0.85769386  0.12841788  0.88325498  1  0  0.0523  0  0.951524  0  0  0.060865  0  1.018481  0  0  0.063167  0  1.016922  0  0  0.102927  0.059178  0  1.019617  0
H  H43  1  0.14229418  0.87157760  0.11674806  1  0  0.052292  0  0.951426  0  0  0.060829  0  1.018414  0  0  0.063153  0  1.016833  0  0  0.102909  0.059144  0  1.019552  0
H  H44  1  0.10680099  0.15436296  0.91772162  1  0  0.101274  0  0.954812  0  0  0.111918  0  1.015328  0  0  0.114239  0  1.016404  0  0  0.101639  0.110254  0  1.014743  0
H  H45  1  0.89318966  0.84563081  0.08227846  1  0  0.101305  0  0.954878  0  0  0.111963  0  1.01538  0  0  0.114287  0  1.016452  0  0  0.10165  0.1103  0  1.014794  0
H  H46  1  0.90655392  0.25008387  0.14992737  1  0  0.100472  0  0.96448  0  0  0.109748  0  1.027322  0  0  0.112113  0  1.028108  0  0  0.100048  0.108051  0  1.026913  0
H  H47  1  0.09344835  0.74991180  0.85007682  1  0  0.100432  0  0.964479  0  0  0.109728  0  1.027287  0  0  0.112084  0  1.028093  0  0  0.100046  0.108034  0  1.026873  0
H  H48  1  0.66514262  0.22268103  0.10515869  1  0  0.061831  0  0.93873  0  0  0.072364  0  0.998741  0  0  0.074752  0  0.996611  0  0  0.10791  0.070616  0  1.000299  0
H  H49  1  0.33485161  0.77731982  0.89484760  1  0  0.061756  0  0.938865  0  0  0.072259  0  0.998904  0  0  0.074642  0  0.996779  0  0  0.107857  0.070512  0  1.000462  0
H  H50  1  0.49309395  0.12855024  0.06382230  1  0  0.093598  0  0.938757  0  0  0.110786  0  1.002076  0  0  0.111758  0  1.002036  0  0  0.102679  0.110074  0  1.002159  0
H  H51  1  0.50690435  0.87144363  0.93617802  1  0  0.093642  0  0.938696  0  0  0.110815  0  1.002017  0  0  0.111787  0  1.001977  0  0  0.102685  0.110103  0  1.0021  0
H  H52  1  0.42727088  0.14688634  0.16614830  1  0  0.076057  0  0.920362  0  0  0.096289  0  0.974972  0  0  0.097449  0  0.974567  0  0  0.095442  0.09543  0  0.975299  0
H  H53  1  0.57272833  0.85310841  0.83385431  1  0  0.076075  0  0.92054  0  0  0.096302  0  0.975134  0  0  0.097462  0  0.974731  0  0  0.09547  0.095444  0  0.975459  0
H  H54  1  0.28235445  0.03509366  0.04615235  1  0  0.068608  0  0.955484  0  0  0.085635  0  1.020318  0  0  0.086346  0  1.021337  0  0  0.091256  0.085077  0  1.019663  0
H  H55  1  0.71763500  0.96490094  0.95385261  1  0  0.068608  0  0.955503  0  0  0.08566  0  1.020316  0  0  0.086376  0  1.021339  0  0  0.09124  0.085079  0  1.019686  0
H  H56  1  0.21777202  0.04309972  0.15012391  1  0  0.05286  0  0.937218  0  0  0.072203  0  0.999388  0  0  0.073146  0  0.999297  0  0  0.083307  0.071495  0  0.999494  0
H  H57  1  0.78222405  0.95690562  0.84987794  1  0  0.052851  0  0.937136  0  0  0.072178  0  0.999351  0  0  0.073123  0  0.999265  0  0  0.083279  0.07147  0  0.999452  0
H  H58  1  0.23755515  0.25645619  0.01018356  1  0  0.085889  0  0.927814  0  0  0.10609  0  0.983289  0  0  0.106323  0  0.98453  0  0  0.097589  0.10587  0  0.982482  0
H  H59  1  0.76243962  0.74354208  0.98981506  1  0  0.085892  0  0.927779  0  0  0.106076  0  0.983276  0  0  0.106307  0  0.984517  0  0  0.097585  0.105856  0  0.982468  0
H  H60  1  0.16581257  0.26498089  0.11344249  1  0  0.087396  0  0.920956  0  0  0.10629  0  0.975583  0  0  0.107468  0  0.975632  0  0  0.097025  0.105399  0  0.975616  0
H  H61  1  0.83418050  0.73501915  0.88655349  1  0  0.087429  0  0.920898  0  0  0.106394  0  0.97545  0  0  0.107575  0  0.975496  0  0  0.097068  0.105499  0  0.975486  0
C  C62  1  0.90362218  0.51036107  0.10858878  1  0  0.645558  0  3.964327  0  0  0.603608  0  4.254964  0  0  0.637635  0  4.248775  0  0  0.174607  0.580681  0  4.25806  0
C  C63  1  0.09641015  0.48962887  0.89141047  1  0  0.645727  0  3.963944  0  0  0.603778  0  4.254607  0  0  0.637807  0  4.248411  0  0  0.174733  0.580851  0  4.257708  0
C  C64  1  0.93436549  0.49540022  0.01984559  1  0  -0.161307  0  3.674866  0  0  -0.179743  0  3.931423  0  0  -0.185101  0  3.945507  0  0  -0.087038  -0.176193  0  3.921873  0
C  C65  1  0.06568306  0.50457576  0.98015550  1  0  -0.161648  0  3.674947  0  0  -0.180172  0  3.931512  0  0  -0.185536  0  3.945592  0  0  -0.087148  -0.176623  0  3.921969  0
C  C66  1  0.61558249  0.51537269  0.39576943  1  0  0.643428  0  3.976875  0  0  0.602261  0  4.266018  0  0  0.635984  0  4.260183  0  0  0.171278  0.57955  0  4.268874  0
C  C67  1  0.38442139  0.48463902  0.60422620  1  0  0.643439  0  3.977017  0  0  0.602324  0  4.266077  0  0  0.636042  0  4.260247  0  0  0.171206  0.579614  0  4.268934  0
C  C68  1  0.49915954  0.48987464  0.46086885  1  0  -0.162412  0  3.6872  0  0  -0.179556  0  3.940875  0  0  -0.184907  0  3.954994  0  0  -0.089844  -0.175998  0  3.931275  0
C  C69  1  0.50084638  0.51013357  0.53912410  1  0  -0.162391  0  3.686984  0  0  -0.179523  0  3.940609  0  0  -0.184869  0  3.954725  0  0  -0.08984  -0.175971  0  3.931025  0
C  C70  1  0.09479207  0.30546999  0.34542841  1  0  0.134321  0  3.727877  0  0  0.104896  0  3.980335  0  0  0.112547  0  3.998514  0  0  0.053022  0.10002  0  3.96792  0
C  C71  1  0.90520434  0.69453089  0.65457778  1  0  0.134211  0  3.727832  0  0  0.104797  0  3.980291  0  0  0.112446  0  3.998473  0  0  0.053088  0.09994  0  3.967878  0
C  C72  1  0.16163752  0.18740369  0.37381629  1  0  -0.182695  0  3.725101  0  0  -0.197792  0  3.966503  0  0  -0.206693  0  3.988263  0  0  -0.087515  -0.192104  0  3.951921  0
C  C73  1  0.83836077  0.81259812  0.62618844  1  0  -0.182595  0  3.725  0  0  -0.197661  0  3.966422  0  0  -0.206565  0  3.988186  0  0  -0.087513  -0.191971  0  3.951826  0
C  C74  1  0.07816260  0.10064462  0.37783276  1  0  0.152224  0  3.736714  0  0  0.167932  0  3.975717  0  0  0.173363  0  3.998681  0  0  0.009877  0.164528  0  3.959957  0
C  C75  1  0.92183561  0.89936077  0.62216775  1  0  0.152251  0  3.736498  0  0  0.167887  0  3.975645  0  0  0.173317  0  3.998609  0  0  0.00994  0.164486  0  3.959885  0
C  C76  1  0.92934274  0.13921567  0.35174576  1  0  -0.192389  0  3.750302  0  0  -0.209519  0  3.999488  0  0  -0.21825  0  4.020795  0  0  -0.091067  -0.203907  0  3.985154  0
C  C77  1  0.07065448  0.86078967  0.64825789  1  0  -0.192243  0  3.750126  0  0  -0.209361  0  3.999298  0  0  -0.218092  0  4.0206  0  0  -0.090971  -0.203751  0  3.984964  0
C  C78  1  0.86974998  0.25921597  0.32523770  1  0  0.12452  0  3.727041  0  0  0.093738  0  3.982923  0  0  0.101254  0  4.000733  0  0  0.046729  0.088941  0  3.970787  0
C  C79  1  0.13025075  0.74078854  0.67476528  1  0  0.124341  0  3.727096  0  0  0.093599  0  3.982993  0  0  0.101138  0  4.000779  0  0  0.046645  0.08881  0  3.970853  0
C  C80  1  0.02711055  0.63142534  0.40270943  1  0  0.113231  0  3.725996  0  0  0.082867  0  3.978094  0  0  0.090141  0  3.996101  0  0  0.039997  0.078275  0  3.965732  0
C  C81  1  0.97289057  0.36858099  0.59728773  1  0  0.113228  0  3.725968  0  0  0.082886  0  3.978026  0  0  0.090162  0  3.996034  0  0  0.039968  0.078293  0  3.965665  0
C  C82  1  0.13108396  0.68419204  0.43036563  1  0  -0.176174  0  3.72535  0  0  -0.193519  0  3.974121  0  0  -0.202102  0  3.996886  0  0  -0.089979  -0.188029  0  3.958848  0
C  C83  1  0.86891358  0.31581514  0.56963034  1  0  -0.176184  0  3.725302  0  0  -0.193518  0  3.974054  0  0  -0.202101  0  3.996812  0  0  -0.089975  -0.188027  0  3.958791  0
C  C84  1  0.24209807  0.72079653  0.37427646  1  0  0.152541  0  3.730245  0  0  0.169861  0  3.964564  0  0  0.17446  0  3.988105  0  0  0.012138  0.166988  0  3.948532  0
C  C85  1  0.75789982  0.27920975  0.62572209  1  0  0.152553  0  3.730114  0  0  0.169832  0  3.964486  0  0  0.174433  0  3.988026  0  0  0.012119  0.166956  0  3.948457  0
C  C86  1  0.24552688  0.69822392  0.29251480  1  0  -0.168782  0  3.708413  0  0  -0.185659  0  3.952872  0  0  -0.193949  0  3.974689  0  0  -0.086336  -0.180401  0  3.938267  0
C  C87  1  0.75447943  0.30177982  0.70748371  1  0  -0.168759  0  3.708319  0  0  -0.185617  0  3.952791  0  0  -0.193908  0  3.974611  0  0  -0.0863  -0.180357  0  3.938185  0
C  C88  1  0.13859329  0.64447824  0.26939610  1  0  0.1171  0  3.712409  0  0  0.087593  0  3.960711  0  0  0.094845  0  3.978588  0  0  0.04305  0.082992  0  3.948492  0
C  C89  1  0.86141049  0.35552282  0.73060168  1  0  0.117149  0  3.71232  0  0  0.087684  0  3.960606  0  0  0.094934  0  3.978488  0  0  0.043077  0.083084  0  3.948385  0
C  C90  1  0.14326300  0.97212000  0.40991759  1  0  -0.161437  0  3.711052  0  0  -0.204117  0  3.963334  0  0  -0.205799  0  3.975992  0  0  -0.160533  -0.202797  0  3.954328  0
C  C91  1  0.85673401  0.02788184  0.59008102  1  0  -0.161446  0  3.711127  0  0  -0.20418  0  3.963546  0  0  -0.205867  0  3.976213  0  0  -0.160603  -0.202854  0  3.954528  0
C  C92  1  0.29101214  0.92243527  0.36615476  1  0  -0.08965  0  3.678636  0  0  -0.129879  0  3.940393  0  0  -0.131098  0  3.954811  0  0  -0.158416  -0.12884  0  3.930232  0
C  C93  1  0.70898992  0.07757193  0.63384592  1  0  -0.089591  0  3.678472  0  0  -0.129901  0  3.940344  0  0  -0.131118  0  3.954759  0  0  -0.158399  -0.12886  0  3.930181  0
C  C94  1  0.34765948  0.78892639  0.39780733  1  0  -0.164476  0  3.693228  0  0  -0.206894  0  3.944008  0  0  -0.208578  0  3.956494  0  0  -0.157479  -0.205583  0  3.935241  0
C  C95  1  0.65234299  0.21107908  0.60218988  1  0  -0.164543  0  3.693223  0  0  -0.206947  0  3.94404  0  0  -0.208631  0  3.956526  0  0  -0.157511  -0.205637  0  3.935273  0
C  C96  1  0.71839543  0.84129794  0.24654683  1  0  0.120767  0  3.763967  0  0  0.09188  0  4.018565  0  0  0.099497  0  4.036748  0  0  0.041296  0.08702  0  4.006082  0
C  C97  1  0.28159308  0.15869579  0.75345460  1  0  0.120833  0  3.76405  0  0  0.092003  0  4.018602  0  0  0.099621  0  4.036777  0  0  0.041404  0.087144  0  4.006115  0
C  C98  1  0.63354518  0.95350860  0.21601552  1  0  -0.196051  0  3.758675  0  0  -0.214199  0  4.007899  0  0  -0.223079  0  4.030033  0  0  -0.093332  -0.208423  0  3.992989  0
C  C99  1  0.36644149  0.04648775  0.78398685  1  0  -0.195968  0  3.758624  0  0  -0.214117  0  4.007825  0  0  -0.222971  0  4.029968  0  0  -0.093325  -0.208335  0  3.99291  0
C  C100  1  0.52658856  0.96886074  0.15444938  1  0  0.162317  0  3.707264  0  0  0.178013  0  3.945117  0  0  0.183626  0  3.967909  0  0  0.014432  0.174469  0  3.929492  0
C  C101  1  0.47340294  0.03113392  0.84555115  1  0  0.162321  0  3.707367  0  0  0.17793  0  3.945326  0  0  0.183544  0  3.96811  0  0  0.014398  0.174384  0  3.929701  0
C  C102  1  0.51152461  0.86728913  0.12666502  1  0  -0.181314  0  3.685237  0  0  -0.194437  0  3.93253  0  0  -0.20354  0  3.953154  0  0  -0.089833  -0.188555  0  3.918792  0
C  C103  1  0.48846545  0.13270642  0.87333299  1  0  -0.181165  0  3.685215  0  0  -0.194303  0  3.932511  0  0  -0.203399  0  3.953155  0  0  -0.089695  -0.188423  0  3.918771  0
C  C104  1  0.60115927  0.75823903  0.16017648  1  0  0.125956  0  3.704569  0  0  0.096357  0  3.956261  0  0  0.103917  0  3.973642  0  0  0.046976  0.091524  0  3.944442  0
C  C105  1  0.39883786  0.24175841  0.83981968  1  0  0.125987  0  3.704473  0  0  0.096397  0  3.956178  0  0  0.103958  0  3.973558  0  0  0.046958  0.091561  0  3.944364  0
C  C106  1  0.87236976  0.15474249  0.94254351  1  0  0.114585  0  3.782108  0  0  0.090988  0  4.040202  0  0  0.096396  0  4.058775  0  0  0.035184  0.087631  0  4.027394  0
C  C107  1  0.12761890  0.84525475  0.05746111  1  0  0.11471  0  3.781822  0  0  0.091133  0  4.039913  0  0  0.09652  0  4.058484  0  0  0.035197  0.087772  0  4.027112  0
C  C108  1  0.01212020  0.16885571  0.96192506  1  0  -0.166827  0  3.706843  0  0  -0.183701  0  3.950747  0  0  -0.191104  0  3.973267  0  0  -0.087403  -0.178926  0  3.93557  0
C  C109  1  0.98787328  0.83113985  0.03807710  1  0  -0.166939  0  3.706917  0  0  -0.183831  0  3.950763  0  0  -0.191236  0  3.973292  0  0  -0.087432  -0.179054  0  3.935585  0
C  C110  1  0.02932863  0.20189052  0.03835308  1  0  0.153707  0  3.732155  0  0  0.170554  0  3.96861  0  0  0.17417  0  3.992908  0  0  0.011511  0.168314  0  3.952016  0
C  C111  1  0.97065907  0.79810586  0.96164739  1  0  0.153595  0  3.732333  0  0  0.170495  0  3.968723  0  0  0.174108  0  3.993026  0  0  0.011495  0.168255  0  3.952122  0
C  C112  1  0.90169370  0.22092035  0.09069025  1  0  -0.182103  0  3.732758  0  0  -0.197623  0  3.974702  0  0  -0.205992  0  3.998472  0  0  -0.091252  -0.192166  0  3.958648  0
C  C113  1  0.09830451  0.77907792  0.90931376  1  0  -0.182017  0  3.732825  0  0  -0.197564  0  3.974758  0  0  -0.205933  0  3.998523  0  0  -0.091285  -0.192108  0  3.958704  0
C  C114  1  0.76607726  0.20567560  0.06547275  1  0  0.118388  0  3.778597  0  0  0.094632  0  4.035126  0  0  0.100335  0  4.053655  0  0  0.037054  0.09103  0  4.022382  0
C  C115  1  0.23391625  0.79431995  0.93453064  1  0  0.118418  0  3.77891  0  0  0.094681  0  4.035452  0  0  0.100389  0  4.053975  0  0  0.037077  0.091077  0  4.02271  0
C  C116  1  0.43339907  0.08911605  0.11989253  1  0  -0.164988  0  3.702303  0  0  -0.209198  0  3.955992  0  0  -0.210854  0  3.968556  0  0  -0.157336  -0.207897  0  3.947082  0
C  C117  1  0.56659845  0.91088047  0.88010745  1  0  -0.16504  0  3.702396  0  0  -0.209173  0  3.956056  0  0  -0.210825  0  3.968631  0  0  -0.157333  -0.207871  0  3.94714  0
C  C118  1  0.27571886  0.08761688  0.09564142  1  0  -0.095352  0  3.694613  0  0  -0.135103  0  3.955912  0  0  -0.136284  0  3.970232  0  0  -0.162974  -0.134036  0  3.94579  0
C  C119  1  0.72427877  0.91238317  0.90436051  1  0  -0.095348  0  3.694438  0  0  -0.13517  0  3.955808  0  0  -0.136376  0  3.970152  0  0  -0.162948  -0.134089  0  3.945683  0
C  C120  1  0.17992079  0.21114843  0.06424050  1  0  -0.163276  0  3.701564  0  0  -0.206821  0  3.953828  0  0  -0.208424  0  3.967059  0  0  -0.158124  -0.205533  0  3.944462  0
C  C121  1  0.82007314  0.78884894  0.93575829  1  0  -0.163217  0  3.701617  0  0  -0.206795  0  3.953839  0  0  -0.208388  0  3.967073  0  0  -0.158083  -0.205511  0  3.944481  0
N  N122  1  0.95107069  0.34126751  0.32234948  1  0  -0.309922  0  3.229763  0  0  -0.240217  0  3.49544  0  0  -0.259068  0  3.513916  0  0  -0.321471  -0.227539  0  3.48267  0
N  N123  1  0.04892959  0.65873875  0.67765575  1  0  -0.309983  0  3.229741  0  0  -0.240307  0  3.495437  0  0  -0.259154  0  3.5139  0  0  -0.321518  -0.227629  0  3.48266  0
N  N124  1  0.02962683  0.61291662  0.32327990  1  0  -0.33483  0  3.261713  0  0  -0.259226  0  3.52685  0  0  -0.279678  0  3.546776  0  0  -0.331501  -0.245354  0  3.512852  0
N  N125  1  0.97037316  0.38708615  0.67671782  1  0  -0.335  0  3.261855  0  0  -0.259368  0  3.526922  0  0  -0.279821  0  3.54685  0  0  -0.331545  -0.245496  0  3.512925  0
N  N126  1  0.70334621  0.74469949  0.21920198  1  0  -0.323925  0  3.244074  0  0  -0.253499  0  3.513088  0  0  -0.272811  0  3.531725  0  0  -0.328449  -0.240492  0  3.500192  0
N  N127  1  0.29664953  0.25529527  0.78079463  1  0  -0.324021  0  3.244276  0  0  -0.253608  0  3.51328  0  0  -0.272919  0  3.531917  0  0  -0.328556  -0.240601  0  3.500385  0
N  N128  1  0.74982073  0.17169269  0.99305838  1  0  -0.338279  0  3.119247  0  0  -0.296426  0  3.384481  0  0  -0.308873  0  3.400377  0  0  -0.328625  -0.287853  0  3.373377  0
N  N129  1  0.25017361  0.82830376  0.00694484  1  0  -0.338319  0  3.11927  0  0  -0.296449  0  3.384463  0  0  -0.308897  0  3.400368  0  0  -0.328597  -0.287876  0  3.373364  0
O  O130  1  0.00638937  0.52947050  0.15003102  1  0  -0.65542  0  1.938733  0  0  -0.601127  0  2.173246  0  0  -0.628804  0  2.164231  0  0  -0.348443  -0.581707  0  2.178629  0
O  O131  1  0.99363836  0.47051669  0.84997069  1  0  -0.655402  0  1.938747  0  0  -0.601089  0  2.173244  0  0  -0.628771  0  2.164231  0  0  -0.348383  -0.581667  0  2.178624  0
O  O132  1  0.77274940  0.50401478  0.13978767  1  0  -0.641123  0  1.897721  0  0  -0.583733  0  2.121637  0  0  -0.610938  0  2.111248  0  0  -0.347306  -0.564644  0  2.127966  0
O  O133  1  0.22728143  0.49597961  0.86020545  1  0  -0.641219  0  1.897405  0  0  -0.583844  0  2.121355  0  0  -0.611048  0  2.110962  0  0  -0.347483  -0.564753  0  2.127681  0
O  O134  1  0.71618469  0.56646640  0.41179142  1  0  -0.662965  0  1.924606  0  0  -0.61151  0  2.160566  0  0  -0.638685  0  2.151426  0  0  -0.353309  -0.592406  0  2.166012  0
O  O135  1  0.28382511  0.43354007  0.58820406  1  0  -0.662893  0  1.924675  0  0  -0.611464  0  2.160641  0  0  -0.638634  0  2.151489  0  0  -0.353201  -0.592358  0  2.166084  0
O  O136  1  0.60913200  0.48270102  0.32571137  1  0  -0.640134  0  1.903464  0  0  -0.582636  0  2.127025  0  0  -0.609817  0  2.11688  0  0  -0.348279  -0.563548  0  2.133177  0
O  O137  1  0.39086988  0.51731334  0.67428027  1  0  -0.64015  0  1.903652  0  0  -0.58267  0  2.127182  0  0  -0.609846  0  2.117034  0  0  -0.348279  -0.563581  0  2.133334  0
