# generated using pymatgen
data_Yb2H18(C3O8)3
_symmetry_space_group_name_H-M   'P 1'
_cell_length_a   8.71198057
_cell_length_b   8.71199030
_cell_length_c   8.71199651
_cell_angle_alpha   66.38900858
_cell_angle_beta   66.38902338
_cell_angle_gamma   66.38891647
_symmetry_Int_Tables_number   1
_chemical_formula_structural   Yb2H18(C3O8)3
_chemical_formula_sum   'Yb2 H18 C9 O24'
_cell_volume   531.96838762
_cell_formula_units_Z   1
loop_
 _symmetry_equiv_pos_site_id
 _symmetry_equiv_pos_as_xyz
  1  'x, y, z'
loop_
 _atom_site_type_symbol
 _atom_site_label
 _atom_site_symmetry_multiplicity
 _atom_site_fract_x
 _atom_site_fract_y
 _atom_site_fract_z
 _atom_site_occupancy
 _atom_site_hle17_bader_spin_density
 _atom_site_hle17_ddec_charge
 _atom_site_hle17_ddec_spin_density
 _atom_site_hle17_ddec_sum_bond_order
 _atom_site_hle17_magmom
 _atom_site_hse06_10hf_bader_spin_density
 _atom_site_hse06_10hf_ddec_charge
 _atom_site_hse06_10hf_ddec_spin_density
 _atom_site_hse06_10hf_ddec_sum_bond_order
 _atom_site_hse06_10hf_magmom
 _atom_site_hse06_bader_spin_density
 _atom_site_hse06_ddec_charge
 _atom_site_hse06_ddec_spin_density
 _atom_site_hse06_ddec_sum_bond_order
 _atom_site_hse06_magmom
 _atom_site_pbe_bader_spin_density
 _atom_site_pbe_cm5_charge
 _atom_site_pbe_ddec_charge
 _atom_site_pbe_ddec_spin_density
 _atom_site_pbe_ddec_sum_bond_order
 _atom_site_pbe_magmom
C  C0  1  0.53513736  0.46486254  0.00000259  1  0  0.328195  0  3.68684  0  0  0.309421  0  3.949449  0  0  0.3165  0  3.951264  0  0  0.155784  0.303219  0  3.944362  0
C  C1  1  0.00000233  0.53513784  0.46486357  1  0  0.328106  0  3.686969  0  0  0.309329  0  3.949578  0  0  0.316414  0  3.951391  0  0  0.155742  0.303129  0  3.944491  0
C  C2  1  0.46486339  0.99999981  0.53513949  1  0  0.32798  0  3.687168  0  0  0.309248  0  3.949756  0  0  0.316323  0  3.951572  0  0  0.155777  0.303047  0  3.944666  0
C  C3  1  0.58312019  0.31530136  0.91882060  1  0  0.620718  0  3.816452  0  0  0.563557  0  4.120581  0  0  0.596158  0  4.112994  0  0  0.229882  0.540848  0  4.123214  0
C  C4  1  0.91882025  0.58312043  0.31530308  1  0  0.620745  0  3.816487  0  0  0.563619  0  4.120572  0  0  0.596216  0  4.11299  0  0  0.229942  0.540911  0  4.123206  0
C  C5  1  0.31530011  0.91881776  0.58312233  1  0  0.620871  0  3.81658  0  0  0.563655  0  4.120741  0  0  0.596259  0  4.11315  0  0  0.229975  0.540949  0  4.123371  0
C  C6  1  0.08117623  0.68470176  0.41688726  1  0  0.62088  0  3.816271  0  0  0.563694  0  4.120462  0  0  0.596297  0  4.11287  0  0  0.229944  0.540988  0  4.123094  0
C  C7  1  0.68470107  0.41688623  0.08117726  1  0  0.620826  0  3.816326  0  0  0.563645  0  4.120503  0  0  0.596252  0  4.112911  0  0  0.229907  0.540939  0  4.123137  0
C  C8  1  0.41688778  0.08117412  0.68470654  1  0  0.620959  0  3.816529  0  0  0.563759  0  4.120726  0  0  0.59637  0  4.113125  0  0  0.229926  0.541051  0  4.123358  0
H  H9  1  0.32375767  0.55157904  0.19260499  1  0  0.418325  0  0.878383  0  0  0.385394  0  0.954045  0  0  0.39787  0  0.936086  0  0  0.307819  0.376409  0  0.966771  0
H  H10  1  0.19260530  0.32375786  0.55157921  1  0  0.418334  0  0.878364  0  0  0.385399  0  0.954036  0  0  0.397877  0  0.936075  0  0  0.307821  0.376413  0  0.966763  0
H  H11  1  0.55157878  0.19260519  0.32375846  1  0  0.418339  0  0.878357  0  0  0.385406  0  0.954028  0  0  0.397882  0  0.936068  0  0  0.307824  0.376419  0  0.966756  0
H  H12  1  0.80739688  0.44842169  0.67624332  1  0  0.418351  0  0.878309  0  0  0.385339  0  0.954117  0  0  0.397816  0  0.936156  0  0  0.307783  0.376353  0  0.966844  0
H  H13  1  0.44842216  0.67624173  0.80739677  1  0  0.418377  0  0.878304  0  0  0.385375  0  0.95407  0  0  0.397851  0  0.936111  0  0  0.3078  0.376391  0  0.966794  0
H  H14  1  0.67624322  0.80739614  0.44842124  1  0  0.418337  0  0.878369  0  0  0.385399  0  0.954034  0  0  0.397876  0  0.936074  0  0  0.307809  0.376413  0  0.966761  0
H  H15  1  0.23370584  0.28286915  0.86558467  1  0  0.449076  0  0.845096  0  0  0.41674  0  0.908132  0  0  0.428533  0  0.89093  0  0  0.300625  0.407671  0  0.921288  0
H  H16  1  0.86558429  0.23370571  0.28286910  1  0  0.449045  0  0.845138  0  0  0.416704  0  0.908184  0  0  0.428497  0  0.890982  0  0  0.300616  0.407634  0  0.921341  0
H  H17  1  0.28286960  0.86558420  0.23370597  1  0  0.44905  0  0.84513  0  0  0.416712  0  0.908171  0  0  0.428506  0  0.890968  0  0  0.300611  0.407643  0  0.921326  0
H  H18  1  0.13441836  0.71713262  0.76629316  1  0  0.449029  0  0.845155  0  0  0.416685  0  0.908202  0  0  0.428478  0  0.891001  0  0  0.300611  0.407619  0  0.921353  0
H  H19  1  0.71713317  0.76629339  0.13441840  1  0  0.449025  0  0.845158  0  0  0.416681  0  0.908204  0  0  0.428474  0  0.891003  0  0  0.300617  0.407614  0  0.921356  0
H  H20  1  0.76629390  0.13441658  0.71713267  1  0  0.449044  0  0.845131  0  0  0.416702  0  0.908173  0  0  0.428495  0  0.890972  0  0  0.300628  0.407635  0  0.921324  0
H  H21  1  0.04836813  0.37381470  0.97823875  1  0  0.444796  0  0.840118  0  0  0.416803  0  0.902056  0  0  0.427193  0  0.886509  0  0  0.311813  0.408895  0  0.91365  0
H  H22  1  0.97823848  0.04836886  0.37381471  1  0  0.444783  0  0.84011  0  0  0.416793  0  0.902061  0  0  0.427182  0  0.886515  0  0  0.31181  0.408886  0  0.913653  0
H  H23  1  0.37381599  0.97823826  0.04836785  1  0  0.444761  0  0.840153  0  0  0.416771  0  0.902097  0  0  0.427158  0  0.886554  0  0  0.311794  0.408863  0  0.91369  0
H  H24  1  0.02176356  0.62618488  0.95163128  1  0  0.444844  0  0.840116  0  0  0.416852  0  0.902  0  0  0.427239  0  0.886456  0  0  0.311835  0.408944  0  0.913591  0
H  H25  1  0.62618536  0.95163013  0.02176300  1  0  0.44477  0  0.840173  0  0  0.416779  0  0.902095  0  0  0.427167  0  0.88655  0  0  0.311796  0.408871  0  0.913686  0
H  H26  1  0.95163283  0.02176217  0.62618446  1  0  0.444782  0  0.840124  0  0  0.416779  0  0.902086  0  0  0.427168  0  0.886541  0  0  0.311794  0.408871  0  0.913679  0
O  O27  1  0.37141116  0.46277716  0.12353293  1  0  -0.704992  0  2.250899  0  0  -0.668246  0  2.488701  0  0  -0.68495  0  2.471768  0  0  -0.439338  -0.643802  0  2.502784  0
O  O28  1  0.12353133  0.37141433  0.46277764  1  0  -0.704953  0  2.250913  0  0  -0.668216  0  2.488727  0  0  -0.684921  0  2.471792  0  0  -0.439335  -0.643772  0  2.50281  0
O  O29  1  0.46277692  0.12353022  0.37141500  1  0  -0.704936  0  2.250949  0  0  -0.668209  0  2.488749  0  0  -0.684912  0  2.471815  0  0  -0.439344  -0.643765  0  2.502832  0
O  O30  1  0.87647159  0.53722412  0.62858677  1  0  -0.704965  0  2.250957  0  0  -0.668173  0  2.488815  0  0  -0.68488  0  2.47188  0  0  -0.439312  -0.643734  0  2.502898  0
O  O31  1  0.53722421  0.62858807  0.87647144  1  0  -0.70503  0  2.250915  0  0  -0.668235  0  2.488742  0  0  -0.684938  0  2.471806  0  0  -0.439338  -0.643795  0  2.502825  0
O  O32  1  0.62858643  0.87647126  0.53722543  1  0  -0.70496  0  2.251079  0  0  -0.668223  0  2.488864  0  0  -0.684926  0  2.47193  0  0  -0.439346  -0.643782  0  2.502947  0
O  O33  1  0.50770826  0.19686100  0.01086715  1  0  -0.662323  0  2.093897  0  0  -0.615461  0  2.338165  0  0  -0.640331  0  2.328772  0  0  -0.356236  -0.586834  0  2.346543  0
O  O34  1  0.01086787  0.50770827  0.19686196  1  0  -0.662414  0  2.093904  0  0  -0.61556  0  2.338154  0  0  -0.640425  0  2.32876  0  0  -0.35631  -0.586934  0  2.346533  0
O  O35  1  0.19686253  0.01086563  0.50770761  1  0  -0.662542  0  2.094082  0  0  -0.615579  0  2.338285  0  0  -0.640449  0  2.328888  0  0  -0.356337  -0.586949  0  2.346654  0
O  O36  1  0.98913432  0.80313803  0.49229284  1  0  -0.662338  0  2.09408  0  0  -0.615451  0  2.338358  0  0  -0.640322  0  2.328965  0  0  -0.356215  -0.586821  0  2.346715  0
O  O37  1  0.80313902  0.49229056  0.98913461  1  0  -0.662329  0  2.094034  0  0  -0.615439  0  2.338298  0  0  -0.640312  0  2.328906  0  0  -0.356211  -0.586806  0  2.34665  0
O  O38  1  0.49229097  0.98913351  0.80313848  1  0  -0.662404  0  2.094291  0  0  -0.615515  0  2.33857  0  0  -0.640383  0  2.32917  0  0  -0.356264  -0.586894  0  2.34695  0
O  O39  1  0.69815540  0.31703949  0.77262695  1  0  -0.557226  0  2.011988  0  0  -0.495145  0  2.214577  0  0  -0.520051  0  2.202786  0  0  -0.281426  -0.478959  0  2.224365  0
O  O40  1  0.77262869  0.69815321  0.31703898  1  0  -0.557129  0  2.012036  0  0  -0.495096  0  2.214595  0  0  -0.520002  0  2.202806  0  0  -0.281397  -0.478913  0  2.224384  0
O  O41  1  0.31703993  0.77262842  0.69815273  1  0  -0.557142  0  2.011974  0  0  -0.495076  0  2.214606  0  0  -0.519983  0  2.202814  0  0  -0.281404  -0.478897  0  2.224396  0
O  O42  1  0.22737734  0.68296247  0.30184249  1  0  -0.557302  0  2.011704  0  0  -0.495275  0  2.214316  0  0  -0.520184  0  2.202523  0  0  -0.281514  -0.479089  0  2.224104  0
O  O43  1  0.68296308  0.30184376  0.22737744  1  0  -0.557298  0  2.011815  0  0  -0.49526  0  2.214406  0  0  -0.52017  0  2.202613  0  0  -0.28148  -0.479072  0  2.224194  0
O  O44  1  0.30184568  0.22737468  0.68296409  1  0  -0.557331  0  2.011773  0  0  -0.495283  0  2.214366  0  0  -0.520196  0  2.202571  0  0  -0.281473  -0.479095  0  2.224155  0
O  O45  1  0.17229819  0.31973232  0.97503003  1  0  -0.94142  0  1.928517  0  0  -0.904511  0  2.128708  0  0  -0.922982  0  2.094152  0  0  -0.674637  -0.877799  0  2.162105  0
O  O46  1  0.97502977  0.17229565  0.31973300  1  0  -0.941376  0  1.928536  0  0  -0.904465  0  2.128738  0  0  -0.922937  0  2.094186  0  0  -0.674629  -0.877753  0  2.162134  0
O  O47  1  0.31973302  0.97502934  0.17229589  1  0  -0.941367  0  1.928575  0  0  -0.904458  0  2.128773  0  0  -0.92293  0  2.094223  0  0  -0.674605  -0.877746  0  2.162171  0
O  O48  1  0.02497175  0.68026752  0.82770455  1  0  -0.941403  0  1.928575  0  0  -0.904482  0  2.128748  0  0  -0.922953  0  2.094196  0  0  -0.674607  -0.877775  0  2.162141  0
O  O49  1  0.68026895  0.82770386  0.02497173  1  0  -0.941333  0  1.928591  0  0  -0.90442  0  2.128788  0  0  -0.92289  0  2.094235  0  0  -0.674588  -0.877711  0  2.162182  0
O  O50  1  0.82770399  0.02497169  0.68026878  1  0  -0.941336  0  1.928527  0  0  -0.904427  0  2.128763  0  0  -0.922897  0  2.094212  0  0  -0.674593  -0.877719  0  2.162158  0
Yb  Yb51  1  0.23379533  0.23379465  0.23379528  1  0  2.306791  0  1.552411  0  0  2.238525  0  1.849339  0  0  2.280979  0  1.813892  0  0  1.570841  2.10593  0  2.068355  0
Yb  Yb52  1  0.76620655  0.76620447  0.76620518  1  0  2.306711  0  1.552517  0  0  2.238439  0  1.849458  0  0  2.280895  0  1.81401  0  0  1.570812  2.105863  0  2.068445  0
