# generated using pymatgen
data_ZnH30C45N4(O2F3)2
_symmetry_space_group_name_H-M   'P 1'
_cell_length_a   13.90894261
_cell_length_b   13.90886114
_cell_length_c   28.98510830
_cell_angle_alpha   80.11939501
_cell_angle_beta   80.11945585
_cell_angle_gamma   63.14597409
_symmetry_Int_Tables_number   1
_chemical_formula_structural   ZnH30C45N4(O2F3)2
_chemical_formula_sum   'Zn4 H120 C180 N16 O16 F24'
_cell_volume   4900.17007184
_cell_formula_units_Z   4
loop_
 _symmetry_equiv_pos_site_id
 _symmetry_equiv_pos_as_xyz
  1  'x, y, z'
loop_
 _atom_site_type_symbol
 _atom_site_label
 _atom_site_symmetry_multiplicity
 _atom_site_fract_x
 _atom_site_fract_y
 _atom_site_fract_z
 _atom_site_occupancy
 _atom_site_pbe_bader_charge
 _atom_site_pbe_bader_spin_density
 _atom_site_pbe_cm5_charge
 _atom_site_pbe_ddec_charge
 _atom_site_pbe_ddec_spin_density
 _atom_site_pbe_ddec_sum_bond_order
 _atom_site_pbe_magmom
Zn  Zn0  1  0.09163485  0.45535359  0.27947185  1  1.258061  0  0.699335  0.797813  0  2.413667  0
Zn  Zn1  1  0.54464597  0.90836266  0.22052923  1  1.258047  0  0.699362  0.797795  0  2.413679  0
Zn  Zn2  1  0.90836541  0.54464505  0.72052729  1  1.258051  0  0.699343  0.797824  0  2.413637  0
Zn  Zn3  1  0.45535267  0.09163815  0.77947160  1  1.258038  0  0.699394  0.797848  0  2.413595  0
H  H4  1  0.83854029  0.61265293  0.29926874  1  0.221941  0  0.140222  0.120196  0  1.028907  0
H  H5  1  0.38734494  0.16146223  0.20073276  1  0.221816  0  0.140212  0.120156  0  1.028973  0
H  H6  1  0.16145835  0.38734861  0.70073236  1  0.22187  0  0.140217  0.120186  0  1.029008  0
H  H7  1  0.61265289  0.83853820  0.79926851  1  0.22187  0  0.140231  0.120209  0  1.028976  0
H  H8  1  0.14183318  0.31031522  0.38164920  1  0.056748  0  0.101525  0.106905  0  1.033416  0
H  H9  1  0.68968381  0.85816082  0.11835739  1  0.054304  0  0.101529  0.106911  0  1.033458  0
H  H10  1  0.85816626  0.68968669  0.61835078  1  0.056754  0  0.101512  0.106892  0  1.033402  0
H  H11  1  0.31031239  0.14184177  0.88164176  1  0.054309  0  0.10156  0.106937  0  1.033414  0
H  H12  1  0.09821184  0.21311090  0.45732188  1  0.055454  0  0.096492  0.100928  0  1.008926  0
H  H13  1  0.78688894  0.90177758  0.04268192  1  0.055658  0  0.096469  0.100909  0  1.008892  0
H  H14  1  0.90178921  0.78689177  0.54267721  1  0.055494  0  0.096473  0.100892  0  1.008905  0
H  H15  1  0.21310807  0.09822465  0.95731685  1  0.055641  0  0.096449  0.100888  0  1.008893  0
H  H16  1  0.90854168  0.26757765  0.49261359  1  0.078711  0  0.091725  0.093096  0  1.025555  0
H  H17  1  0.73241897  0.09144919  0.00738829  1  0.076858  0  0.091734  0.093109  0  1.02547  0
H  H18  1  0.09146101  0.73242068  0.50738607  1  0.07869  0  0.091698  0.093055  0  1.025593  0
H  H19  1  0.26757884  0.90855562  0.99261192  1  0.076842  0  0.091729  0.093117  0  1.025486  0
H  H20  1  0.75538082  0.41842406  0.45407308  1  0.072865  0  0.1057  0.113412  0  1.001069  0
H  H21  1  0.58157612  0.24461013  0.04592711  1  0.072883  0  0.105701  0.113462  0  1.001086  0
H  H22  1  0.24461863  0.58157347  0.54592691  1  0.072732  0  0.105696  0.113404  0  1.00107  0
H  H23  1  0.41842333  0.75539033  0.95407436  1  0.072789  0  0.105715  0.113489  0  1.001052  0
H  H24  1  0.65425265  0.67185748  0.35843590  1  0.113981  0  0.120595  0.121812  0  0.994377  0
H  H25  1  0.32814210  0.34574764  0.14156322  1  0.113976  0  0.120647  0.121831  0  0.994336  0
H  H26  1  0.34574599  0.32814260  0.64156429  1  0.113981  0  0.120624  0.121846  0  0.994326  0
H  H27  1  0.67185491  0.65425533  0.85843756  1  0.114023  0  0.120634  0.12185  0  0.994381  0
H  H28  1  0.65016277  0.56783564  0.40322355  1  0.082857  0  0.11611  0.099571  0  0.962676  0
H  H29  1  0.43216393  0.34983829  0.09677655  1  0.082858  0  0.11611  0.099552  0  0.962689  0
H  H30  1  0.34983749  0.43216374  0.59677760  1  0.082894  0  0.116104  0.099566  0  0.962703  0
H  H31  1  0.56783390  0.65016287  0.90322500  1  0.082832  0  0.116118  0.099554  0  0.962656  0
H  H32  1  0.52633303  0.69988740  0.30790235  1  0.084808  0  0.105359  0.116416  0  1.003772  0
H  H33  1  0.30011273  0.47366521  0.19209828  1  0.084815  0  0.105357  0.116432  0  1.003754  0
H  H34  1  0.47366560  0.30011487  0.69209870  1  0.084858  0  0.105369  0.116418  0  1.003781  0
H  H35  1  0.69988672  0.52633525  0.80790285  1  0.084796  0  0.105363  0.116442  0  1.003773  0
H  H36  1  0.46262831  0.63188540  0.25195379  1  0.08845  0  0.100692  0.099908  0  1.01673  0
H  H37  1  0.36811546  0.53736851  0.24804689  1  0.088477  0  0.100707  0.099948  0  1.016755  0
H  H38  1  0.53737032  0.36811541  0.74804668  1  0.088457  0  0.100701  0.099949  0  1.016741  0
H  H39  1  0.63188480  0.46263233  0.75195414  1  0.088517  0  0.100695  0.099908  0  1.016737  0
H  H40  1  0.69940963  0.30648639  0.28929196  1  0.071602  0  0.093024  0.091539  0  1.022624  0
H  H41  1  0.69350993  0.30058934  0.21070754  1  0.071672  0  0.092989  0.091432  0  1.02272  0
H  H42  1  0.30058981  0.69351407  0.71070779  1  0.071594  0  0.093013  0.091499  0  1.022651  0
H  H43  1  0.30648871  0.69941147  0.78929259  1  0.071663  0  0.093004  0.091448  0  1.022713  0
H  H44  1  0.76152349  0.37405278  0.34587594  1  0.061383  0  0.092873  0.096436  0  1.037525  0
H  H45  1  0.62594478  0.23847396  0.15412359  1  0.073998  0  0.092847  0.096403  0  1.0375  0
H  H46  1  0.23847515  0.62594729  0.65412528  1  0.061396  0  0.092872  0.096453  0  1.037487  0
H  H47  1  0.37405223  0.76152974  0.84587610  1  0.073958  0  0.092841  0.096409  0  1.037458  0
H  H48  1  0.31147069  0.23167601  0.28598477  1  0.235413  0  0.139318  0.12169  0  1.047373  0
H  H49  1  0.76832287  0.68852455  0.21401483  1  0.235482  0  0.139273  0.12166  0  1.047284  0
H  H50  1  0.68852875  0.76832518  0.71401561  1  0.235371  0  0.139309  0.121733  0  1.047326  0
H  H51  1  0.23167901  0.31147559  0.78598509  1  0.235512  0  0.13929  0.121679  0  1.047282  0
H  H52  1  0.14222992  0.61096292  0.33211970  1  0.072036  0  0.105324  0.119269  0  1.003547  0
H  H53  1  0.38903718  0.85777151  0.16788135  1  0.072037  0  0.105327  0.119246  0  1.003509  0
H  H54  1  0.85777195  0.38903868  0.66788044  1  0.072049  0  0.105317  0.119235  0  1.003548  0
H  H55  1  0.61096388  0.14222898  0.83211964  1  0.07206  0  0.105327  0.119278  0  1.003476  0
H  H56  1  0.24638812  0.66559184  0.37654837  1  0.110965  0  0.093886  0.098323  0  1.020096  0
H  H57  1  0.33440597  0.75361519  0.12345099  1  0.110942  0  0.093867  0.098318  0  1.020041  0
H  H58  1  0.75361539  0.33440321  0.62345218  1  0.110908  0  0.093854  0.098299  0  1.020032  0
H  H59  1  0.66559510  0.24638457  0.87655075  1  0.111029  0  0.093853  0.098296  0  1.02003  0
H  H60  1  0.42796675  0.53559981  0.39837849  1  0.060424  0  0.098096  0.095838  0  0.999892  0
H  H61  1  0.46439642  0.57203613  0.10161931  1  0.060515  0  0.098045  0.095764  0  0.999837  0
H  H62  1  0.57203352  0.46439811  0.60162312  1  0.060424  0  0.098112  0.095869  0  0.999871  0
H  H63  1  0.53560302  0.42796506  0.89838175  1  0.060464  0  0.098065  0.095807  0  0.999866  0
H  H64  1  0.51524590  0.34648926  0.37661092  1  0.123052  0  0.106009  0.116649  0  1.001255  0
H  H65  1  0.65350717  0.48475612  0.12338694  1  0.123078  0  0.106056  0.116676  0  1.001348  0
H  H66  1  0.48475518  0.65350831  0.62339100  1  0.123101  0  0.106013  0.116673  0  1.001273  0
H  H67  1  0.34649228  0.51524434  0.87661384  1  0.123061  0  0.106044  0.116658  0  1.001361  0
H  H68  1  0.49259783  0.12280575  0.30627255  1  0.13512  0  0.125394  0.127507  0  0.965283  0
H  H69  1  0.87719028  0.50740331  0.19372611  1  0.134654  0  0.125425  0.127562  0  0.965234  0
H  H70  1  0.50740162  0.87719324  0.69372732  1  0.135134  0  0.125411  0.127541  0  0.965265  0
H  H71  1  0.12281078  0.49259645  0.80627425  1  0.134586  0  0.125429  0.127589  0  0.965209  0
H  H72  1  0.56806536  0.18687220  0.31955152  1  0.078242  0  0.114495  0.101119  0  0.962556  0
H  H73  1  0.81312888  0.43192966  0.18044723  1  0.078123  0  0.11447  0.101128  0  0.962472  0
H  H74  1  0.43193490  0.81312644  0.68044763  1  0.07814  0  0.114506  0.101139  0  0.962512  0
H  H75  1  0.18687219  0.56806936  0.81955250  1  0.078114  0  0.114456  0.101117  0  0.96248  0
H  H76  1  0.32389340  0.22537253  0.40273665  1  0.054628  0  0.097068  0.094524  0  1.035033  0
H  H77  1  0.77462475  0.67610611  0.09726135  1  0.054849  0  0.097049  0.094471  0  1.035139  0
H  H78  1  0.67610686  0.77462611  0.59726215  1  0.05464  0  0.097042  0.094496  0  1.035087  0
H  H79  1  0.22537631  0.32389511  0.90273889  1  0.054855  0  0.097047  0.094478  0  1.035106  0
H  H80  1  0.32874989  0.14065662  0.48353576  1  0.058414  0  0.097684  0.095314  0  1.021125  0
H  H81  1  0.85934259  0.67124863  0.01646320  1  0.058369  0  0.0977  0.095295  0  1.021049  0
H  H82  1  0.67124793  0.85934527  0.51646331  1  0.058401  0  0.097694  0.095295  0  1.021078  0
H  H83  1  0.14065928  0.32875150  0.98353741  1  0.058399  0  0.097689  0.09531  0  1.02103  0
H  H84  1  0.66671793  0.92493604  0.45190049  1  0.021835  0  0.095691  0.093017  0  1.029027  0
H  H85  1  0.07506793  0.33328113  0.04809975  1  0.021816  0  0.095705  0.093057  0  1.028957  0
H  H86  1  0.33328070  0.07506623  0.54810021  1  0.021828  0  0.095703  0.093041  0  1.028965  0
H  H87  1  0.92493395  0.66671974  0.95190010  1  0.021814  0  0.095697  0.093018  0  1.028984  0
H  H88  1  0.66057837  0.01198446  0.37132722  1  0.092385  0  0.09142  0.091099  0  1.06557  0
H  H89  1  0.98801827  0.33941966  0.12867288  1  0.092359  0  0.091392  0.091099  0  1.065582  0
H  H90  1  0.33942270  0.98801530  0.62867280  1  0.092377  0  0.09142  0.091095  0  1.065609  0
H  H91  1  0.01198361  0.66057974  0.87132676  1  0.092346  0  0.091401  0.091098  0  1.065583  0
H  H92  1  0.85822122  0.80541914  0.17003026  1  0.088385  0  0.102474  0.100209  0  1.022595  0
H  H93  1  0.19457982  0.14178085  0.32996670  1  0.088385  0  0.102494  0.100247  0  1.022625  0
H  H94  1  0.14177985  0.19458134  0.82996831  1  0.088364  0  0.102467  0.100189  0  1.022622  0
H  H95  1  0.80541720  0.85821993  0.67003323  1  0.088263  0  0.102487  0.100245  0  1.022635  0
H  H96  1  0.86104603  0.97049822  0.12458007  1  0.070591  0  0.092967  0.099999  0  1.05074  0
H  H97  1  0.02950111  0.13895669  0.37541784  1  0.070532  0  0.092994  0.100027  0  1.050674  0
H  H98  1  0.13895585  0.02949899  0.87541871  1  0.070536  0  0.09296  0.099949  0  1.050759  0
H  H99  1  0.97049428  0.86104478  0.62458320  1  0.070588  0  0.09293  0.099937  0  1.050897  0
H  H100  1  0.15419227  0.90265739  0.18264189  1  0.078498  0  0.100543  0.106082  0  1.012026  0
H  H101  1  0.09734206  0.84580468  0.31735855  1  0.07846  0  0.100545  0.1061  0  1.012006  0
H  H102  1  0.84580638  0.09734049  0.81735814  1  0.078418  0  0.100533  0.106078  0  1.012031  0
H  H103  1  0.90265901  0.15419288  0.68264199  1  0.078484  0  0.100531  0.106058  0  1.012023  0
H  H104  1  0.15301916  0.73210007  0.22575125  1  0.097899  0  0.105344  0.111217  0  1.000884  0
H  H105  1  0.26789830  0.84697778  0.27424894  1  0.097844  0  0.105365  0.111221  0  1.000822  0
H  H106  1  0.84698112  0.26789492  0.77424992  1  0.097934  0  0.105349  0.111211  0  1.000924  0
H  H107  1  0.73210033  0.15302448  0.72575107  1  0.097811  0  0.105396  0.111215  0  1.000758  0
H  H108  1  0.94672209  0.10575535  0.20772944  1  0.087983  0  0.098289  0.104458  0  1.016736  0
H  H109  1  0.89424696  0.05327948  0.29226763  1  0.08773  0  0.098297  0.104449  0  1.016688  0
H  H110  1  0.05327898  0.89424294  0.79227035  1  0.087964  0  0.098276  0.104402  0  1.016784  0
H  H111  1  0.10575492  0.94671846  0.70773144  1  0.087749  0  0.098309  0.104494  0  1.01664  0
H  H112  1  0.99339173  0.21710096  0.25066107  1  0.113736  0  0.105542  0.113944  0  0.998247  0
H  H113  1  0.78290253  0.00660779  0.24933676  1  0.113846  0  0.105513  0.113908  0  0.998177  0
H  H114  1  0.00660852  0.78290134  0.74933742  1  0.113734  0  0.105528  0.113925  0  0.998186  0
H  H115  1  0.21709935  0.99338869  0.75066242  1  0.113775  0  0.105513  0.113893  0  0.998233  0
H  H116  1  0.24018804  0.21320220  0.13898597  1  0.053616  0  0.104315  0.104065  0  1.014293  0
H  H117  1  0.78679733  0.75981356  0.36101340  1  0.053653  0  0.104293  0.10399  0  1.01428  0
H  H118  1  0.75981302  0.78679829  0.86101261  1  0.053652  0  0.104283  0.103984  0  1.014319  0
H  H119  1  0.21320131  0.24018578  0.63898616  1  0.053686  0  0.104308  0.104007  0  1.014296  0
H  H120  1  0.19216409  0.10836246  0.09461601  1  0.104559  0  0.096767  0.104462  0  1.022704  0
H  H121  1  0.89163426  0.80784055  0.40538299  1  0.104637  0  0.096785  0.104474  0  1.022708  0
H  H122  1  0.80784023  0.89163297  0.90538375  1  0.104463  0  0.09681  0.104524  0  1.022636  0
H  H123  1  0.10836438  0.19215879  0.59461726  1  0.104516  0  0.096789  0.104486  0  1.022736  0
C  C124  1  0.86801827  0.55147277  0.32881118  1  0.983017  0  0.170176  0.145925  0  3.879404  0
C  C125  1  0.44852312  0.13198185  0.17119034  1  0.983628  0  0.170118  0.145823  0  3.879478  0
C  C126  1  0.13198119  0.44852549  0.67118875  1  0.983107  0  0.170159  0.145911  0  3.879508  0
C  C127  1  0.55147470  0.86802077  0.82881040  1  0.98333  0  0.170103  0.145755  0  3.879458  0
C  C128  1  0.86416919  0.44910119  0.39619281  1  0.302827  0  0.090825  0.082158  0  4.023516  0
C  C129  1  0.55089424  0.13582633  0.10380913  1  0.302642  0  0.090927  0.082253  0  4.023658  0
C  C130  1  0.13583108  0.55089672  0.60380674  1  0.302912  0  0.090837  0.082209  0  4.023571  0
C  C131  1  0.44910359  0.86417483  0.89619104  1  0.302704  0  0.090973  0.082258  0  4.02356  0
C  C132  1  0.97253222  0.41900898  0.37569213  1  0.368885  0  0.086455  0.148218  0  4.047777  0
C  C133  1  0.58098927  0.02746650  0.12431103  1  0.368841  0  0.086367  0.148016  0  4.047987  0
C  C134  1  0.02746722  0.58099075  0.62430733  1  0.368869  0  0.086478  0.148252  0  4.04773  0
C  C135  1  0.41901017  0.97253468  0.87568934  1  0.368847  0  0.086379  0.148071  0  4.047864  0
C  C136  1  0.05855602  0.33388504  0.39748114  1  -0.009899  0  -0.092847  -0.152115  0  3.983125  0
C  C137  1  0.66611420  0.94143770  0.10252270  1  -0.007724  0  -0.092803  -0.151956  0  3.982868  0
C  C138  1  0.94144424  0.66611507  0.60251788  1  -0.009893  0  -0.092771  -0.152055  0  3.983002  0
C  C139  1  0.33388524  0.05856422  0.89747728  1  -0.008156  0  -0.092838  -0.15201  0  3.982839  0
C  C140  1  0.03331888  0.28076029  0.43964329  1  0.004141  0  -0.101473  -0.098197  0  4.035564  0
C  C141  1  0.71924128  0.96667160  0.06036027  1  0.003989  0  -0.101408  -0.0982  0  4.035159  0
C  C142  1  0.96668137  0.71923982  0.56035607  1  0.004068  0  -0.101466  -0.098145  0  4.03541  0
C  C143  1  0.28075978  0.03333108  0.93963916  1  0.004295  0  -0.101348  -0.098141  0  4.035138  0
C  C144  1  0.92524017  0.31156803  0.45983352  1  -0.024125  0  -0.100321  -0.0782  0  4.04015  0
C  C145  1  0.68843073  0.07474945  0.04016933  1  -0.022352  0  -0.10038  -0.07818  0  4.040004  0
C  C146  1  0.07475928  0.68843096  0.54016532  1  -0.024129  0  -0.100303  -0.078186  0  4.040025  0
C  C147  1  0.31156953  0.92525065  0.95983073  1  -0.0223  0  -0.100417  -0.07822  0  4.040095  0
C  C148  1  0.83870059  0.39605422  0.43848606  1  -0.007376  0  -0.099743  -0.174014  0  4.031532  0
C  C149  1  0.60394416  0.16129170  0.06151555  1  -0.006882  0  -0.099825  -0.174238  0  4.031787  0
C  C150  1  0.16129887  0.60394404  0.56151352  1  -0.007181  0  -0.099752  -0.174028  0  4.031495  0
C  C151  1  0.39605690  0.83871025  0.93848532  1  -0.006762  0  -0.099858  -0.174278  0  4.03191  0
C  C152  1  0.68241007  0.58400424  0.36686446  1  0.295338  0  -0.042715  -0.108633  0  3.89558  0
C  C153  1  0.41599518  0.31759034  0.13313571  1  0.295382  0  -0.042754  -0.108611  0  3.8955  0
C  C154  1  0.31758938  0.41599475  0.63313610  1  0.295397  0  -0.042739  -0.108611  0  3.89549  0
C  C155  1  0.58400265  0.68241155  0.86686544  1  0.295482  0  -0.042751  -0.10863  0  3.895561  0
C  C156  1  0.64591776  0.54133563  0.33195427  1  0.079935  0  -0.016131  0.084378  0  3.97515  0
C  C157  1  0.45866648  0.35408257  0.16804533  1  0.079816  0  -0.016121  0.084363  0  3.974938  0
C  C158  1  0.35408088  0.45866445  0.66804661  1  0.079759  0  -0.016119  0.084331  0  3.974984  0
C  C159  1  0.54133215  0.64592117  0.83195456  1  0.079693  0  -0.016163  0.084338  0  3.975019  0
C  C160  1  0.56216915  0.61308871  0.30498673  1  -0.065454  0  -0.086913  -0.122163  0  3.96576  0
C  C161  1  0.38691198  0.43783029  0.19501306  1  -0.065479  0  -0.086969  -0.122272  0  3.965825  0
C  C162  1  0.43782948  0.38691356  0.69501397  1  -0.065453  0  -0.086963  -0.122169  0  3.965786  0
C  C163  1  0.61308908  0.56217166  0.80498746  1  -0.065471  0  -0.086945  -0.122286  0  3.965746  0
C  C164  1  0.52687435  0.57469457  0.27317154  1  -0.030317  0  -0.087936  -0.115452  0  3.972138  0
C  C165  1  0.42530279  0.47312539  0.22682851  1  -0.030338  0  -0.087941  -0.115481  0  3.972113  0
C  C166  1  0.47312510  0.42530588  0.72682890  1  -0.030212  0  -0.087959  -0.115556  0  3.972169  0
C  C167  1  0.57469665  0.52687653  0.77317250  1  -0.030268  0  -0.087934  -0.115428  0  3.971946  0
C  C168  1  0.57526926  0.46415451  0.26669813  1  -0.002984  0  -0.011338  0.057698  0  4.022596  0
C  C169  1  0.53584647  0.42472987  0.23330236  1  -0.047075  0  -0.011334  0.057688  0  4.022377  0
C  C170  1  0.42472856  0.53584811  0.73330261  1  -0.047233  0  -0.011307  0.057737  0  4.022595  0
C  C171  1  0.46415297  0.57527205  0.76669796  1  -0.002942  0  -0.011303  0.057754  0  4.022398  0
C  C172  1  0.66102347  0.39305972  0.29315361  1  -0.075305  0  -0.097257  -0.134592  0  4.011448  0
C  C173  1  0.60693791  0.33897296  0.20684738  1  -0.075361  0  -0.097139  -0.134326  0  4.011384  0
C  C174  1  0.33897517  0.60694035  0.70684693  1  -0.074982  0  -0.097228  -0.134502  0  4.011508  0
C  C175  1  0.39306234  0.66102714  0.79315302  1  -0.075352  0  -0.097147  -0.134363  0  4.011453  0
C  C176  1  0.69537804  0.43101654  0.32553585  1  -0.140983  0  -0.101749  -0.143367  0  4.009276  0
C  C177  1  0.56898380  0.30461816  0.17446494  1  -0.153571  0  -0.101741  -0.143343  0  4.009157  0
C  C178  1  0.30462060  0.56898354  0.67446503  1  -0.141265  0  -0.101765  -0.143396  0  4.009197  0
C  C179  1  0.43101565  0.69538303  0.82553544  1  -0.153581  0  -0.101727  -0.143343  0  4.009217  0
C  C180  1  0.31339907  0.29559358  0.30237991  1  0.996798  0  0.167137  0.129917  0  3.895562  0
C  C181  1  0.70440392  0.68659993  0.19761950  1  0.996403  0  0.167126  0.129788  0  3.895537  0
C  C182  1  0.68660118  0.70440945  0.69761922  1  0.996804  0  0.16709  0.129809  0  3.895472  0
C  C183  1  0.29559634  0.31340091  0.80238119  1  0.996451  0  0.167158  0.129826  0  3.895492  0
C  C184  1  0.37659986  0.37469426  0.34176709  1  0.301358  0  0.092585  0.082121  0  4.010104  0
C  C185  1  0.62530486  0.62340069  0.15823136  1  0.301299  0  0.092599  0.082112  0  4.009688  0
C  C186  1  0.62340040  0.62530438  0.65823412  1  0.301381  0  0.092539  0.082019  0  4.009941  0
C  C187  1  0.37469620  0.37659980  0.84176929  1  0.301309  0  0.092565  0.082071  0  4.009789  0
C  C188  1  0.27135876  0.44792638  0.32989608  1  0.368335  0  0.087425  0.141612  0  4.058238  0
C  C189  1  0.55207142  0.72863941  0.17010371  1  0.368244  0  0.08745  0.141574  0  4.058312  0
C  C190  1  0.72864069  0.55207334  0.67010407  1  0.368316  0  0.087474  0.141652  0  4.058195  0
C  C191  1  0.44792884  0.27136142  0.82989663  1  0.368288  0  0.087467  0.141613  0  4.058252  0
C  C192  1  0.22240603  0.55410973  0.34209484  1  0.023546  0  -0.093862  -0.159059  0  3.983294  0
C  C193  1  0.44589055  0.77759284  0.15790469  1  0.023511  0  -0.09384  -0.158953  0  3.983353  0
C  C194  1  0.77759262  0.44588816  0.65790622  1  0.023491  0  -0.093843  -0.158998  0  3.983355  0
C  C195  1  0.55410970  0.22240800  0.84209634  1  0.023305  0  -0.093861  -0.15906  0  3.983213  0
C  C196  1  0.28107001  0.58337776  0.36672378  1  -0.042848  0  -0.101654  -0.095516  0  4.035043  0
C  C197  1  0.41662148  0.71893042  0.13327674  1  -0.042851  0  -0.101638  -0.095569  0  4.035077  0
C  C198  1  0.71893268  0.41662057  0.63327726  1  -0.042849  0  -0.101637  -0.095488  0  4.03505  0
C  C199  1  0.58337877  0.28107115  0.86672388  1  -0.042741  0  -0.101643  -0.0955  0  4.034897  0
C  C200  1  0.38491363  0.50903162  0.37925497  1  -0.078769  0  -0.098007  -0.084058  0  4.041501  0
C  C201  1  0.49096491  0.61508905  0.12074352  1  -0.078696  0  -0.098022  -0.083978  0  4.041475  0
C  C202  1  0.61508825  0.49096632  0.62074547  1  -0.078766  0  -0.098043  -0.084115  0  4.041482  0
C  C203  1  0.50903615  0.38491290  0.87925666  1  -0.078718  0  -0.097967  -0.084008  0  4.041607  0
C  C204  1  0.43476517  0.40326902  0.36713224  1  -0.03179  0  -0.093425  -0.16004  0  4.015853  0
C  C205  1  0.59672695  0.56523668  0.13286533  1  -0.031959  0  -0.093438  -0.16008  0  4.015743  0
C  C206  1  0.56523429  0.59672778  0.63286884  1  -0.031735  0  -0.093363  -0.15999  0  4.01566  0
C  C207  1  0.40327411  0.43476454  0.86713491  1  -0.031989  0  -0.093466  -0.160079  0  4.015855  0
C  C208  1  0.49366777  0.17558511  0.33028978  1  0.293908  0  -0.036695  -0.097563  0  3.884437  0
C  C209  1  0.82441105  0.50633149  0.16970972  1  0.294598  0  -0.036702  -0.097668  0  3.884365  0
C  C210  1  0.50633249  0.82441353  0.66971040  1  0.294062  0  -0.036738  -0.097659  0  3.884476  0
C  C211  1  0.17559002  0.49366900  0.83029024  1  0.294674  0  -0.036698  -0.097699  0  3.8844  0
C  C212  1  0.49221349  0.12478684  0.38076045  1  -0.030439  0  -0.014707  0.08926  0  3.977368  0
C  C213  1  0.87521121  0.50778429  0.11923901  1  -0.03045  0  -0.014694  0.08925  0  3.977384  0
C  C214  1  0.50778596  0.87521143  0.61923982  1  -0.030475  0  -0.01472  0.089227  0  3.977415  0
C  C215  1  0.12478985  0.49221547  0.88076100  1  -0.030452  0  -0.014709  0.08922  0  3.977442  0
C  C216  1  0.39950511  0.15883123  0.41315536  1  -0.108491  0  -0.099424  -0.142317  0  4.02334  0
C  C217  1  0.84116570  0.60049172  0.08684324  1  -0.108747  0  -0.099443  -0.14233  0  4.023483  0
C  C218  1  0.60049353  0.84116812  0.58684421  1  -0.108529  0  -0.099423  -0.142318  0  4.023399  0
C  C219  1  0.15883455  0.39950912  0.91315641  1  -0.108632  0  -0.099414  -0.142249  0  4.023508  0
C  C220  1  0.40268985  0.11022751  0.45941390  1  -0.001687  0  -0.09434  -0.122579  0  3.992683  0
C  C221  1  0.88976985  0.59730898  0.04058588  1  -0.001641  0  -0.094339  -0.122498  0  3.992611  0
C  C222  1  0.59730798  0.88977219  0.54058639  1  -0.00167  0  -0.094403  -0.122609  0  3.992753  0
C  C223  1  0.11023041  0.40269112  0.95941418  1  -0.001803  0  -0.09437  -0.122619  0  3.992671  0
C  C224  1  0.49819837  0.02507854  0.47524632  1  -0.014953  0  -0.011748  0.058273  0  4.006343  0
C  C225  1  0.97491981  0.50180187  0.02475360  1  -0.015196  0  -0.011732  0.058263  0  4.006339  0
C  C226  1  0.50180108  0.97491972  0.52475395  1  0.015946  0  -0.011672  0.058369  0  4.006307  0
C  C227  1  0.02508045  0.49819751  0.97524617  1  0.015931  0  -0.011726  0.058297  0  4.006348  0
C  C228  1  0.59019194  0.99045825  0.44190868  1  -0.038849  0  -0.093108  -0.118637  0  3.980417  0
C  C229  1  0.00953956  0.40980645  0.05809109  1  -0.038569  0  -0.093177  -0.118738  0  3.980391  0
C  C230  1  0.40980590  0.00953925  0.55809179  1  -0.038623  0  -0.093146  -0.11869  0  3.980357  0
C  C231  1  0.99045827  0.59019325  0.94190851  1  -0.038604  0  -0.093124  -0.118611  0  3.980338  0
C  C232  1  0.58725433  0.03959749  0.39586984  1  -0.036093  0  -0.099151  -0.130414  0  4.003274  0
C  C233  1  0.96040165  0.41274374  0.10413054  1  -0.036125  0  -0.099094  -0.130366  0  4.003294  0
C  C234  1  0.41274512  0.96040077  0.60413043  1  -0.036129  0  -0.099126  -0.130383  0  4.003361  0
C  C235  1  0.03959860  0.58725637  0.89586986  1  -0.036098  0  -0.099157  -0.130468  0  4.003322  0
C  C236  1  0.00582301  0.65400527  0.22539008  1  1.581095  0  0.202994  0.56676  0  4.231769  0
C  C237  1  0.34599492  0.99417878  0.27460886  1  1.581227  0  0.202975  0.566816  0  4.231815  0
C  C238  1  0.99417887  0.34599414  0.77460990  1  1.581227  0  0.202978  0.566801  0  4.231778  0
C  C239  1  0.65400289  0.00582603  0.72538997  1  1.581096  0  0.203042  0.566963  0  4.231521  0
C  C240  1  0.00593838  0.75774891  0.20027452  1  -0.016753  0  -0.015557  -0.026299  0  3.965799  0
C  C241  1  0.24224898  0.99406369  0.29972183  1  -0.016605  0  -0.015695  -0.026442  0  3.96593  0
C  C242  1  0.99406351  0.24224830  0.79972426  1  -0.016815  0  -0.015616  -0.02634  0  3.965804  0
C  C243  1  0.75774964  0.00593930  0.70027674  1  -0.016452  0  -0.015682  -0.026501  0  3.965957  0
C  C244  1  0.92344350  0.82673933  0.17229440  1  0.022574  0  -0.080082  -0.072054  0  3.964216  0
C  C245  1  0.17326023  0.07655904  0.32770213  1  0.022243  0  -0.080037  -0.072055  0  3.964264  0
C  C246  1  0.07655837  0.17326007  0.82770420  1  0.022553  0  -0.080072  -0.072026  0  3.964289  0
C  C247  1  0.82673678  0.92344246  0.67229739  1  0.022637  0  -0.080032  -0.072071  0  3.964211  0
C  C248  1  0.92496685  0.92073997  0.14704335  1  -0.048999  0  -0.099406  -0.140707  0  3.984253  0
C  C249  1  0.07926066  0.07503821  0.35295356  1  -0.049201  0  -0.099512  -0.140769  0  3.984115  0
C  C250  1  0.07503746  0.07925912  0.85295473  1  -0.049107  0  -0.099428  -0.140689  0  3.984189  0
C  C251  1  0.92073878  0.92496444  0.64704635  1  -0.049195  0  -0.099431  -0.140609  0  3.984286  0
C  C252  1  0.00844582  0.94870738  0.15021369  1  -0.089433  0  -0.021972  0.076953  0  3.959491  0
C  C253  1  0.05129432  0.99155587  0.34978479  1  -0.089096  0  -0.021914  0.077015  0  3.959497  0
C  C254  1  0.99155686  0.05129094  0.84978562  1  -0.089253  0  -0.021903  0.077017  0  3.9595  0
C  C255  1  0.94870513  0.00844458  0.65021530  1  -0.089223  0  -0.021915  0.076955  0  3.959606  0
C  C256  1  0.08963404  0.88106982  0.17938466  1  -0.003774  0  -0.094902  -0.134373  0  3.986908  0
C  C257  1  0.11892588  0.91036795  0.32061394  1  -0.003869  0  -0.094881  -0.134444  0  3.986985  0
C  C258  1  0.91036866  0.11892412  0.82061467  1  -0.003761  0  -0.094869  -0.134422  0  3.986979  0
C  C259  1  0.88107195  0.08963247  0.67938698  1  -0.003777  0  -0.094909  -0.13444  0  3.987025  0
C  C260  1  0.08892096  0.78606841  0.20384215  1  -0.067662  0  -0.082949  -0.083788  0  3.965454  0
C  C261  1  0.21393201  0.91107682  0.29615711  1  -0.067487  0  -0.082943  -0.083723  0  3.965415  0
C  C262  1  0.91108012  0.21392769  0.79615714  1  -0.067553  0  -0.082954  -0.083778  0  3.96548  0
C  C263  1  0.78606743  0.08892364  0.70384264  1  -0.067945  0  -0.08295  -0.083656  0  3.965416  0
C  C264  1  0.02016112  0.04602937  0.12008201  1  0.024626  0  -0.011132  -0.270944  0  3.850752  0
C  C265  1  0.95397060  0.97984240  0.37991578  1  0.024629  0  -0.011101  -0.270831  0  3.850671  0
C  C266  1  0.97984401  0.95396645  0.87991800  1  0.024661  0  -0.011111  -0.270662  0  3.850418  0
C  C267  1  0.04602804  0.02015767  0.62008407  1  0.024658  0  -0.011054  -0.270767  0  3.850684  0
C  C268  1  0.90948837  0.13579601  0.10403515  1  1.732518  0  0.302459  0.67451  0  3.96855  0
C  C269  1  0.86420612  0.09051488  0.39596180  1  1.732491  0  0.3024  0.674408  0  3.968618  0
C  C270  1  0.09051594  0.86420161  0.89596374  1  1.732565  0  0.302384  0.674358  0  3.968753  0
C  C271  1  0.13579090  0.90948371  0.60403831  1  1.731836  0  0.302416  0.674408  0  3.96844  0
C  C272  1  0.09670668  0.00120443  0.07488895  1  1.710733  0  0.303449  0.677385  0  3.96051  0
C  C273  1  0.99879587  0.90329545  0.42510962  1  1.710879  0  0.303408  0.677203  0  3.960669  0
C  C274  1  0.90329601  0.99879609  0.92511087  1  1.71086  0  0.303352  0.677112  0  3.960797  0
C  C275  1  0.00120277  0.09670463  0.57489092  1  1.71096  0  0.303465  0.677305  0  3.960548  0
C  C276  1  0.06341538  0.10137508  0.14738444  1  -0.078115  0  -0.018154  0.080655  0  3.956524  0
C  C277  1  0.89862636  0.93658623  0.35261338  1  -0.078874  0  -0.018196  0.080566  0  3.95673  0
C  C278  1  0.93658812  0.89862217  0.85261558  1  -0.078129  0  -0.018176  0.08055  0  3.956664  0
C  C279  1  0.10137553  0.06341098  0.64738609  1  -0.078519  0  -0.018319  0.080442  0  3.956778  0
C  C280  1  0.01034063  0.13039541  0.19221170  1  -0.063542  0  -0.095963  -0.140848  0  3.983078  0
C  C281  1  0.86960768  0.98966022  0.30778571  1  -0.063029  0  -0.095877  -0.140725  0  3.983127  0
C  C282  1  0.98966207  0.86960218  0.80778768  1  -0.063814  0  -0.095855  -0.140633  0  3.983026  0
C  C283  1  0.13039582  0.01033703  0.69221362  1  -0.063437  0  -0.095838  -0.140714  0  3.983097  0
C  C284  1  0.03668378  0.19170437  0.21655855  1  -0.024056  0  -0.081567  -0.083556  0  3.964923  0
C  C285  1  0.80829895  0.96331541  0.28343932  1  -0.023312  0  -0.08158  -0.083506  0  3.964854  0
C  C286  1  0.96331566  0.80829754  0.78344005  1  -0.023618  0  -0.081612  -0.083604  0  3.964898  0
C  C287  1  0.19170374  0.03668145  0.71656011  1  -0.023246  0  -0.081581  -0.08351  0  3.964921  0
C  C288  1  0.11874387  0.22339931  0.19711727  1  0.020336  0  -0.013898  -0.025158  0  3.959005  0
C  C289  1  0.77660402  0.88125575  0.30288090  1  0.019906  0  -0.013877  -0.02531  0  3.959143  0
C  C290  1  0.88125557  0.77660188  0.80288138  1  0.02038  0  -0.013937  -0.025248  0  3.959167  0
C  C291  1  0.22339706  0.11874254  0.69711889  1  0.01991  0  -0.013877  -0.025244  0  3.959055  0
C  C292  1  0.17601301  0.18898770  0.15390572  1  -0.048835  0  -0.081455  -0.080507  0  3.972827  0
C  C293  1  0.81101112  0.82398870  0.34609370  1  -0.048481  0  -0.081451  -0.080378  0  3.972731  0
C  C294  1  0.82398968  0.81100989  0.84609331  1  -0.048606  0  -0.081388  -0.080383  0  3.972751  0
C  C295  1  0.18898996  0.17600886  0.65390581  1  -0.049346  0  -0.081429  -0.080375  0  3.972781  0
C  C296  1  0.14821603  0.12969917  0.12894083  1  -0.044159  0  -0.098387  -0.141853  0  3.987029  0
C  C297  1  0.87030164  0.85178553  0.37105740  1  -0.044455  0  -0.098405  -0.14183  0  3.987107  0
C  C298  1  0.85178748  0.87029661  0.87105897  1  -0.044233  0  -0.098457  -0.141915  0  3.987  0
C  C299  1  0.12970024  0.14821168  0.62894207  1  -0.043447  0  -0.098393  -0.141827  0  3.987192  0
C  C300  1  0.14110594  0.29935524  0.21997841  1  1.586152  0  0.20137  0.567331  0  4.231524  0
C  C301  1  0.70064598  0.85889555  0.28002013  1  1.585709  0  0.201473  0.567424  0  4.231822  0
C  C302  1  0.85889350  0.70064667  0.78001949  1  1.585669  0  0.201406  0.567314  0  4.231895  0
C  C303  1  0.29935347  0.14110418  0.71997968  1  1.585686  0  0.201423  0.567321  0  4.231755  0
N  N304  1  0.23448678  0.39505097  0.30569667  1  -1.262599  0  -0.360067  -0.348627  0  3.57721  0
N  N305  1  0.60494723  0.76551230  0.19430267  1  -1.262108  0  -0.360059  -0.348579  0  3.577236  0
N  N306  1  0.76551267  0.60494949  0.69430343  1  -1.262564  0  -0.360061  -0.348634  0  3.57713  0
N  N307  1  0.39505384  0.23448892  0.80569757  1  -1.26208  0  -0.36007  -0.348615  0  3.577175  0
N  N308  1  0.40045250  0.27948925  0.32324791  1  -1.256228  0  -0.239177  -0.01388  0  3.746831  0
N  N309  1  0.72050838  0.59954635  0.17675115  1  -1.256264  0  -0.239152  -0.013682  0  3.74654  0
N  N310  1  0.59954696  0.72050975  0.67675265  1  -1.256255  0  -0.239173  -0.013773  0  3.746725  0
N  N311  1  0.27949269  0.40045487  0.82324944  1  -1.256317  0  -0.239139  -0.013632  0  3.746562  0
N  N312  1  0.97146265  0.48508660  0.33367052  1  -1.230689  0  -0.354585  -0.344286  0  3.525564  0
N  N313  1  0.51491261  0.02853577  0.16633259  1  -1.231015  0  -0.354562  -0.344129  0  3.525544  0
N  N314  1  0.02853679  0.51491532  0.66632945  1  -1.230672  0  -0.354645  -0.344362  0  3.525574  0
N  N315  1  0.48508603  0.97146577  0.83366817  1  -1.230729  0  -0.354563  -0.344101  0  3.525486  0
N  N316  1  0.80049884  0.53398674  0.36556336  1  -1.258199  0  -0.23904  -0.017096  0  3.721302  0
N  N317  1  0.46601200  0.19949971  0.13443840  1  -1.258283  0  -0.238998  -0.017014  0  3.721329  0
N  N318  1  0.19950061  0.46601299  0.63443748  1  -1.258316  0  -0.23903  -0.017148  0  3.721358  0
N  N319  1  0.53398825  0.80050112  0.86556194  1  -1.258365  0  -0.23904  -0.017046  0  3.721251  0
O  O320  1  0.92614996  0.63415346  0.22594353  1  -1.19135  0  -0.320427  -0.562317  0  2.180639  0
O  O321  1  0.36584436  0.07385200  0.27405492  1  -1.191485  0  -0.320386  -0.562321  0  2.180839  0
O  O322  1  0.07384787  0.36584770  0.77405768  1  -1.191455  0  -0.320359  -0.562281  0  2.18071  0
O  O323  1  0.63415184  0.92615278  0.72594371  1  -1.191313  0  -0.320457  -0.562442  0  2.180608  0
O  O324  1  0.09259714  0.58961258  0.24528951  1  -1.171785  0  -0.332942  -0.553123  0  2.33768  0
O  O325  1  0.41038937  0.90739900  0.25471321  1  -1.171868  0  -0.332949  -0.553154  0  2.337628  0
O  O326  1  0.90740150  0.41038750  0.75471172  1  -1.17182  0  -0.332994  -0.553207  0  2.337676  0
O  O327  1  0.58960844  0.09260435  0.74528713  1  -1.171889  0  -0.332966  -0.553199  0  2.337646  0
O  O328  1  0.07004014  0.34435361  0.25441808  1  -1.171067  0  -0.338389  -0.558671  0  2.309644  0
O  O329  1  0.65564605  0.92996224  0.24558155  1  -1.171004  0  -0.338407  -0.558602  0  2.309683  0
O  O330  1  0.92996011  0.65564722  0.74558019  1  -1.170999  0  -0.338409  -0.558606  0  2.309627  0
O  O331  1  0.34435177  0.07003892  0.75441966  1  -1.171002  0  -0.338417  -0.558601  0  2.309635  0
O  O332  1  0.22171448  0.31756345  0.20461501  1  -1.186583  0  -0.320463  -0.564244  0  2.172527  0
O  O333  1  0.68244059  0.77828400  0.29538320  1  -1.186522  0  -0.320553  -0.564375  0  2.172774  0
O  O334  1  0.77828251  0.68244243  0.79538173  1  -1.186507  0  -0.320479  -0.564284  0  2.172811  0
O  O335  1  0.31755561  0.22171932  0.70461831  1  -1.186486  0  -0.3205  -0.564318  0  2.172688  0
F  F336  1  0.83064923  0.16065045  0.14135040  1  -0.628351  0  -0.089973  -0.199817  0  1.339582  0
F  F337  1  0.83935215  0.16935472  0.35864679  1  -0.628508  0  -0.089906  -0.199782  0  1.339574  0
F  F338  1  0.16935427  0.83934752  0.85864749  1  -0.628486  0  -0.089902  -0.199781  0  1.33955  0
F  F339  1  0.16064406  0.83064568  0.64135392  1  -0.628499  0  -0.089894  -0.199753  0  1.339618  0
F  F340  1  0.91606545  0.22953049  0.08562300  1  -0.617789  0  -0.097285  -0.205906  0  1.36403  0
F  F341  1  0.77047336  0.08393429  0.41437513  1  -0.617638  0  -0.097293  -0.205909  0  1.364002  0
F  F342  1  0.08393886  0.77046713  0.91437589  1  -0.617787  0  -0.097301  -0.205933  0  1.364131  0
F  F343  1  0.22952773  0.91605889  0.58562578  1  -0.617559  0  -0.097324  -0.205942  0  1.363757  0
F  F344  1  0.87251318  0.10670783  0.07074177  1  -0.619806  0  -0.093811  -0.20502  0  1.371992  0
F  F345  1  0.89329433  0.12748751  0.42925642  1  -0.619758  0  -0.093823  -0.204973  0  1.372051  0
F  F346  1  0.12749355  0.89329020  0.92925585  1  -0.619788  0  -0.093828  -0.20497  0  1.372074  0
F  F347  1  0.10670351  0.87250926  0.57074411  1  -0.619216  0  -0.093842  -0.204999  0  1.372111  0
F  F348  1  0.10120006  0.08153528  0.04118924  1  -0.618176  0  -0.09623  -0.209048  0  1.318896  0
F  F349  1  0.91846520  0.89880247  0.45880893  1  -0.618106  0  -0.096171  -0.208963  0  1.318972  0
F  F350  1  0.89880343  0.91846415  0.95881025  1  -0.61812  0  -0.096191  -0.208968  0  1.318946  0
F  F351  1  0.08153100  0.10120011  0.54119126  1  -0.618154  0  -0.096186  -0.209004  0  1.318948  0
F  F352  1  0.06574275  0.94060496  0.05427825  1  -0.612419  0  -0.098726  -0.199007  0  1.318236  0
F  F353  1  0.05939664  0.93425968  0.44571880  1  -0.612405  0  -0.098741  -0.198971  0  1.318249  0
F  F354  1  0.93426480  0.05939345  0.94572030  1  -0.61249  0  -0.09872  -0.19899  0  1.318205  0
F  F355  1  0.94060361  0.06574043  0.55428092  1  -0.612419  0  -0.098769  -0.199013  0  1.318297  0
F  F356  1  0.20039514  0.93585642  0.08522392  1  -0.623369  0  -0.08807  -0.20193  0  1.336113  0
F  F357  1  0.06414364  0.79960858  0.41477315  1  -0.623457  0  -0.088075  -0.20192  0  1.336128  0
F  F358  1  0.79961159  0.06414308  0.91477462  1  -0.623392  0  -0.088016  -0.201854  0  1.336259  0
F  F359  1  0.93585418  0.20039258  0.58522736  1  -0.62349  0  -0.088093  -0.201936  0  1.336046  0
