# generated using pymatgen
data_CdH16C25N2O5
_symmetry_space_group_name_H-M   'P 1'
_cell_length_a   9.56973856
_cell_length_b   9.57198427
_cell_length_c   30.58334105
_cell_angle_alpha   97.46663910
_cell_angle_beta   96.09048798
_cell_angle_gamma   104.22277624
_symmetry_Int_Tables_number   1
_chemical_formula_structural   CdH16C25N2O5
_chemical_formula_sum   'Cd4 H64 C100 N8 O20'
_cell_volume   2664.66864872
_cell_formula_units_Z   4
loop_
 _symmetry_equiv_pos_site_id
 _symmetry_equiv_pos_as_xyz
  1  'x, y, z'
loop_
 _atom_site_type_symbol
 _atom_site_label
 _atom_site_symmetry_multiplicity
 _atom_site_fract_x
 _atom_site_fract_y
 _atom_site_fract_z
 _atom_site_occupancy
 _atom_site_pbe_bader_charge
 _atom_site_pbe_bader_spin_density
 _atom_site_pbe_cm5_charge
 _atom_site_pbe_ddec_charge
 _atom_site_pbe_ddec_spin_density
 _atom_site_pbe_ddec_sum_bond_order
 _atom_site_pbe_magmom
Cd  Cd0  1  0.79888885  0.33443416  0.28930639  1  1.277087  0  0.771111  0.872839  0  2.202595  0
Cd  Cd1  1  0.54539905  0.51013014  0.21070374  1  1.276039  0  0.770921  0.872623  0  2.203762  0
Cd  Cd2  1  0.20111154  0.66556672  0.71069357  1  1.277193  0  0.771102  0.872804  0  2.202633  0
Cd  Cd3  1  0.45459815  0.48986462  0.78929624  1  1.275983  0  0.77092  0.872658  0  2.203709  0
H  H4  1  0.36559794  0.01142723  0.35840998  1  0.110117  0  0.11256  0.11962  0  1.006826  0
H  H5  1  0.15327629  0.00727469  0.14159356  1  0.104475  0  0.112231  0.119316  0  1.008565  0
H  H6  1  0.63440437  0.98858206  0.64159204  1  0.110218  0  0.112578  0.119657  0  1.006846  0
H  H7  1  0.84672194  0.99272157  0.85840526  1  0.104576  0  0.112224  0.119281  0  1.008558  0
H  H8  1  0.37308254  0.84553163  0.22018686  1  0.159889  0  0.111031  0.132012  0  1.030604  0
H  H9  1  0.12575689  0.15348862  0.27979715  1  0.150723  0  0.111229  0.13155  0  1.030181  0
H  H10  1  0.62691266  0.15446675  0.77981447  1  0.159874  0  0.111048  0.131976  0  1.030669  0
H  H11  1  0.87423758  0.84650623  0.72020117  1  0.150715  0  0.111194  0.131462  0  1.030227  0
H  H12  1  0.58589251  0.05654138  0.22137746  1  0.101751  0  0.120068  0.094897  0  0.984708  0
H  H13  1  0.33559822  0.36499081  0.27849032  1  0.111752  0  0.120526  0.095648  0  0.985152  0
H  H14  1  0.41410595  0.94345598  0.77862272  1  0.101703  0  0.120051  0.094877  0  0.984791  0
H  H15  1  0.66439899  0.63500395  0.72150965  1  0.1117  0  0.120517  0.095683  0  0.985139  0
H  H16  1  0.58457585  0.21183678  0.35391486  1  0.131457  0  0.121536  0.099484  0  0.994716  0
H  H17  1  0.35808308  0.23082755  0.14595687  1  0.136279  0  0.121867  0.099885  0  0.994047  0
H  H18  1  0.41542950  0.78816913  0.64608576  1  0.131474  0  0.121527  0.099516  0  0.994737  0
H  H19  1  0.64191730  0.76916694  0.85404299  1  0.136278  0  0.121885  0.099894  0  0.994013  0
H  H20  1  0.30509454  0.98542142  0.58722412  1  0.102622  0  0.104328  0.104392  0  1.017412  0
H  H21  1  0.89818988  0.71775696  0.91283648  1  0.104225  0  0.104308  0.104765  0  1.017498  0
H  H22  1  0.69491373  0.01457799  0.41277381  1  0.1026  0  0.104354  0.104421  0  1.017443  0
H  H23  1  0.10180563  0.28223813  0.08716178  1  0.10428  0  0.104302  0.104752  0  1.017467  0
H  H24  1  0.37510591  0.12507281  0.66513629  1  0.075443  0  0.098336  0.100425  0  1.040382  0
H  H25  1  0.95968232  0.70972672  0.83490510  1  0.08592  0  0.098073  0.099405  0  1.041395  0
H  H26  1  0.62490034  0.87492385  0.33486289  1  0.075512  0  0.098363  0.100453  0  1.040356  0
H  H27  1  0.04032073  0.29026995  0.16509527  1  0.085959  0  0.098058  0.099371  0  1.041473  0
H  H28  1  0.88228152  0.28029020  0.44778838  1  0.106538  0  0.109212  0.116711  0  0.988613  0
H  H29  1  0.33222407  0.43495701  0.05255026  1  0.107064  0  0.108912  0.116429  0  0.98846  0
H  H30  1  0.11771924  0.71971489  0.55221422  1  0.106538  0  0.1092  0.116704  0  0.988655  0
H  H31  1  0.66777982  0.56504545  0.94744773  1  0.106738  0  0.108895  0.116412  0  0.988517  0
H  H32  1  0.30377060  0.07062184  0.42976496  1  0.081775  0  0.103874  0.105659  0  1.007697  0
H  H33  1  0.14178994  0.87524585  0.07009586  1  0.082225  0  0.10389  0.105257  0  1.007675  0
H  H34  1  0.69622711  0.92937812  0.57023338  1  0.081655  0  0.103858  0.105616  0  1.007824  0
H  H35  1  0.85821019  0.12476008  0.92990391  1  0.082295  0  0.103891  0.105292  0  1.007703  0
H  H36  1  0.17510529  0.14864612  0.36425671  1  0.073589  0  0.096643  0.092613  0  1.041055  0
H  H37  1  0.28535422  0.81262949  0.13570026  1  0.07166  0  0.096685  0.092837  0  1.040232  0
H  H38  1  0.82488073  0.85135491  0.63574311  1  0.073544  0  0.096608  0.092534  0  1.041111  0
H  H39  1  0.71464657  0.18737097  0.86429899  1  0.071621  0  0.096712  0.092902  0  1.040206  0
H  H40  1  0.31466819  0.51164657  0.61710495  1  0.095986  0  0.104852  0.117623  0  1.022885  0
H  H41  1  0.39432807  0.69700136  0.88277636  1  0.113334  0  0.104644  0.117449  0  1.023653  0
H  H42  1  0.68534146  0.48835856  0.38289447  1  0.095986  0  0.104873  0.117607  0  1.022871  0
H  H43  1  0.60567213  0.30299741  0.11722227  1  0.113421  0  0.104668  0.117417  0  1.023713  0
H  H44  1  0.25151110  0.37599909  0.53978933  1  0.079886  0  0.105855  0.106312  0  1.007707  0
H  H45  1  0.33628159  0.71138732  0.96013032  1  0.085249  0  0.105662  0.106162  0  1.006848  0
H  H46  1  0.74850104  0.62400611  0.46020928  1  0.079961  0  0.105839  0.106321  0  1.007783  0
H  H47  1  0.66371224  0.28860685  0.03986734  1  0.085155  0  0.105639  0.106147  0  1.006786  0
H  H48  1  0.01094583  0.20902476  0.51289235  1  0.096322  0  0.106804  0.108866  0  0.999823  0
H  H49  1  0.19596253  0.49805856  0.98733486  1  0.087791  0  0.106859  0.108988  0  0.999273  0
H  H50  1  0.98906205  0.79098510  0.48710978  1  0.096501  0  0.106791  0.10883  0  0.999862  0
H  H51  1  0.80404200  0.50194457  0.01266378  1  0.087705  0  0.106839  0.108984  0  0.999292  0
H  H52  1  0.28799382  0.63673485  0.24256806  1  0.159542  0  0.110808  0.1313  0  1.035705  0
H  H53  1  0.89495230  0.04579354  0.25757998  1  0.14104  0  0.111113  0.131711  0  1.035931  0
H  H54  1  0.71200927  0.36326569  0.75743463  1  0.159528  0  0.110835  0.131272  0  1.035765  0
H  H55  1  0.10504180  0.95420198  0.74241797  1  0.141248  0  0.111109  0.131749  0  1.035951  0
H  H56  1  0.11693963  0.90252211  0.33778474  1  0.083948  0  0.107988  0.11432  0  1.025972  0
H  H57  1  0.06500786  0.77940877  0.16222717  1  0.080856  0  0.108297  0.114544  0  1.026195  0
H  H58  1  0.88305828  0.09748509  0.66221613  1  0.084052  0  0.107983  0.114229  0  1.026044  0
H  H59  1  0.93499033  0.22058725  0.83777272  1  0.080763  0  0.108287  0.114539  0  1.026144  0
H  H60  1  0.07275683  0.43090592  0.24529745  1  0.157698  0  0.11362  0.087721  0  1.045579  0
H  H61  1  0.68629966  0.82800296  0.25491838  1  0.153824  0  0.113765  0.087627  0  1.045321  0
H  H62  1  0.92724696  0.56909429  0.75470593  1  0.157648  0  0.113641  0.087777  0  1.045576  0
H  H63  1  0.31369442  0.17199105  0.74508175  1  0.153973  0  0.113788  0.087615  0  1.045343  0
H  H64  1  0.91166573  0.68554461  0.33662388  1  0.100434  0  0.115233  0.083968  0  1.017733  0
H  H65  1  0.84904276  0.57549753  0.16346299  1  0.127317  0  0.114801  0.083606  0  1.01918  0
H  H66  1  0.08833252  0.31446167  0.66337842  1  0.10055  0  0.115251  0.083976  0  1.017757  0
H  H67  1  0.15095700  0.42449504  0.83653732  1  0.1274  0  0.114793  0.083582  0  1.019074  0
C  C68  1  0.94176909  0.25848117  0.36271079  1  1.553958  0  0.186252  0.553378  0  4.234134  0
C  C69  1  0.39612293  0.58036187  0.13746507  1  1.541208  0  0.187821  0.556298  0  4.236102  0
C  C70  1  0.05822327  0.74151782  0.63729098  1  1.553079  0  0.186278  0.553436  0  4.234204  0
C  C71  1  0.60387858  0.41963850  0.86253380  1  1.541254  0  0.187794  0.556261  0  4.236112  0
C  C72  1  0.40866601  0.01853068  0.32696913  1  -0.016482  0  -0.078178  -0.175141  0  3.941143  0
C  C73  1  0.19191472  0.08195689  0.17298908  1  -0.087096  0  -0.077789  -0.173923  0  3.940858  0
C  C74  1  0.59134005  0.98147364  0.67303329  1  -0.01674  0  -0.078135  -0.175062  0  3.941136  0
C  C75  1  0.80808086  0.91803593  0.82701034  1  -0.087173  0  -0.077774  -0.173855  0  3.940835  0
C  C76  1  0.34783127  0.91229571  0.28924295  1  -0.019895  0  0.01746  0.109836  0  3.971628  0
C  C77  1  0.12350530  0.05890156  0.21075078  1  0.040052  0  0.017162  0.107984  0  3.971919  0
C  C78  1  0.65216879  0.08770973  0.71075896  1  -0.020616  0  0.017526  0.109896  0  3.971788  0
C  C79  1  0.87649319  0.94109604  0.78924832  1  0.040085  0  0.017191  0.108049  0  3.971828  0
C  C80  1  0.41296161  0.92577324  0.25046247  1  -0.053951  0  -0.075565  -0.161477  0  3.906656  0
C  C81  1  0.17564862  0.16294847  0.24949667  1  -0.040066  0  -0.074729  -0.159992  0  3.907857  0
C  C82  1  0.58703589  0.07422800  0.74953900  1  -0.053693  0  -0.075559  -0.161389  0  3.90668  0
C  C83  1  0.82434910  0.83705024  0.75050278  1  -0.040174  0  -0.074744  -0.159924  0  3.907756  0
C  C84  1  0.53355062  0.04189410  0.25103594  1  0.494474  0  0.050841  0.097024  0  3.948848  0
C  C85  1  0.29120710  0.28289908  0.24886216  1  0.476333  0  0.051128  0.097299  0  3.94886  0
C  C86  1  0.46644781  0.95810301  0.74896530  1  0.494456  0  0.050856  0.096979  0  3.948948  0
C  C87  1  0.70879160  0.71709449  0.75113710  1  0.476559  0  0.051155  0.097232  0  3.948877  0
C  C88  1  0.02104903  0.21817307  0.40220439  1  -0.028029  0  -0.012726  -0.01269  0  3.949436  0
C  C89  1  0.31642620  0.62005884  0.09793660  1  -0.054703  0  -0.012788  -0.01453  0  3.951784  0
C  C90  1  0.97894644  0.78182666  0.59779722  1  -0.028259  0  -0.012736  -0.012767  0  3.949268  0
C  C91  1  0.68357672  0.37994111  0.90206259  1  -0.054667  0  -0.012773  -0.014436  0  3.951875  0
C  C92  1  0.53088049  0.13012299  0.32490103  1  0.447001  0  0.050098  0.096537  0  3.948176  0
C  C93  1  0.30545237  0.20625262  0.17499434  1  0.467913  0  0.049295  0.094816  0  3.945636  0
C  C94  1  0.46912727  0.86987610  0.67510082  1  0.447295  0  0.049991  0.096313  0  3.948209  0
C  C95  1  0.69454399  0.79374550  0.82500483  1  0.467571  0  0.049204  0.094694  0  3.945601  0
C  C96  1  0.30828882  0.10075362  0.59426491  1  -0.085988  0  -0.079433  -0.08766  0  3.957283  0
C  C97  1  0.00644767  0.71378174  0.90575948  1  -0.065327  0  -0.079355  -0.088419  0  3.958897  0
C  C98  1  0.69171859  0.89924765  0.40573440  1  -0.085964  0  -0.079437  -0.087723  0  3.957221  0
C  C99  1  0.99355069  0.28621764  0.09424062  1  -0.065367  0  -0.079345  -0.088386  0  3.958708  0
C  C100  1  0.16764333  0.13738491  0.47533367  1  -0.074105  0  -0.015137  -0.004701  0  3.977164  0
C  C101  1  0.16251232  0.69290787  0.02470571  1  -0.069292  0  -0.015268  -0.0045  0  3.977953  0
C  C102  1  0.83235412  0.86261733  0.52466776  1  -0.074448  0  -0.015193  -0.004701  0  3.977127  0
C  C103  1  0.83749019  0.30709376  0.97529308  1  -0.069289  0  -0.015321  -0.004529  0  3.977979  0
C  C104  1  0.34722192  0.17794845  0.63727069  1  -0.000898  0  -0.087519  -0.099418  0  3.975847  0
C  C105  1  0.04047077  0.70959257  0.86273851  1  0.008463  0  -0.086857  -0.096522  0  3.976028  0
C  C106  1  0.65278861  0.82205357  0.36272846  1  -0.000961  0  -0.087547  -0.099484  0  3.975675  0
C  C107  1  0.95953046  0.29040495  0.13726225  1  0.008371  0  -0.086839  -0.096517  0  3.975966  0
C  C108  1  0.27386406  0.17111350  0.55858817  1  -0.045246  0  -0.012575  -0.002691  0  3.961778  0
C  C109  1  0.11256650  0.71501557  0.94140854  1  -0.048477  0  -0.013326  -0.003633  0  3.964068  0
C  C110  1  0.72615229  0.82889168  0.44141026  1  -0.045677  0  -0.012571  -0.002489  0  3.961627  0
C  C111  1  0.88742964  0.28498019  0.05859038  1  -0.048314  0  -0.013347  -0.003605  0  3.964014  0
C  C112  1  0.24590920  0.08639060  0.51249550  1  0.931309  0  0.160113  0.344488  0  3.986698  0
C  C113  1  0.07397775  0.73331541  0.98749255  1  0.929171  0  0.160819  0.346776  0  3.986974  0
C  C114  1  0.75409280  0.91361347  0.48750392  1  0.931678  0  0.160023  0.34425  0  3.986708  0
C  C115  1  0.92602351  0.26668235  0.01250715  1  0.929062  0  0.16087  0.346796  0  3.987017  0
C  C116  1  0.97596015  0.23630831  0.44419439  1  -0.007231  0  -0.079383  -0.086979  0  3.956588  0
C  C117  1  0.29213692  0.53240742  0.05603641  1  -0.017038  0  -0.079009  -0.08582  0  3.956918  0
C  C118  1  0.02404436  0.76370585  0.55580770  1  -0.00709  0  -0.079379  -0.086973  0  3.956491  0
C  C119  1  0.70787137  0.46759713  0.94396273  1  -0.016714  0  -0.078951  -0.085786  0  3.956965  0
C  C120  1  0.21194475  0.11805429  0.43308017  1  -0.031681  0  -0.086353  -0.107597  0  3.983159  0
C  C121  1  0.18577105  0.78001889  0.06686745  1  -0.026808  0  -0.085936  -0.106791  0  3.984148  0
C  C122  1  0.78805292  0.88195031  0.56692152  1  -0.031576  0  -0.086378  -0.107689  0  3.983067  0
C  C123  1  0.81423296  0.21998794  0.93313071  1  -0.027294  0  -0.08598  -0.106907  0  3.984439  0
C  C124  1  0.14036427  0.15964673  0.39706615  1  -0.065322  0  -0.08995  -0.106024  0  4.001345  0
C  C125  1  0.26337330  0.74473674  0.10294035  1  -0.02274  0  -0.090907  -0.107151  0  4.001314  0
C  C126  1  0.85963130  0.84035098  0.60293554  1  -0.065238  0  -0.089815  -0.105697  0  4.001045  0
C  C127  1  0.73662222  0.25526475  0.89705802  1  -0.022324  0  -0.090928  -0.107219  0  4.001625  0
C  C128  1  0.31500281  0.39716009  0.61042004  1  -0.011328  0  -0.082743  -0.094252  0  3.954447  0
C  C129  1  0.28652958  0.70400646  0.88949158  1  -0.035197  0  -0.082577  -0.094331  0  3.95746  0
C  C130  1  0.68500762  0.60284394  0.38957903  1  -0.011347  0  -0.082772  -0.094227  0  3.954376  0
C  C131  1  0.71346687  0.29598325  0.11050757  1  -0.035252  0  -0.082574  -0.094212  0  3.957382  0
C  C132  1  0.35256368  0.32704084  0.64564349  1  -0.027852  0  -0.016559  -0.029081  0  3.978626  0
C  C133  1  0.18110856  0.70644948  0.85430824  1  -0.07135  0  -0.016785  -0.03092  0  3.980879  0
C  C134  1  0.64744324  0.67295673  0.35435527  1  -0.027882  0  -0.016498  -0.028998  0  3.978445  0
C  C135  1  0.81889082  0.29355140  0.14569070  1  -0.07131  0  -0.016698  -0.030751  0  3.980631  0
C  C136  1  0.27676982  0.31974383  0.56715345  1  -0.041684  0  -0.079264  -0.099845  0  3.964502  0
C  C137  1  0.25254816  0.70909426  0.93277767  1  -0.042582  0  -0.078814  -0.099358  0  3.964757  0
C  C138  1  0.72324316  0.68026440  0.43284607  1  -0.041681  0  -0.079354  -0.100037  0  3.964724  0
C  C139  1  0.74744526  0.29089394  0.06722060  1  -0.042722  0  -0.078874  -0.09954  0  3.964663  0
C  C140  1  0.04914046  0.19709367  0.48061445  1  -0.048687  0  -0.081626  -0.108048  0  3.972909  0
C  C141  1  0.21661638  0.56892830  0.01955093  1  -0.048294  0  -0.081806  -0.108848  0  3.971821  0
C  C142  1  0.95085917  0.80291470  0.51938595  1  -0.048378  0  -0.081571  -0.107963  0  3.972811  0
C  C143  1  0.78338572  0.43107375  0.98044856  1  -0.048198  0  -0.081768  -0.108815  0  3.971793  0
C  C144  1  0.39806969  0.40848480  0.69227487  1  1.542667  0  0.200062  0.564116  0  4.226207  0
C  C145  1  0.21589521  0.70544272  0.80768024  1  1.549028  0  0.199583  0.563344  0  4.226735  0
C  C146  1  0.60192699  0.59151366  0.30772463  1  1.542661  0  0.200056  0.564183  0  4.226333  0
C  C147  1  0.78410116  0.29455540  0.19231893  1  1.54922  0  0.19954  0.563193  0  4.226795  0
C  C148  1  0.22197667  0.78835087  0.29019966  1  -0.018779  0  0.015784  0.109334  0  3.958104  0
C  C149  1  0.99862768  0.93208888  0.20983562  1  -0.042354  0  0.0156  0.108757  0  3.964426  0
C  C150  1  0.77802100  0.21165373  0.70980203  1  -0.018476  0  0.015721  0.109133  0  3.958226  0
C  C151  1  0.00136618  0.06791043  0.79016325  1  -0.04254  0  0.015537  0.108626  0  3.964561  0
C  C152  1  0.20701186  0.65289535  0.26377852  1  -0.012587  0  -0.076691  -0.159344  0  3.910329  0
C  C153  1  0.88981661  0.94364978  0.23635600  1  0.006294  0  -0.077313  -0.159156  0  3.912742  0
C  C154  1  0.79298831  0.34710806  0.73622347  1  -0.012698  0  -0.076676  -0.159168  0  3.910474  0
C  C155  1  0.11017364  0.05634508  0.76364249  1  0.006082  0  -0.0773  -0.159214  0  3.912772  0
C  C156  1  0.11380221  0.79996304  0.31700796  1  -0.016272  0  -0.078943  -0.16792  0  3.920472  0
C  C157  1  0.98328711  0.79713784  0.18302377  1  -0.032364  0  -0.078516  -0.166794  0  3.922597  0
C  C158  1  0.88620099  0.20004188  0.68299491  1  -0.016161  0  -0.078895  -0.167699  0  3.920544  0
C  C159  1  0.01670851  0.20286163  0.81697467  1  -0.032098  0  -0.078508  -0.166752  0  3.922483  0
C  C160  1  0.08808134  0.53765449  0.26528705  1  0.41608  0  0.041957  0.089815  0  3.950042  0
C  C161  1  0.77298720  0.82333378  0.23488376  1  0.419178  0  0.042131  0.089435  0  3.950336  0
C  C162  1  0.91192010  0.46234387  0.73471614  1  0.416642  0  0.041867  0.089629  0  3.950164  0
C  C163  1  0.22700745  0.17665678  0.76511578  1  0.419003  0  0.042195  0.089625  0  3.950366  0
C  C164  1  0.99749021  0.67896913  0.31630008  1  0.469888  0  0.049038  0.104388  0  3.947424  0
C  C165  1  0.86297199  0.68161832  0.18380370  1  0.481489  0  0.04906  0.103789  0  3.948673  0
C  C166  1  0.00250882  0.32103605  0.68370188  1  0.469881  0  0.049006  0.104359  0  3.947548  0
C  C167  1  0.13703220  0.31837658  0.81619669  1  0.481349  0  0.049182  0.104001  0  3.948405  0
N  N168  1  0.59300918  0.14156230  0.28763285  1  -1.231671  0  -0.325798  -0.229533  0  3.504885  0
N  N169  1  0.35422880  0.30569896  0.21224905  1  -1.227987  0  -0.32667  -0.229657  0  3.500508  0
N  N170  1  0.40699401  0.85843899  0.71236663  1  -1.23166  0  -0.325786  -0.229436  0  3.504933  0
N  N171  1  0.64577177  0.69429275  0.78774985  1  -1.227803  0  -0.326632  -0.229598  0  3.500368  0
N  N172  1  0.98397983  0.54947840  0.29085935  1  -1.229936  0  -0.325766  -0.239057  0  3.495701  0
N  N173  1  0.75903472  0.69369057  0.20928507  1  -1.23541  0  -0.325621  -0.238254  0  3.494833  0
N  N174  1  0.01602088  0.45052771  0.70914322  1  -1.230641  0  -0.325746  -0.239003  0  3.495656  0
N  N175  1  0.24096240  0.30630007  0.79071366  1  -1.23521  0  -0.32575  -0.238535  0  3.495054  0
O  O176  1  0.84505928  0.32698694  0.36894060  1  -1.176137  0  -0.336859  -0.571219  0  2.180019  0
O  O177  1  0.45815786  0.47720893  0.13127382  1  -1.169273  0  -0.337416  -0.572056  0  2.181299  0
O  O178  1  0.15492995  0.67301130  0.63106133  1  -1.175902  0  -0.336862  -0.571214  0  2.180204  0
O  O179  1  0.54184837  0.52279386  0.86872654  1  -1.169256  0  -0.337423  -0.572037  0  2.181361  0
O  O180  1  0.97402272  0.22157780  0.32409837  1  -1.174941  0  -0.338374  -0.573023  0  2.199311  0
O  O181  1  0.39799053  0.65143383  0.17604494  1  -1.174438  0  -0.338663  -0.573637  0  2.200068  0
O  O182  1  0.02596910  0.77842489  0.67590293  1  -1.174228  0  -0.338411  -0.573128  0  2.199255  0
O  O183  1  0.60200957  0.34856696  0.82395362  1  -1.174533  0  -0.338652  -0.573673  0  2.200096  0
O  O184  1  0.28993117  0.97580597  0.50474457  1  -1.075888  0  -0.2664  -0.402313  0  2.06417  0
O  O185  1  0.97077072  0.78457506  0.99519676  1  -1.075096  0  -0.266726  -0.403532  0  2.064032  0
O  O186  1  0.71006646  0.02419626  0.49525262  1  -1.075938  0  -0.266297  -0.402173  0  2.064218  0
O  O187  1  0.02923075  0.21542632  0.00480207  1  -1.07499  0  -0.266734  -0.40353  0  2.06409  0
O  O188  1  0.46212651  0.34971389  0.72064402  1  -1.157699  0  -0.320278  -0.547249  0  2.268257  0
O  O189  1  0.12903356  0.74167415  0.77936897  1  -1.156635  0  -0.319747  -0.546191  0  2.268136  0
O  O190  1  0.53786731  0.65027878  0.27935582  1  -1.157698  0  -0.320225  -0.547211  0  2.268398  0
O  O191  1  0.87096790  0.25832723  0.22062987  1  -1.156562  0  -0.319732  -0.546124  0  2.268105  0
O  O192  1  0.37290071  0.53239663  0.70230395  1  -1.196493  0  -0.339624  -0.592594  0  2.359256  0
O  O193  1  0.32952019  0.66974335  0.79758826  1  -1.197105  0  -0.339485  -0.592128  0  2.357701  0
O  O194  1  0.62709421  0.46760167  0.29769598  1  -1.196521  0  -0.339652  -0.592665  0  2.359161  0
O  O195  1  0.67047804  0.33025291  0.20241055  1  -1.197288  0  -0.339473  -0.592098  0  2.357803  0
