# generated using pymatgen
data_CuH8C12(SN5)2
_symmetry_space_group_name_H-M   'P 1'
_cell_length_a   7.84521635
_cell_length_b   8.78508694
_cell_length_c   11.72072416
_cell_angle_alpha   89.99826641
_cell_angle_beta   103.98184907
_cell_angle_gamma   90.00296612
_symmetry_Int_Tables_number   1
_chemical_formula_structural   CuH8C12(SN5)2
_chemical_formula_sum   'Cu2 H16 C24 S4 N20'
_cell_volume   783.86961681
_cell_formula_units_Z   2
loop_
 _symmetry_equiv_pos_site_id
 _symmetry_equiv_pos_as_xyz
  1  'x, y, z'
loop_
 _atom_site_type_symbol
 _atom_site_label
 _atom_site_symmetry_multiplicity
 _atom_site_fract_x
 _atom_site_fract_y
 _atom_site_fract_z
 _atom_site_occupancy
 _atom_site_hle17_ddec_charge
 _atom_site_hle17_ddec_spin_density
 _atom_site_hle17_ddec_sum_bond_order
 _atom_site_hle17_magmom
 _atom_site_hse06_10hf_ddec_charge
 _atom_site_hse06_10hf_ddec_spin_density
 _atom_site_hse06_10hf_ddec_sum_bond_order
 _atom_site_hse06_10hf_magmom
 _atom_site_hse06_ddec_charge
 _atom_site_hse06_ddec_spin_density
 _atom_site_hse06_ddec_sum_bond_order
 _atom_site_hse06_magmom
 _atom_site_pbe_cm5_charge
 _atom_site_pbe_ddec_charge
 _atom_site_pbe_ddec_spin_density
 _atom_site_pbe_ddec_sum_bond_order
 _atom_site_pbe_magmom
Cu  Cu0  1  0.00033299  0.00009449  0.00001231  1  0.874453  -0.696423  1.964957  -0.484  0.884876  -0.818343  2.361584  -0.64  0.972631  -0.890745  2.289701  -0.724  0.80704  0.827262  -0.757938  2.412161  -0.577
Cu  Cu1  1  0.50031948  0.49993016  0.00007497  1  0.874566  0.696543  1.966108  0.484  0.884997  0.818325  2.362818  0.64  0.972698  0.890708  2.290904  0.724  0.807185  0.827515  0.757944  2.413238  0.577
H  H2  1  0.58942199  0.92980144  0.40546648  1  0.11436  0.000207  0.980476  0.0  0.121388  2.4e-05  1.046131  0.0  0.125462  9e-06  1.044907  0.0  0.103269  0.118204  5.8e-05  1.047567  0.0
H  H3  1  0.90986599  0.43064199  0.59421492  1  0.114053  -0.000221  0.980769  0.0  0.121794  -2.9e-05  1.045749  0.0  0.125868  -1.2e-05  1.0445  0.0  0.103684  0.118645  -6.5e-05  1.047183  0.0
H  H4  1  0.40994481  0.06933767  0.59415143  1  0.114518  0.000219  0.980466  0.0  0.122041  2.9e-05  1.045512  0.0  0.126122  1.2e-05  1.044255  0.0  0.103635  0.118881  6.5e-05  1.046967  0.0
H  H5  1  0.08948857  0.57015789  0.40545312  1  0.114469  -0.000211  0.980422  0.0  0.121565  -2.5e-05  1.046053  0.0  0.125625  -9e-06  1.044883  0.0  0.103325  0.11842  -5.8e-05  1.047451  0.0
H  H6  1  0.43551442  0.18312587  0.40035548  1  0.080502  5.3e-05  0.928908  0.0  0.090661  5e-05  0.99111  0.0  0.094315  2.5e-05  0.986354  0.0  0.114056  0.087674  7.6e-05  0.994929  0.0
H  H7  1  0.06357752  0.68401912  0.59938647  1  0.080599  -4.9e-05  0.928637  0.0  0.090473  -4.9e-05  0.991346  0.0  0.094076  -2.5e-05  0.986659  0.0  0.113911  0.087503  -7.4e-05  0.995147  0.0
H  H8  1  0.56367966  0.81596088  0.59935771  1  0.080371  4.9e-05  0.928985  0.0  0.090475  4.9e-05  0.991415  0.0  0.094045  2.4e-05  0.986767  0.0  0.113842  0.08752  7.4e-05  0.995164  0.0
H  H9  1  0.93558905  0.31680922  0.40032328  1  0.080708  -5.1e-05  0.928475  0.0  0.090777  -5e-05  0.990829  0.0  0.094436  -2.5e-05  0.986067  0.0  0.114084  0.087787  -7.6e-05  0.994655  0.0
H  H10  1  0.72376110  0.86240047  0.23570005  1  0.116345  0.000267  0.929024  0.0  0.128635  0.000228  0.987717  0.0  0.131143  0.000146  0.985486  0.0  0.134689  0.126573  0.000306  0.989591  0.0
H  H11  1  0.77633413  0.36265216  0.76429729  1  0.116935  -0.000267  0.929182  0.0  0.12904  -0.000227  0.987852  0.0  0.131536  -0.000146  0.985631  0.0  0.134863  0.127003  -0.000305  0.989686  0.0
H  H12  1  0.27634455  0.13727365  0.76423277  1  0.116621  0.000268  0.929652  0.0  0.128861  0.000227  0.988256  0.0  0.13138  0.000145  0.985972  0.0  0.134832  0.126836  0.000305  0.990065  0.0
H  H13  1  0.22377480  0.63762867  0.23567528  1  0.116234  -0.000265  0.929145  0.0  0.128484  -0.000228  0.987778  0.0  0.130989  -0.000146  0.985551  0.0  0.134665  0.126427  -0.000306  0.989643  0.0
H  H14  1  0.67473626  0.21174682  0.91376326  1  0.09997  0.000149  0.938781  0.0  0.110143  0.0002  1.001029  0.0  0.111706  0.00015  0.998827  0.0  0.136065  0.108664  0.000226  1.002866  0.0
H  H15  1  0.82611543  0.71168900  0.08660376  1  0.099503  -0.000149  0.939386  0.0  0.11005  -0.000201  1.00116  0.0  0.111559  -0.00015  0.999003  0.0  0.135953  0.10851  -0.000227  1.003056  0.0
H  H16  1  0.32612913  0.78838946  0.08656109  1  0.099636  0.000148  0.938911  0.0  0.110057  0.000201  1.000867  0.0  0.111633  0.000151  0.998635  0.0  0.135888  0.108523  0.000227  1.002757  0.0
H  H17  1  0.17472715  0.28834824  0.91368805  1  0.099844  -0.000149  0.939245  0.0  0.11037  -0.0002  1.001004  0.0  0.111914  -0.00015  0.998825  0.0  0.136077  0.108834  -0.000225  1.002907  0.0
C  C18  1  0.88150128  0.08254969  0.73906904  1  0.289164  0.011701  4.06302  0.009  0.290422  -0.004565  4.388521  -0.009  0.319435  -0.003543  4.403265  -0.007  0.136716  0.270076  -0.005189  4.376564  -0.009
C  C19  1  0.61835660  0.58222049  0.26096100  1  0.289829  -0.011683  4.062346  -0.009  0.291014  0.004592  4.388046  0.009  0.320023  0.003571  4.402791  0.007  0.136897  0.270677  0.005215  4.376099  0.009
C  C20  1  0.11830802  0.91775276  0.26092881  1  0.289767  0.011696  4.062089  0.009  0.290976  -0.004587  4.38779  -0.009  0.319989  -0.003569  4.402539  -0.007  0.136855  0.27064  -0.00521  4.37582  -0.009
C  C21  1  0.38150027  0.41750029  0.73914320  1  0.289532  -0.01169  4.062629  -0.009  0.29081  0.004563  4.387981  0.009  0.319817  0.003537  4.402686  0.007  0.136743  0.270466  0.005191  4.376085  0.009
C  C22  1  0.58101744  0.00815559  0.33266136  1  -0.174509  7.2e-05  3.74438  0.0  -0.180066  -0.000109  3.991469  0.0  -0.191225  -4e-05  4.01182  0.0  -0.082704  -0.173724  -0.000131  3.979298  0.0
C  C23  1  0.91846899  0.50880159  0.66717034  1  -0.173886  -9.5e-05  3.744655  0.0  -0.180374  0.000104  3.991983  0.0  -0.191479  3.7e-05  4.012237  0.0  -0.083409  -0.174103  0.000121  3.97985  0.0
C  C24  1  0.41855370  0.99116906  0.66711447  1  -0.174825  0.000117  3.744875  0.0  -0.180914  -0.000103  3.992356  0.0  -0.192031  -3.7e-05  4.012605  0.0  -0.083447  -0.174641  -0.000121  3.980223  0.0
C  C25  1  0.08110819  0.49179795  0.33265249  1  -0.17467  -3.3e-05  3.744203  0.0  -0.180497  0.000117  3.991406  0.0  -0.191669  4.2e-05  4.011757  0.0  -0.082955  -0.17419  0.000131  3.979207  0.0
C  C26  1  0.49539691  0.15013182  0.32910234  1  0.185121  -0.000771  3.67099  -0.001  0.155414  -0.000363  3.928261  0.0  0.169477  -0.000395  3.937738  0.0  0.071624  0.146087  -0.000317  3.922525  0.0
C  C27  1  0.00405419  0.65081120  0.67075996  1  0.184693  0.000772  3.670194  0.001  0.155281  0.000359  3.927788  0.0  0.169378  0.000393  3.937248  0.0  0.072199  0.145936  0.000312  3.922095  0.0
C  C28  1  0.50411060  0.84914958  0.67070886  1  0.185042  -0.000794  3.670577  -0.001  0.155483  -0.000358  3.928036  0.0  0.169598  -0.000392  3.937525  0.0  0.072305  0.146154  -0.000313  3.922327  0.0
C  C29  1  0.99547601  0.34982363  0.32907436  1  0.185151  0.000731  3.670097  0.001  0.155483  0.000361  3.927553  0.0  0.169544  0.000395  3.937019  0.0  0.07176  0.146149  0.000315  3.92184  0.0
C  C30  1  0.55577166  0.20924707  0.15551883  1  0.460507  -0.000378  3.754619  0.0  0.413054  0.001385  4.019975  0.001  0.434199  0.000706  4.032338  0.001  0.345206  0.39936  0.001864  4.01144  0.002
C  C31  1  0.94438418  0.70946711  0.84460568  1  0.459324  0.000382  3.755386  0.0  0.412324  -0.001377  4.020017  -0.001  0.433488  -0.000698  4.032375  -0.001  0.345066  0.398626  -0.001857  4.011456  -0.002
C  C32  1  0.44437938  0.79048852  0.84454645  1  0.459881  -0.000394  3.755143  0.0  0.41271  0.001377  4.020202  0.001  0.433882  0.0007  4.032551  0.001  0.345096  0.399002  0.001859  4.01166  0.002
C  C33  1  0.05578786  0.29077047  0.15546113  1  0.45991  0.000352  3.754809  0.0  0.412674  -0.001389  4.020143  -0.001  0.433824  -0.000708  4.032506  -0.001  0.345017  0.398982  -0.001867  4.011603  -0.002
C  C34  1  0.65467262  0.96804714  0.24186597  1  0.119049  -4.8e-05  3.594768  0.0  0.061329  0.000221  3.836565  0.0  0.070893  7.7e-05  3.850583  0.0  0.074522  0.055083  0.000335  3.827752  0.0
C  C35  1  0.84524059  0.46841945  0.75810848  1  0.117938  5.1e-05  3.595489  0.0  0.060476  -0.000223  3.837236  0.0  0.070026  -7.7e-05  3.851292  0.0  0.074106  0.054248  -0.000337  3.828416  0.0
C  C36  1  0.34529364  0.03154275  0.75803588  1  0.118528  -7.5e-05  3.595992  0.0  0.060872  0.000219  3.837943  0.0  0.070443  7.7e-05  3.851998  0.0  0.074283  0.05463  0.000336  3.829135  0.0
C  C37  1  0.15475275  0.53193992  0.24184619  1  0.118679  1.1e-05  3.595039  0.0  0.061507  -0.00023  3.836602  0.0  0.071072  -7.8e-05  3.850625  0.0  0.074611  0.055259  -0.000336  3.827797  0.0
C  C38  1  0.64662454  0.18661555  0.99782647  1  0.243906  -0.002959  3.701848  -0.003  0.183964  -0.000646  4.013462  -0.001  0.201079  -0.001058  4.0257  -0.001  0.155846  0.173146  -0.000298  4.005092  0.0
C  C39  1  0.85398837  0.68664205  0.00244271  1  0.24447  0.002953  3.703119  0.003  0.184429  0.000631  4.014505  0.001  0.201641  0.001041  4.026743  0.001  0.156347  0.173621  0.000285  4.006125  0.0
C  C40  1  0.35400857  0.81338185  0.00239451  1  0.244096  -0.002958  3.702728  -0.003  0.184058  -0.000633  4.01413  -0.001  0.201218  -0.001043  4.02636  -0.001  0.156208  0.173243  -0.000286  4.005743  0.0
C  C41  1  0.14659979  0.31345780  0.99775339  1  0.243829  0.002952  3.702004  0.003  0.18363  0.000643  4.013535  0.001  0.200765  0.001055  4.025794  0.001  0.15592  0.172847  0.000296  4.005179  0.0
S  S42  1  0.85309078  0.09255289  0.59894438  1  -0.301316  -0.067757  1.997024  -0.06  -0.321634  -0.012496  2.30081  -0.012  -0.343814  -0.005217  2.301178  -0.005  -0.155613  -0.30307  -0.021629  2.298412  -0.019
S  S43  1  0.64579802  0.59237872  0.40100022  1  -0.301475  0.067909  1.997409  0.06  -0.321792  0.012632  2.301384  0.012  -0.343959  0.005292  2.301632  0.005  -0.15543  -0.303226  0.021818  2.299027  0.019
S  S44  1  0.14562568  0.90757766  0.40096445  1  -0.301357  -0.068008  1.99712  -0.06  -0.321723  -0.012641  2.301109  -0.012  -0.343903  -0.005295  2.301365  -0.005  -0.155387  -0.303135  -0.021839  2.298743  -0.019
S  S45  1  0.35299231  0.40746953  0.59902073  1  -0.301654  0.067608  1.997346  0.06  -0.321886  0.01246  2.300943  0.012  -0.344038  0.0052  2.301288  0.005  -0.155763  -0.303351  0.021566  2.298587  0.019
N  N46  1  0.89949009  0.08082009  0.84322597  1  -0.568476  -0.069501  3.026442  -0.08  -0.574793  -0.043591  3.361399  -0.055  -0.61083  -0.035933  3.365613  -0.047  -0.449249  -0.549691  -0.048246  3.358352  -0.058
N  N47  1  0.60121540  0.58039636  0.15688502  1  -0.568557  0.069547  3.026276  0.08  -0.574962  0.043606  3.361479  0.055  -0.611038  0.035926  3.365802  0.047  -0.449237  -0.549786  0.048285  3.358221  0.059
N  N48  1  0.10125229  0.91962012  0.15686517  1  -0.568636  -0.06955  3.025916  -0.08  -0.575056  -0.043619  3.361095  -0.055  -0.611121  -0.035934  3.365363  -0.047  -0.449197  -0.549903  -0.048297  3.35793  -0.059
N  N49  1  0.39953262  0.41925500  0.84331280  1  -0.568737  0.069533  3.026619  0.08  -0.575086  0.043615  3.361608  0.055  -0.611116  0.03596  3.365803  0.047  -0.449268  -0.549961  0.048265  3.358492  0.058
N  N50  1  0.48229227  0.25025180  0.24200681  1  -0.359734  0.000373  3.03034  0.001  -0.327631  0.000166  3.30236  0.0  -0.344276  0.000116  3.315613  0.0  -0.299809  -0.31693  0.000239  3.293493  0.0
N  N51  1  0.01756797  0.75070747  0.75802836  1  -0.358443  -0.000389  3.029501  -0.001  -0.326649  -0.000169  3.301295  0.0  -0.343282  -0.000116  3.314534  0.0  -0.299823  -0.315929  -0.000244  3.292425  0.0
N  N52  1  0.51757186  0.74925157  0.75797991  1  -0.358549  0.000407  3.029872  0.001  -0.326852  0.000167  3.302117  0.0  -0.343487  0.000115  3.315345  0.0  -0.299873  -0.316136  0.000244  3.293247  0.0
N  N53  1  0.98230918  0.24973500  0.24195183  1  -0.359464  -0.000343  3.029804  -0.001  -0.32738  -0.000167  3.301874  0.0  -0.344023  -0.000118  3.31513  0.0  -0.299752  -0.316676  -0.000239  3.293001  0.0
N  N54  1  0.63808582  0.06930161  0.15258466  1  0.012872  0.002355  3.624803  0.003  0.134595  0.002386  3.795806  0.003  0.127047  0.001867  3.814212  0.003  -0.104015  0.139247  0.00269  3.783435  0.003
N  N55  1  0.86205923  0.56952917  0.84750294  1  0.012787  -0.002348  3.625204  -0.003  0.134773  -0.002375  3.795291  -0.003  0.127233  -0.001858  3.813676  -0.003  -0.10383  0.139421  -0.002679  3.782951  -0.003
N  N56  1  0.36208519  0.93044081  0.84741971  1  0.012427  0.00236  3.625741  0.003  0.134209  0.002377  3.796333  0.003  0.126638  0.001858  3.814764  0.003  -0.104135  0.138865  0.00268  3.783988  0.003
N  N57  1  0.13814286  0.43070613  0.15255915  1  0.013549  -0.002336  3.624684  -0.003  0.13458  -0.002383  3.796147  -0.003  0.127034  -0.001866  3.814538  -0.003  -0.104178  0.139231  -0.002688  3.783796  -0.003
N  N58  1  0.69475905  0.05446612  0.05218267  1  -0.290544  0.005707  2.889645  0.006  -0.305199  0.003834  3.190871  0.004  -0.321446  0.002808  3.204517  0.003  -0.226958  -0.294509  0.00485  3.182089  0.005
N  N59  1  0.80566217  0.55456871  0.94801799  1  -0.290388  -0.005722  2.889294  -0.006  -0.305313  -0.003835  3.190545  -0.004  -0.321575  -0.002808  3.204161  -0.003  -0.227037  -0.294639  -0.004854  3.181804  -0.005
N  N60  1  0.30570614  0.94544136  0.94794490  1  -0.289875  0.005724  2.888664  0.006  -0.304653  0.003835  3.190025  0.004  -0.320924  0.002808  3.20368  0.003  -0.226727  -0.293962  0.004854  3.181269  0.005
N  N61  1  0.19478518  0.44558236  0.05214009  1  -0.290321  -0.005707  2.889516  -0.006  -0.304763  -0.003833  3.190939  -0.004  -0.321007  -0.002807  3.204569  -0.003  -0.226689  -0.294087  -0.004853  3.182155  -0.005
N  N62  1  0.93609303  0.78425417  0.94412503  1  -0.464407  -0.059964  3.231256  -0.072  -0.422822  -0.054019  3.544313  -0.071  -0.459653  -0.044506  3.560887  -0.062  -0.357603  -0.399954  -0.058378  3.534148  -0.074
N  N63  1  0.56442280  0.28416143  0.05613459  1  -0.464535  0.060058  3.23035  0.072  -0.422873  0.05417  3.543796  0.072  -0.459588  0.044637  3.56021  0.062  -0.357437  -0.400049  0.058534  3.533624  0.074
N  N64  1  0.06438206  0.21589234  0.05604673  1  -0.464706  -0.060003  3.230777  -0.072  -0.422903  -0.054141  3.54409  -0.072  -0.459645  -0.044613  3.560521  -0.062  -0.357444  -0.40004  -0.058499  3.533863  -0.074
N  N65  1  0.43607275  0.71573466  0.94408727  1  -0.464675  0.060016  3.231048  0.072  -0.422938  0.05405  3.544125  0.071  -0.459754  0.044531  3.56068  0.062  -0.357419  -0.400081  0.058416  3.533976  0.074
