# generated using pymatgen
data_CdH7C6N3O5
_symmetry_space_group_name_H-M   'P 1'
_cell_length_a   5.00349800
_cell_length_b   9.70163323
_cell_length_c   18.15272143
_cell_angle_alpha   89.99957130
_cell_angle_beta   89.99990724
_cell_angle_gamma   89.99994719
_symmetry_Int_Tables_number   1
_chemical_formula_structural   CdH7C6N3O5
_chemical_formula_sum   'Cd4 H28 C24 N12 O20'
_cell_volume   881.17126232
_cell_formula_units_Z   4
loop_
 _symmetry_equiv_pos_site_id
 _symmetry_equiv_pos_as_xyz
  1  'x, y, z'
loop_
 _atom_site_type_symbol
 _atom_site_label
 _atom_site_symmetry_multiplicity
 _atom_site_fract_x
 _atom_site_fract_y
 _atom_site_fract_z
 _atom_site_occupancy
 _atom_site_hle17_bader_spin_density
 _atom_site_hle17_ddec_charge
 _atom_site_hle17_ddec_spin_density
 _atom_site_hle17_ddec_sum_bond_order
 _atom_site_hle17_magmom
 _atom_site_hse06_10hf_bader_spin_density
 _atom_site_hse06_10hf_ddec_charge
 _atom_site_hse06_10hf_ddec_spin_density
 _atom_site_hse06_10hf_ddec_sum_bond_order
 _atom_site_hse06_10hf_magmom
 _atom_site_hse06_bader_spin_density
 _atom_site_hse06_ddec_charge
 _atom_site_hse06_ddec_spin_density
 _atom_site_hse06_ddec_sum_bond_order
 _atom_site_hse06_magmom
 _atom_site_pbe_bader_spin_density
 _atom_site_pbe_cm5_charge
 _atom_site_pbe_ddec_charge
 _atom_site_pbe_ddec_spin_density
 _atom_site_pbe_ddec_sum_bond_order
 _atom_site_pbe_magmom
Cd  Cd0  1  0.31404863  0.30490488  0.79250201  1  0  1.252132  0  1.597011  0  0  1.070414  0  2.047846  0  0  1.126769  0  1.989833  0  0  0.787213  1.029185  0  2.088979  0
Cd  Cd1  1  0.18594151  0.69510350  0.29249740  1  0  1.252131  0  1.596939  0  0  1.070426  0  2.04778  0  0  1.126783  0  1.989765  0  0  0.787187  1.029169  0  2.088922  0
Cd  Cd2  1  0.68596969  0.80489928  0.70749883  1  0  1.252094  0  1.597036  0  0  1.070355  0  2.047881  0  0  1.126709  0  1.989871  0  0  0.787172  1.029095  0  2.089017  0
Cd  Cd3  1  0.81403373  0.19510315  0.20750123  1  0  1.252214  0  1.596941  0  0  1.070462  0  2.047763  0  0  1.126826  0  1.98975  0  0  0.787212  1.029222  0  2.088893  0
H  H4  1  0.71976972  0.17216493  0.95549656  1  0  0.115091  0  0.917043  0  0  0.125294  0  0.978871  0  0  0.128338  0  0.975499  0  0  0.143528  0.12302  0  0.981363  0
H  H5  1  0.78020712  0.82783518  0.45549359  1  0  0.115134  0  0.91695  0  0  0.125308  0  0.978819  0  0  0.128318  0  0.975465  0  0  0.143549  0.123039  0  0.981306  0
H  H6  1  0.28023818  0.67217464  0.54450208  1  0  0.115064  0  0.916993  0  0  0.125305  0  0.978788  0  0  0.12835  0  0.975417  0  0  0.143509  0.123027  0  0.981276  0
H  H7  1  0.21976255  0.32782472  0.04450944  1  0  0.115027  0  0.917118  0  0  0.125276  0  0.978889  0  0  0.128295  0  0.975545  0  0  0.143538  0.123003  0  0.981382  0
H  H8  1  0.76693078  0.98181922  0.05079913  1  0  0.088154  0  0.942956  0  0  0.10027  0  1.01086  0  0  0.101629  0  1.01027  0  0  0.113941  0.09922  0  1.011375  0
H  H9  1  0.73306829  0.01817400  0.55080109  1  0  0.088114  0  0.942837  0  0  0.100184  0  1.010837  0  0  0.101541  0  1.010252  0  0  0.113899  0.099138  0  1.011349  0
H  H10  1  0.23305738  0.48182903  0.44920492  1  0  0.088157  0  0.942708  0  0  0.100207  0  1.010726  0  0  0.101565  0  1.010141  0  0  0.113919  0.099165  0  1.011232  0
H  H11  1  0.26694911  0.51816898  0.94920205  1  0  0.088048  0  0.942834  0  0  0.100165  0  1.010841  0  0  0.101524  0  1.010259  0  0  0.113913  0.099115  0  1.01135  0
H  H12  1  0.68398074  0.81639584  0.01477898  1  0  0.085594  0  0.94007  0  0  0.095806  0  1.013636  0  0  0.097133  0  1.011968  0  0  0.113951  0.094711  0  1.015117  0
H  H13  1  0.81601272  0.18360301  0.51478465  1  0  0.085539  0  0.940216  0  0  0.095788  0  1.013751  0  0  0.097115  0  1.012085  0  0  0.113988  0.094694  0  1.015236  0
H  H14  1  0.31600889  0.31639883  0.48522410  1  0  0.085627  0  0.939976  0  0  0.095815  0  1.013584  0  0  0.097144  0  1.011915  0  0  0.113945  0.094722  0  1.015072  0
H  H15  1  0.18400122  0.68359148  0.98522220  1  0  0.085596  0  0.940082  0  0  0.095839  0  1.013683  0  0  0.097167  0  1.01202  0  0  0.113997  0.094745  0  1.015156  0
H  H16  1  0.21936154  0.84173287  0.06872734  1  0  0.11117  0  0.936  0  0  0.12492  0  0.997964  0  0  0.12733  0  0.996722  0  0  0.104513  0.122915  0  0.999513  0
H  H17  1  0.28064294  0.15826719  0.56872761  1  0  0.111158  0  0.936046  0  0  0.12487  0  0.998036  0  0  0.127276  0  0.996796  0  0  0.104511  0.122867  0  0.999588  0
H  H18  1  0.78061418  0.34172853  0.43126737  1  0  0.111245  0  0.936069  0  0  0.124923  0  0.998028  0  0  0.127333  0  0.99679  0  0  0.104564  0.12292  0  0.999583  0
H  H19  1  0.71938890  0.65828325  0.93127274  1  0  0.111204  0  0.935964  0  0  0.124855  0  0.997968  0  0  0.127266  0  0.996731  0  0  0.104475  0.122856  0  0.999518  0
H  H20  1  0.47728074  0.83123396  0.13347742  1  0  0.14693  0  0.939885  0  0  0.161124  0  0.998747  0  0  0.164505  0  0.996791  0  0  0.116029  0.158401  0  1.000833  0
H  H21  1  0.02272705  0.16877244  0.63348373  1  0  0.147077  0  0.939685  0  0  0.16122  0  0.998577  0  0  0.164603  0  0.996619  0  0  0.116061  0.158495  0  1.000673  0
H  H22  1  0.52268495  0.33123921  0.36652064  1  0  0.147137  0  0.939843  0  0  0.161239  0  0.998716  0  0  0.16462  0  0.996758  0  0  0.116097  0.158514  0  1.000806  0
H  H23  1  0.97732281  0.66876622  0.86651713  1  0  0.147098  0  0.939671  0  0  0.161236  0  0.998519  0  0  0.164621  0  0.996558  0  0  0.116052  0.158508  0  1.000616  0
H  H24  1  0.52303071  0.13081102  0.68427121  1  0  0.415414  0  0.895506  0  0  0.38565  0  0.957795  0  0  0.39649  0  0.942362  0  0  0.285708  0.377917  0  0.968784  0
H  H25  1  0.97696696  0.86920925  0.18427135  1  0  0.415318  0  0.89564  0  0  0.38545  0  0.95808  0  0  0.396298  0  0.942638  0  0  0.285617  0.377728  0  0.969058  0
H  H26  1  0.47697905  0.63080537  0.81573091  1  0  0.41548  0  0.895419  0  0  0.385636  0  0.957815  0  0  0.396479  0  0.94238  0  0  0.285685  0.377909  0  0.968801  0
H  H27  1  0.02301884  0.36919960  0.31572820  1  0  0.415444  0  0.895447  0  0  0.385605  0  0.957841  0  0  0.396448  0  0.942406  0  0  0.285682  0.377884  0  0.968816  0
H  H28  1  0.76247901  0.17572765  0.73339156  1  0  0.415  0  0.899362  0  0  0.382665  0  0.96703  0  0  0.393685  0  0.951063  0  0  0.285688  0.374858  0  0.978319  0
H  H29  1  0.73751815  0.82428886  0.23339247  1  0  0.414864  0  0.89956  0  0  0.382516  0  0.96723  0  0  0.393538  0  0.951262  0  0  0.285677  0.374703  0  0.978523  0
H  H30  1  0.23753690  0.67571794  0.76660486  1  0  0.41506  0  0.899275  0  0  0.382738  0  0.966892  0  0  0.393758  0  0.950926  0  0  0.285781  0.374926  0  0.978186  0
H  H31  1  0.26245751  0.32428150  0.26660342  1  0  0.415045  0  0.899302  0  0  0.3827  0  0.966959  0  0  0.39372  0  0.950991  0  0  0.285791  0.374889  0  0.978254  0
C  C32  1  0.55981162  0.10628867  0.93574815  1  0  0.184225  0  3.642984  0  0  0.104176  0  3.914094  0  0  0.117333  0  3.92593  0  0  0.164326  0.095667  0  3.905814  0
C  C33  1  0.94017542  0.89370964  0.43575095  1  0  0.184359  0  3.642875  0  0  0.104326  0  3.914035  0  0  0.117523  0  3.925857  0  0  0.164361  0.095804  0  3.905758  0
C  C34  1  0.44021405  0.60629989  0.56425351  1  0  0.184085  0  3.642827  0  0  0.10405  0  3.913937  0  0  0.117206  0  3.925777  0  0  0.164231  0.095546  0  3.905641  0
C  C35  1  0.05980846  0.39370229  0.06425126  1  0  0.18431  0  3.642923  0  0  0.104226  0  3.914005  0  0  0.117405  0  3.925843  0  0  0.164329  0.095714  0  3.905734  0
C  C36  1  0.24057913  0.01674260  0.87419945  1  0  0.180325  0  3.74342  0  0  0.162884  0  4.024759  0  0  0.167563  0  4.039598  0  0  0.20948  0.159668  0  4.014603  0
C  C37  1  0.25941015  0.98326055  0.37420025  1  0  0.180008  0  3.743409  0  0  0.162805  0  4.024506  0  0  0.167494  0  4.039333  0  0  0.209411  0.159599  0  4.014348  0
C  C38  1  0.75941827  0.51673591  0.62580038  1  0  0.180445  0  3.743421  0  0  0.163038  0  4.024668  0  0  0.167732  0  4.039488  0  0  0.209531  0.159825  0  4.014518  0
C  C39  1  0.74057802  0.48325835  0.12579663  1  0  0.180455  0  3.743393  0  0  0.163108  0  4.024641  0  0  0.167762  0  4.039531  0  0  0.209566  0.159901  0  4.014483  0
C  C40  1  0.60296949  0.91691084  0.03094330  1  0  0.012103  0  3.632686  0  0  -0.069612  0  3.899584  0  0  -0.065001  0  3.909106  0  0  -0.050266  -0.072511  0  3.892996  0
C  C41  1  0.89703579  0.08309295  0.53094937  1  0  0.012319  0  3.632478  0  0  -0.069424  0  3.89941  0  0  -0.064816  0  3.908942  0  0  -0.050217  -0.072326  0  3.892823  0
C  C42  1  0.39703445  0.41690978  0.46905165  1  0  0.012134  0  3.632448  0  0  -0.069542  0  3.899309  0  0  -0.064941  0  3.908848  0  0  -0.05024  -0.072448  0  3.892732  0
C  C43  1  0.10298782  0.58306735  0.96907057  1  0  0.012396  0  3.632568  0  0  -0.069509  0  3.899656  0  0  -0.064919  0  3.909216  0  0  -0.050239  -0.07239  0  3.893031  0
C  C44  1  0.04056736  0.00288677  0.81310672  1  0  0.63019  0  3.923695  0  0  0.573881  0  4.225025  0  0  0.608524  0  4.216752  0  0  0.220759  0.550222  0  4.229724  0
C  C45  1  0.45942257  0.99712030  0.31311515  1  0  0.630244  0  3.923803  0  0  0.573781  0  4.225297  0  0  0.608423  0  4.217024  0  0  0.220643  0.550108  0  4.230013  0
C  C46  1  0.95944599  0.50288404  0.68688600  1  0  0.62993  0  3.924459  0  0  0.573669  0  4.225679  0  0  0.608306  0  4.217405  0  0  0.220576  0.550006  0  4.23039  0
C  C47  1  0.54053367  0.49711145  0.18688828  1  0  0.63024  0  3.923737  0  0  0.57379  0  4.225243  0  0  0.608439  0  4.216972  0  0  0.220667  0.550115  0  4.229958  0
C  C48  1  0.29763916  0.03106787  0.12597993  1  0  0.732287  0  3.823269  0  0  0.678743  0  4.129569  0  0  0.713935  0  4.120811  0  0  0.211756  0.654453  0  4.13487  0
C  C49  1  0.20240469  0.96892523  0.62597355  1  0  0.73246  0  3.823028  0  0  0.678879  0  4.129366  0  0  0.714063  0  4.120621  0  0  0.21185  0.654589  0  4.134651  0
C  C50  1  0.70235553  0.53105793  0.37401882  1  0  0.732237  0  3.824487  0  0  0.678753  0  4.130561  0  0  0.713935  0  4.121814  0  0  0.21163  0.654461  0  4.135855  0
C  C51  1  0.79761617  0.46892472  0.87402276  1  0  0.732338  0  3.822564  0  0  0.678648  0  4.129033  0  0  0.713833  0  4.120291  0  0  0.211728  0.654365  0  4.134311  0
C  C52  1  0.39286614  0.89783343  0.09035372  1  0  -0.30437  0  3.650573  0  0  -0.343947  0  3.901615  0  0  -0.351059  0  3.907847  0  0  -0.168121  -0.338871  0  3.897803  0
C  C53  1  0.10715211  0.10216325  0.59036140  1  0  -0.304754  0  3.650855  0  0  -0.344143  0  3.901731  0  0  -0.351256  0  3.907962  0  0  -0.168252  -0.339062  0  3.897931  0
C  C54  1  0.60712176  0.39782970  0.40964241  1  0  -0.304789  0  3.651368  0  0  -0.34407  0  3.902018  0  0  -0.351183  0  3.908259  0  0  -0.16822  -0.338987  0  3.898213  0
C  C55  1  0.89290154  0.60216897  0.90964965  1  0  -0.304858  0  3.650253  0  0  -0.344112  0  3.901182  0  0  -0.351229  0  3.907428  0  0  -0.16811  -0.339047  0  3.897375  0
N  N56  1  0.40340339  0.13006149  0.87795622  1  0  -0.436055  0  3.210123  0  0  -0.373874  0  3.500471  0  0  -0.394479  0  3.5144  0  0  -0.342944  -0.359579  0  3.490624  0
N  N57  1  0.09657986  0.86992923  0.37795750  1  0  -0.436007  0  3.209774  0  0  -0.373885  0  3.500025  0  0  -0.394489  0  3.513933  0  0  -0.342868  -0.359591  0  3.490179  0
N  N58  1  0.59662836  0.63006649  0.62204149  1  0  -0.435797  0  3.210301  0  0  -0.37364  0  3.500583  0  0  -0.394246  0  3.514512  0  0  -0.342855  -0.359343  0  3.490723  0
N  N59  1  0.90338595  0.36994122  0.12203544  1  0  -0.436154  0  3.210382  0  0  -0.373982  0  3.500684  0  0  -0.394577  0  3.514611  0  0  -0.343029  -0.359688  0  3.490839  0
N  N60  1  0.49150268  0.98399230  0.96576608  1  0  0.049841  0  3.539623  0  0  0.170297  0  3.731808  0  0  0.160817  0  3.75333  0  0  -0.123019  0.176377  0  3.717183  0
N  N61  1  0.00849164  0.01600343  0.46576980  1  0  0.049718  0  3.53971  0  0  0.170161  0  3.731945  0  0  0.160681  0  3.753464  0  0  -0.123069  0.176246  0  3.717317  0
N  N62  1  0.50850823  0.48398763  0.53423072  1  0  0.049767  0  3.539089  0  0  0.170124  0  3.73141  0  0  0.160642  0  3.752938  0  0  -0.123032  0.176206  0  3.716788  0
N  N63  1  0.99150101  0.51599653  0.03423012  1  0  0.049863  0  3.54006  0  0  0.170379  0  3.73225  0  0  0.160911  0  3.753767  0  0  -0.123001  0.176452  0  3.717623  0
N  N64  1  0.28851879  0.92545930  0.92757029  1  0  -0.231253  0  2.804005  0  0  -0.237208  0  3.061327  0  0  -0.242403  0  3.074745  0  0  -0.193995  -0.233474  0  3.052648  0
N  N65  1  0.21149192  0.07455035  0.42757925  1  0  -0.231173  0  2.803834  0  0  -0.237169  0  3.061076  0  0  -0.242372  0  3.074501  0  0  -0.193956  -0.233444  0  3.052405  0
N  N66  1  0.71150792  0.42544859  0.57242565  1  0  -0.231269  0  2.803703  0  0  -0.23719  0  3.061007  0  0  -0.242391  0  3.074425  0  0  -0.193913  -0.233462  0  3.05234  0
N  N67  1  0.78852090  0.57453196  0.07242373  1  0  -0.231316  0  2.804231  0  0  -0.237316  0  3.061547  0  0  -0.242506  0  3.074974  0  0  -0.19403  -0.233589  0  3.052877  0
O  O68  1  0.44437467  0.13658399  0.12721864  1  0  -0.671991  0  1.971383  0  0  -0.617209  0  2.233875  0  0  -0.643776  0  2.221673  0  0  -0.337792  -0.598382  0  2.242172  0
O  O69  1  0.05565118  0.86341013  0.62722372  1  0  -0.672006  0  1.971206  0  0  -0.617209  0  2.233718  0  0  -0.643781  0  2.221532  0  0  -0.337795  -0.598389  0  2.242028  0
O  O70  1  0.55562636  0.63657639  0.37277637  1  0  -0.671908  0  1.971707  0  0  -0.617184  0  2.234165  0  0  -0.643752  0  2.22197  0  0  -0.337751  -0.598385  0  2.242507  0
O  O71  1  0.94436534  0.36340834  0.87277688  1  0  -0.671934  0  1.971272  0  0  -0.617074  0  2.23379  0  0  -0.643643  0  2.221603  0  0  -0.337734  -0.598261  0  2.2421  0
O  O72  1  0.89962583  0.89506466  0.80966458  1  0  -0.597391  0  2.006134  0  0  -0.531407  0  2.255209  0  0  -0.559958  0  2.244752  0  0  -0.307877  -0.511177  0  2.262377  0
O  O73  1  0.60035654  0.10493743  0.30966682  1  0  -0.597389  0  2.006343  0  0  -0.531374  0  2.255475  0  0  -0.559922  0  2.245015  0  0  -0.307835  -0.511157  0  2.262666  0
O  O74  1  0.10036681  0.39507305  0.69033919  1  0  -0.597279  0  2.006535  0  0  -0.53138  0  2.255639  0  0  -0.559925  0  2.245177  0  0  -0.307879  -0.511165  0  2.262828  0
O  O75  1  0.39961841  0.60494186  0.19033107  1  0  -0.597456  0  2.00609  0  0  -0.531466  0  2.255239  0  0  -0.560015  0  2.244773  0  0  -0.307903  -0.511241  0  2.262425  0
O  O76  1  0.60123001  0.21404419  0.70842113  1  0  -0.836181  0  1.892356  0  0  -0.776299  0  2.097765  0  0  -0.800602  0  2.064883  0  0  -0.596389  -0.75892  0  2.120906  0
O  O77  1  0.89875541  0.78597059  0.20841887  1  0  -0.835982  0  1.89257  0  0  -0.775989  0  2.098109  0  0  -0.800295  0  2.065223  0  0  -0.596309  -0.758626  0  2.121229  0
O  O78  1  0.39877603  0.71403695  0.79157844  1  0  -0.836265  0  1.892203  0  0  -0.776327  0  2.097794  0  0  -0.800627  0  2.06491  0  0  -0.596487  -0.758959  0  2.12092  0
O  O79  1  0.10122212  0.28596319  0.29157882  1  0  -0.836228  0  1.89226  0  0  -0.776288  0  2.097853  0  0  -0.800589  0  2.064969  0  0  -0.596471  -0.758927  0  2.120975  0
O  O80  1  0.03327686  0.10431639  0.76849392  1  0  -0.65293  0  2.099816  0  0  -0.581492  0  2.342918  0  0  -0.610555  0  2.332391  0  0  -0.310157  -0.560595  0  2.349684  0
O  O81  1  0.46670954  0.89567788  0.26849616  1  0  -0.652907  0  2.099462  0  0  -0.581471  0  2.342673  0  0  -0.610539  0  2.332148  0  0  -0.310161  -0.560544  0  2.349419  0
O  O82  1  0.96671883  0.60430789  0.73150500  1  0  -0.652939  0  2.100103  0  0  -0.581508  0  2.343161  0  0  -0.610574  0  2.332638  0  0  -0.310106  -0.560588  0  2.349909  0
O  O83  1  0.53325636  0.39568597  0.23149778  1  0  -0.652958  0  2.100105  0  0  -0.581429  0  2.343222  0  0  -0.610489  0  2.33269  0  0  -0.310045  -0.560511  0  2.34997  0
O  O84  1  0.05919982  0.02562037  0.15294891  1  0  -0.688319  0  2.065064  0  0  -0.605051  0  2.315889  0  0  -0.636211  0  2.301753  0  0  -0.326303  -0.583052  0  2.325082  0
O  O85  1  0.44083175  0.97439813  0.65295295  1  0  -0.688247  0  2.064629  0  0  -0.605064  0  2.315543  0  0  -0.636187  0  2.301383  0  0  -0.326307  -0.58307  0  2.324751  0
O  O86  1  0.94077487  0.52561346  0.34704986  1  0  -0.688227  0  2.065504  0  0  -0.605084  0  2.316385  0  0  -0.636213  0  2.302229  0  0  -0.326244  -0.583065  0  2.325533  0
O  O87  1  0.55915514  0.47440049  0.84705380  1  0  -0.688309  0  2.064424  0  0  -0.60505  0  2.315382  0  0  -0.636182  0  2.301229  0  0  -0.326313  -0.583056  0  2.324585  0
