# generated using pymatgen
data_Zn4H38C45N17Cl
_symmetry_space_group_name_H-M   'P 1'
_cell_length_a   14.95729321
_cell_length_b   14.91938541
_cell_length_c   14.96932658
_cell_angle_alpha   111.38229716
_cell_angle_beta   105.05274228
_cell_angle_gamma   111.66519090
_symmetry_Int_Tables_number   1
_chemical_formula_structural   Zn4H38C45N17Cl
_chemical_formula_sum   'Zn4 H38 C45 N17 Cl1'
_cell_volume   2573.27642794
_cell_formula_units_Z   1
loop_
 _symmetry_equiv_pos_site_id
 _symmetry_equiv_pos_as_xyz
  1  'x, y, z'
loop_
 _atom_site_type_symbol
 _atom_site_label
 _atom_site_symmetry_multiplicity
 _atom_site_fract_x
 _atom_site_fract_y
 _atom_site_fract_z
 _atom_site_occupancy
 _atom_site_pbe_bader_charge
 _atom_site_pbe_bader_spin_density
 _atom_site_pbe_cm5_charge
 _atom_site_pbe_ddec_charge
 _atom_site_pbe_ddec_spin_density
 _atom_site_pbe_ddec_sum_bond_order
 _atom_site_pbe_magmom
Zn  Zn0  1  0.36175146  0.86462256  0.00148684  1  1.189019  0  0.742026  0.605515  0  2.460965  0
Zn  Zn1  1  0.63633427  0.14422334  0.99878399  1  1.186531  0  0.741572  0.606551  0  2.455216  0
Zn  Zn2  1  0.49902436  0.13807582  0.13612875  1  1.188868  0  0.738058  0.608034  0  2.432639  0
Zn  Zn3  1  0.50313821  0.87127068  0.86784523  1  1.188796  0  0.743886  0.603352  0  2.476099  0
H  H4  1  0.14707899  0.82064830  0.82066752  1  0.103607  0  0.11138  0.097608  0  1.012067  0
H  H5  1  0.85728080  0.19695532  0.16920183  1  0.095585  0  0.113219  0.101968  0  1.010991  0
H  H6  1  0.46218983  0.18266280  0.35776486  1  0.099743  0  0.114943  0.102977  0  0.998143  0
H  H7  1  0.67399282  0.82579187  0.77789152  1  0.096679  0  0.116045  0.104106  0  0.995481  0
H  H8  1  0.84867113  0.18911558  0.94377694  1  0.09518  0  0.1155  0.101677  0  1.000376  0
H  H9  1  0.27129435  0.81932411  0.17384433  1  0.080801  0  0.115556  0.102085  0  1.001514  0
H  H10  1  0.68667568  0.84489175  0.00627822  1  0.090142  0  0.116659  0.102417  0  1.003612  0
H  H11  1  0.67726048  0.19623537  0.35407153  1  0.076693  0  0.112637  0.098015  0  1.018995  0
H  H12  1  0.03088216  0.58447666  0.59172326  1  0.071463  0  0.103574  0.077731  0  0.963468  0
H  H13  1  0.86214782  0.42840683  0.45856380  1  0.032685  0  0.096673  0.105901  0  0.969566  0
H  H14  1  0.49270471  0.18560691  0.83152576  1  0.083695  0  0.117699  0.107346  0  0.997514  0
H  H15  1  0.91306875  0.43408571  0.36604275  1  0.070437  0  0.095379  0.110456  0  0.991037  0
H  H16  1  0.18080033  0.45637576  0.49241825  1  0.087118  0  0.108616  0.093598  0  0.976834  0
H  H17  1  0.02420051  0.33653768  0.33620476  1  0.031418  0  0.093753  0.097112  0  0.98733  0
H  H18  1  0.05439153  0.37918821  0.66397248  1  0.056685  0  0.099657  0.107064  0  0.974246  0
H  H19  1  0.98303002  0.44953590  0.65522843  1  0.000849  0  0.090849  0.08703  0  0.98372  0
H  H20  1  0.84031621  0.27539211  0.50838028  1  0.016953  0  0.091922  0.091705  0  0.987469  0
H  H21  1  0.92455678  0.21973542  0.49313828  1  0.042992  0  0.09825  0.103794  0  0.968265  0
H  H22  1  0.00569749  0.22935649  0.36768988  1  0.073836  0  0.102479  0.111671  0  0.970068  0
H  H23  1  0.23537798  0.83244730  0.32991767  1  0.021381  0  0.090952  0.085929  0  1.002634  0
H  H24  1  0.53461035  0.39794616  0.22083057  1  0.066354  0  0.115207  0.103978  0  0.999071  0
H  H25  1  0.39847315  0.08660554  0.47361710  1  0.032975  0  0.097493  0.098318  0  0.999877  0
H  H26  1  0.26208105  0.82975369  0.49340571  1  0.041027  0  0.086946  0.085935  0  1.019287  0
H  H27  1  0.37116990  0.08721890  0.61309373  1  0.061739  0  0.100462  0.100495  0  0.99405  0
H  H28  1  0.77613470  0.60837080  0.11569118  1  0.033606  0  0.091925  0.086891  0  1.001726  0
H  H29  1  0.59812933  0.57917829  0.18826544  1  0.031007  0  0.09593  0.095767  0  1.001578  0
H  H30  1  0.75126252  0.74558836  0.08427364  1  0.033335  0  0.093585  0.090806  0  0.999469  0
H  H31  1  0.62228997  0.74420253  0.21422580  1  0.036924  0  0.097344  0.096161  0  0.999107  0
H  H32  1  0.99252181  0.17364385  0.89153375  1  0.034539  0  0.091366  0.086243  0  1.002782  0
H  H33  1  0.88198204  0.91991743  0.80619126  1  0.039028  0  0.095419  0.093554  0  1.00448  0
H  H34  1  0.15754777  0.17492395  0.91846644  1  0.05929  0  0.094427  0.092227  0  0.998575  0
H  H35  1  0.33108178  0.62211742  0.64495281  1  0.076387  0  0.115215  0.103734  0  1.003086  0
H  H36  1  0.02420913  0.91699158  0.79914123  1  0.038563  0  0.095527  0.092414  0  1.001522  0
H  H37  1  0.72971615  0.40981241  0.05187550  1  0.063833  0  0.115558  0.101428  0  1.001825  0
H  H38  1  0.14106337  0.61191604  0.81899911  1  0.059145  0  0.113993  0.10067  0  1.00706  0
H  H39  1  0.31753489  0.82113892  0.65846620  1  0.121929  0  0.105434  0.089729  0  1.050031  0
H  H40  1  0.33215508  0.18512280  0.00248971  1  0.042566  0  0.116796  0.102832  0  1.004911  0
H  H41  1  0.50245195  0.84249720  0.18745070  1  0.092323  0  0.116532  0.105769  0  1.001054  0
C  C42  1  0.20731346  0.90958192  0.87365278  1  0.383277  0  0.006702  -0.054971  0  3.961541  0
C  C43  1  0.38138727  0.00240598  0.70166626  1  0.001684  0  -0.037523  0.011835  0  4.11075  0
C  C44  1  0.64319563  0.45411353  0.14845530  1  -0.014885  0  -0.042886  0.008636  0  4.154119  0
C  C45  1  0.19514106  0.57233199  0.68956073  1  0.004319  0  -0.044599  -0.067235  0  4.058591  0
C  C46  1  0.53897702  0.84965598  0.13454108  1  0.385582  0  0.007097  -0.054059  0  3.953591  0
C  C47  1  0.79793302  0.18805639  0.19961226  1  0.382788  0  -0.001207  -0.065272  0  3.983052  0
C  C48  1  0.41842856  0.09362659  0.29789185  1  0.371389  0  0.001468  -0.068118  0  3.999144  0
C  C49  1  0.70233380  0.91491884  0.82192227  1  0.374156  0  0.003054  -0.067299  0  4.000141  0
C  C50  1  0.79129839  0.10001927  0.90571853  1  0.367096  0  0.003765  -0.060071  0  3.980936  0
C  C51  1  0.32015937  0.90851662  0.20420427  1  0.389999  0  0.003464  -0.062622  0  3.985248  0
C  C52  1  0.63319891  0.85066150  0.04230351  1  0.414036  0  0.010479  -0.043634  0  3.931574  0
C  C53  1  0.45879981  0.09690655  0.80466537  1  0.435266  0  0.007776  -0.055213  0  3.953618  0
C  C54  1  0.70626373  0.18774291  0.29374881  1  0.372203  0  -0.001696  -0.065783  0  3.985933  0
C  C55  1  0.61904744  0.82549563  0.12169642  1  -0.004216  0  -0.038837  0.008995  0  4.11862  0
C  C56  1  0.81187814  0.22437857  0.30554635  1  0.000149  0  -0.037299  -0.049937  0  3.996246  0
C  C57  1  0.35689845  0.00136725  0.30532714  1  0.020328  0  -0.042772  0.00693  0  4.154634  0
C  C58  1  0.79997156  0.00699018  0.84938344  1  0.041017  0  -0.042855  0.006129  0  4.157042  0
C  C59  1  0.03728457  0.52151572  0.53129371  1  0.083747  0  -0.037875  0.074289  0  3.736233  0
C  C60  1  0.92646087  0.42532251  0.43721444  1  -0.03571  0  -0.163016  -0.252308  0  3.869261  0
C  C61  1  0.12011534  0.40116540  0.50604480  1  0.088588  0  -0.057969  -0.049559  0  3.863896  0
C  C62  1  0.01232021  0.40034515  0.61044820  1  -0.026623  0  -0.157413  -0.19126  0  3.867395  0
C  C63  1  0.09553968  0.47615744  0.58788089  1  0.065214  0  -0.003038  0.071218  0  3.818759  0
C  C64  1  0.57965366  0.38310692  0.17635247  1  0.39611  0  -1.1e-05  -0.074082  0  4.006632  0
C  C65  1  0.91531027  0.30947493  0.40853083  1  0.059347  0  -0.008352  0.143447  0  3.83235  0
C  C66  1  0.01552988  0.31300565  0.39630852  1  -0.037389  0  -0.149062  -0.220421  0  3.816759  0
C  C67  1  0.91700427  0.29327415  0.50477411  1  -0.018076  0  -0.159444  -0.195963  0  3.869006  0
C  C68  1  0.28614248  0.91434352  0.40464576  1  -0.005339  0  -0.109202  -0.100896  0  4.07931  0
C  C69  1  0.34628717  0.00449412  0.39935092  1  -0.037482  0  -0.10142  -0.129822  0  4.043841  0
C  C70  1  0.29302688  0.91301388  0.50228319  1  -0.047732  0  -0.111745  -0.107675  0  4.071883  0
C  C71  1  0.34429716  0.00383317  0.60326799  1  -0.054577  0  -0.094401  -0.115842  0  4.021199  0
C  C72  1  0.72041137  0.62915091  0.14061860  1  -0.003819  0  -0.108406  -0.100313  0  4.07688  0
C  C73  1  0.65471495  0.55983784  0.16389854  1  -0.043474  0  -0.101948  -0.130705  0  4.04435  0
C  C74  1  0.71383340  0.71996900  0.13129268  1  -0.046464  0  -0.111039  -0.108984  0  4.078507  0
C  C75  1  0.29907111  0.63516593  0.70281986  1  0.400051  0  0.000377  -0.060059  0  4.022132  0
C  C76  1  0.65580276  0.76520761  0.16293587  1  -0.00151  0  -0.098337  -0.122375  0  4.037349  0
C  C77  1  0.98556325  0.09146976  0.86354388  1  -0.034514  0  -0.110012  -0.102514  0  4.081853  0
C  C78  1  0.89014920  0.00262143  0.83470799  1  -0.041761  0  -0.103995  -0.131856  0  4.051791  0
C  C79  1  0.08467601  0.09161934  0.87445078  1  -0.067544  0  -0.111271  -0.109368  0  4.073072  0
C  C80  1  0.09683150  0.00093220  0.84706866  1  -0.039206  0  -0.095867  -0.115712  0  4.03086  0
C  C81  1  0.68006430  0.39001493  0.09129375  1  0.437613  0  0.004098  -0.060846  0  3.98644  0
C  C82  1  0.20227884  0.63034681  0.79132547  1  0.417114  0  -0.001469  -0.065894  0  4.020243  0
C  C83  1  0.36964341  0.91082919  0.71572656  1  0.38048  0  0.00934  -0.038063  0  3.922433  0
C  C84  1  0.30139192  0.09558447  0.96621575  1  0.473029  0  0.011993  -0.042752  0  3.931507  0
C  C85  1  0.19688484  0.00338747  0.88782566  1  0.011483  0  -0.038298  0.009128  0  4.120482  0
C  C86  1  0.16856310  0.34951730  0.55180719  1  0.819216  0  0.169054  0.258309  0  3.973952  0
N  N87  1  0.30843046  0.94393589  0.93987655  1  -0.83244  0  -0.284127  -0.18292  0  3.637831  0
N  N88  1  0.69209428  0.13559350  0.13088866  1  -0.827111  0  -0.283742  -0.182034  0  3.61825  0
N  N89  1  0.41808461  0.05870754  0.20111254  1  -0.819921  0  -0.272345  -0.177695  0  3.546686  0
N  N90  1  0.64152370  0.95014809  0.85872802  1  -0.771054  0  -0.273091  -0.173632  0  3.557722  0
N  N91  1  0.69719812  0.06560367  0.91127608  1  -0.812822  0  -0.268381  -0.1727  0  3.546517  0
N  N92  1  0.35695503  0.94322473  0.14298919  1  -0.768795  0  -0.270388  -0.173734  0  3.553256  0
N  N93  1  0.56488024  0.88352248  0.00978952  1  -0.786014  0  -0.280172  -0.174995  0  3.646443  0
N  N94  1  0.63580442  0.13557330  0.18885433  1  -0.722932  0  -0.280889  -0.176186  0  3.615191  0
N  N95  1  0.49209806  0.06349231  0.87249354  1  -0.78915  0  -0.286675  -0.189126  0  3.642997  0
N  N96  1  0.57935676  0.28602967  0.13955863  1  -0.797531  0  -0.271011  -0.177515  0  3.544364  0
N  N97  1  0.36283160  0.72349994  0.80430100  1  -0.756675  0  -0.271149  -0.166454  0  3.528101  0
N  N98  1  0.64162211  0.29038564  0.08607695  1  -0.785116  0  -0.269238  -0.172131  0  3.552911  0
N  N99  1  0.30257434  0.72073890  0.85958226  1  -0.817176  0  -0.271557  -0.171977  0  3.535162  0
N  N100  1  0.43687484  0.94914168  0.81767301  1  -0.803967  0  -0.283673  -0.182232  0  3.638534  0
N  N101  1  0.36605202  0.05819914  0.99659769  1  -0.744744  0  -0.27867  -0.175642  0  3.634825  0
N  N102  1  0.50666623  0.88277488  0.06610690  1  -0.789337  0  -0.284516  -0.186866  0  3.641892  0
N  N103  1  0.20685768  0.30787061  0.58833046  1  -1.145896  0  -0.34065  -0.398073  0  2.687484  0
Cl  Cl104  1  0.11864416  0.60074678  0.48542195  1  -0.29  0  -0.055568  -0.164114  0  1.375114  0
