# generated using pymatgen
data_LiH4C3N7O
_symmetry_space_group_name_H-M   'P 1'
_cell_length_a   3.44309247
_cell_length_b   9.85000580
_cell_length_c   10.56986071
_cell_angle_alpha   115.81431526
_cell_angle_beta   92.38967982
_cell_angle_gamma   98.31971549
_symmetry_Int_Tables_number   1
_chemical_formula_structural   LiH4C3N7O
_chemical_formula_sum   'Li2 H8 C6 N14 O2'
_cell_volume   317.08972723
_cell_formula_units_Z   2
loop_
 _symmetry_equiv_pos_site_id
 _symmetry_equiv_pos_as_xyz
  1  'x, y, z'
loop_
 _atom_site_type_symbol
 _atom_site_label
 _atom_site_symmetry_multiplicity
 _atom_site_fract_x
 _atom_site_fract_y
 _atom_site_fract_z
 _atom_site_occupancy
 _atom_site_pbe_bader_spin_density
 _atom_site_pbe_cm5_charge
 _atom_site_pbe_ddec_charge
 _atom_site_pbe_ddec_spin_density
 _atom_site_pbe_ddec_sum_bond_order
 _atom_site_pbe_magmom
Li  Li0  1  0.97977857  0.67882380  0.99975665  1  0  0.534899  0.743616  0  0.598964  0
Li  Li1  1  0.02022303  0.32117520  0.00024340  1  0  0.534899  0.743639  0  0.59893  0
H  H2  1  0.57946600  0.88551742  0.08566598  1  0  0.29242  0.337211  0  1.028212  0
H  H3  1  0.42053614  0.11448272  0.91433360  1  0  0.292436  0.337254  0  1.028165  0
H  H4  1  0.51778060  0.80232577  0.91363457  1  0  0.29299  0.337777  0  1.027321  0
H  H5  1  0.48221809  0.19767323  0.08636451  1  0  0.292962  0.337737  0  1.027372  0
H  H6  1  0.69699930  0.52936259  0.64863636  1  0  0.141947  0.107096  0  1.053465  0
H  H7  1  0.30300339  0.47063870  0.35136654  1  0  0.141922  0.107052  0  1.05345  0
H  H8  1  0.96697730  0.12000995  0.64635557  1  0  0.141647  0.107605  0  1.055412  0
H  H9  1  0.03302138  0.87998906  0.35364161  1  0  0.141655  0.107587  0  1.055457  0
C  C10  1  0.71938805  0.22410273  0.44960255  1  0  0.315215  0.329057  0  4.135555  0
C  C11  1  0.28060644  0.77589972  0.55039693  1  0  0.315265  0.329155  0  4.135342  0
C  C12  1  0.78434610  0.44929582  0.68526293  1  0  0.171393  0.120313  0  3.873266  0
C  C13  1  0.21565419  0.55070662  0.31473473  1  0  0.171468  0.120417  0  3.873384  0
C  C14  1  0.91973537  0.23773116  0.68392696  1  0  0.16979  0.117133  0  3.874019  0
C  C15  1  0.08026148  0.76227014  0.31607208  1  0  0.169812  0.117235  0  3.873959  0
N  N16  1  0.64164809  0.05361720  0.23883210  1  0  -0.076427  -0.054566  0  3.356234  0
N  N17  1  0.35834586  0.94638410  0.76116691  1  0  -0.076475  -0.054598  0  3.356323  0
N  N18  1  0.55110866  0.17982902  0.23986274  1  0  -0.077756  -0.054529  0  3.352092  0
N  N19  1  0.44889165  0.82017341  0.76013870  1  0  -0.077722  -0.054487  0  3.352073  0
N  N20  1  0.59727894  0.29171212  0.37320370  1  0  -0.219848  -0.310846  0  3.226093  0
N  N21  1  0.40272266  0.70828688  0.62679635  1  0  -0.219854  -0.310894  0  3.225928  0
N  N22  1  0.75053287  0.07750481  0.37138382  1  0  -0.219856  -0.310272  0  3.230596  0
N  N23  1  0.24946635  0.92249534  0.62861478  1  0  -0.219874  -0.310311  0  3.230737  0
N  N24  1  0.80534819  0.29946132  0.59724338  1  0  -0.206395  -0.052144  0  3.762551  0
N  N25  1  0.19464997  0.70053653  0.40275711  1  0  -0.206453  -0.052259  0  3.762492  0
N  N26  1  0.87974253  0.47692673  0.81722293  1  0  -0.284646  -0.262446  0  3.324866  0
N  N27  1  0.12025962  0.52307341  0.18277855  1  0  -0.284666  -0.262432  0  3.324906  0
N  N28  1  0.96546588  0.34337881  0.81639145  1  0  -0.285115  -0.261894  0  3.324777  0
N  N29  1  0.03453573  0.65662018  0.18360860  1  0  -0.285127  -0.261963  0  3.324879  0
O  O30  1  0.53014671  0.78257436  0.99956514  1  0  -0.690256  -0.893109  0  2.148983  0
O  O31  1  0.46985252  0.21742579  0.00043441  1  0  -0.69025  -0.893132  0  2.149012  0
