# generated using pymatgen
data_NiMo8H22C16(N2O7)4
_symmetry_space_group_name_H-M   'P 1'
_cell_length_a   9.83838588
_cell_length_b   10.19754819
_cell_length_c   10.52443630
_cell_angle_alpha   107.92169878
_cell_angle_beta   91.14557725
_cell_angle_gamma   116.20617577
_symmetry_Int_Tables_number   1
_chemical_formula_structural   NiMo8H22C16(N2O7)4
_chemical_formula_sum   'Ni1 Mo8 H22 C16 N8 O28'
_cell_volume   886.23298643
_cell_formula_units_Z   1
loop_
 _symmetry_equiv_pos_site_id
 _symmetry_equiv_pos_as_xyz
  1  'x, y, z'
loop_
 _atom_site_type_symbol
 _atom_site_label
 _atom_site_symmetry_multiplicity
 _atom_site_fract_x
 _atom_site_fract_y
 _atom_site_fract_z
 _atom_site_occupancy
 _atom_site_hle17_ddec_charge
 _atom_site_hle17_ddec_spin_density
 _atom_site_hle17_ddec_sum_bond_order
 _atom_site_hle17_magmom
 _atom_site_hse06_10hf_ddec_charge
 _atom_site_hse06_10hf_ddec_spin_density
 _atom_site_hse06_10hf_ddec_sum_bond_order
 _atom_site_hse06_10hf_magmom
 _atom_site_hse06_ddec_charge
 _atom_site_hse06_ddec_spin_density
 _atom_site_hse06_ddec_sum_bond_order
 _atom_site_hse06_magmom
 _atom_site_pbe_cm5_charge
 _atom_site_pbe_ddec_charge
 _atom_site_pbe_ddec_spin_density
 _atom_site_pbe_ddec_sum_bond_order
 _atom_site_pbe_magmom
Ni  Ni0  1  0.99999873  0.00000042  0.00000109  1  0.93528  0.013373  2.053379  0.003  0.959951  0.044411  2.440603  0.034  1.039597  0.03155  2.369375  0.025  0.667731  0.904787  0.055556  2.492468  0.041
Mo  Mo1  1  0.80906122  0.71880968  0.63660862  1  2.188262  -0.016972  4.070483  -0.018  2.189755  -0.017205  4.603941  -0.018  2.292753  -0.012379  4.568883  -0.014  1.504419  2.113065  -0.021256  4.635824  -0.022
Mo  Mo2  1  0.19093714  0.28118970  0.36339149  1  2.188225  -0.017  4.070426  -0.018  2.189748  -0.017185  4.603872  -0.018  2.292742  -0.012372  4.568814  -0.014  1.504435  2.113057  -0.02126  4.635751  -0.022
Mo  Mo3  1  0.48633105  0.52891396  0.78277468  1  2.193728  -0.000215  4.048512  0.0  2.185784  -0.000163  4.592239  0.0  2.284788  -0.000134  4.555525  0.0  1.503485  2.113794  -0.000411  4.624077  0.0
Mo  Mo4  1  0.51366933  0.47108539  0.21722546  1  2.193747  -0.000195  4.048555  0.0  2.185798  -0.000178  4.592292  0.0  2.284813  -0.000131  4.555565  0.0  1.503467  2.113808  -0.000411  4.624128  0.0
Mo  Mo5  1  0.26954677  0.15862546  0.59596056  1  2.185352  0.000373  4.078178  0.0  2.182535  0.000106  4.621572  0.0  2.280318  7.4e-05  4.58772  0.0  1.518319  2.111046  0.001086  4.652807  0.001
Mo  Mo6  1  0.73045214  0.84137509  0.40403898  1  2.185372  0.000349  4.078212  0.0  2.182559  0.000106  4.621608  0.0  2.280341  7.1e-05  4.58776  0.0  1.518318  2.111067  0.001086  4.652844  0.001
Mo  Mo7  1  0.58442252  0.36451807  0.45726757  1  2.21922  6.7e-05  4.06527  0.0  2.214201  -0.000201  4.594827  0.0  2.317325  -1.7e-05  4.555822  0.0  1.49568  2.139257  -0.000335  4.628936  0.0
Mo  Mo8  1  0.41557942  0.63548242  0.54273391  1  2.219267  6.5e-05  4.065234  0.0  2.214238  -0.000205  4.594796  0.0  2.317353  -3.1e-05  4.5558  0.0  1.495703  2.139292  -0.000335  4.628907  0.0
H  H9  1  0.53745357  0.22404986  0.92955226  1  0.127698  -6.6e-05  0.906928  0.0  0.139041  -8e-05  0.969318  0.0  0.140988  -5.6e-05  0.967497  0.0  0.132127  0.13764  -0.000104  0.97061  0.0
H  H10  1  0.46255004  0.77595415  0.07044936  1  0.127676  -5.7e-05  0.906937  0.0  0.139032  -8.1e-05  0.969296  0.0  0.140978  -5.7e-05  0.967473  0.0  0.132125  0.137631  -0.000104  0.970587  0.0
H  H11  1  0.50326498  0.06377760  0.77903822  1  0.110312  1.8e-05  0.912756  0.0  0.120707  2e-06  0.978076  0.0  0.121257  7e-06  0.977887  0.0  0.123308  0.120496  6e-06  0.977564  0.0
H  H12  1  0.49673493  0.93622291  0.22096417  1  0.110296  1e-05  0.912778  0.0  0.120677  2e-06  0.97809  0.0  0.121224  7e-06  0.977904  0.0  0.123297  0.120465  6e-06  0.977578  0.0
H  H13  1  0.79379766  0.10956329  0.21975089  1  0.11906  -6e-06  0.9396  0.0  0.124743  -6.5e-05  1.002677  0.0  0.126416  -5.2e-05  1.000306  0.0  0.138761  0.123865  -6.5e-05  1.00386  0.0
H  H14  1  0.20620281  0.89043840  0.78025092  1  0.119109  1e-06  0.939558  0.0  0.124778  -6.5e-05  1.002656  0.0  0.126455  -5.3e-05  1.000282  0.0  0.138761  0.123905  -6.5e-05  1.003831  0.0
H  H15  1  0.67340907  0.10055114  0.60713110  1  0.118372  2e-06  0.940527  0.0  0.125376  -0.0  1.004477  0.0  0.128437  0.0  1.001559  0.0  0.133115  0.123069  2e-06  1.006867  0.0
H  H16  1  0.32658884  0.89944942  0.39286842  1  0.118351  -0.0  0.940544  0.0  0.125359  -0.0  1.004498  0.0  0.12842  0.0  1.001581  0.0  0.133138  0.123053  2e-06  1.006887  0.0
H  H17  1  0.01767471  0.64236179  0.90647797  1  0.115841  9e-06  0.960299  0.0  0.12232  1.8e-05  1.022053  0.0  0.125057  8e-06  1.023118  0.0  0.115214  0.120426  2.8e-05  1.021169  0.0
H  H18  1  0.98232614  0.35763642  0.09351803  1  0.11582  2.8e-05  0.96028  0.0  0.122306  1.8e-05  1.022061  0.0  0.125039  7e-06  1.023123  0.0  0.115225  0.120416  2.8e-05  1.021178  0.0
H  H19  1  0.79278499  0.47619668  0.99121384  1  0.127852  0.000128  0.949177  0.0  0.140184  0.000166  1.004994  0.0  0.143601  0.000122  1.001918  0.0  0.1168  0.13762  0.00021  1.007476  0.0
H  H20  1  0.20721640  0.52380267  0.00878536  1  0.127806  0.000134  0.949214  0.0  0.140175  0.000165  1.004984  0.0  0.143592  0.000121  1.001907  0.0  0.116801  0.13761  0.000209  1.007466  0.0
H  H21  1  0.06739447  0.52038469  0.67444818  1  0.1262  -8e-06  0.944526  0.0  0.134542  -7e-06  1.003211  0.0  0.13745  -5e-06  1.000351  0.0  0.134891  0.132279  -1e-05  1.005811  0.0
H  H22  1  0.93260381  0.47961237  0.32554838  1  0.126164  -3e-06  0.944553  0.0  0.134502  -8e-06  1.003252  0.0  0.13741  -5e-06  1.000392  0.0  0.134866  0.132239  -1e-05  1.005853  0.0
H  H23  1  0.77222744  0.00713437  0.79699701  1  0.126195  1.6e-05  0.939147  0.0  0.134239  -8e-05  1.00107  0.0  0.13653  -7.9e-05  0.997813  0.0  0.144448  0.132665  -6.2e-05  1.00362  0.0
H  H24  1  0.22777192  0.99286496  0.20300501  1  0.126182  2.1e-05  0.939187  0.0  0.134284  -8e-05  1.00103  0.0  0.136575  -7.9e-05  0.997773  0.0  0.144468  0.13271  -6.2e-05  1.00358  0.0
H  H25  1  0.89394884  0.26611478  0.54467172  1  0.330316  -7e-06  0.869908  0.0  0.311033  -6e-06  0.928547  0.0  0.319364  -5e-06  0.921541  0.0  0.324798  0.305227  -2.1e-05  0.933576  0.0
H  H26  1  0.10604898  0.73388344  0.45532613  1  0.330312  -1.4e-05  0.86994  0.0  0.311011  -6e-06  0.928604  0.0  0.319345  -5e-06  0.921599  0.0  0.324777  0.305205  -2.1e-05  0.933633  0.0
H  H27  1  0.79948980  0.74814768  0.02781861  1  0.441968  -0.000171  0.852434  -0.001  0.418293  0.000257  0.904739  0.0  0.429441  9.1e-05  0.888671  0.0  0.297192  0.410398  0.000502  0.916036  0.0
H  H28  1  0.20050856  0.25185169  0.97218245  1  0.441956  -0.000169  0.852448  -0.001  0.418296  0.000257  0.904741  0.0  0.429446  9.1e-05  0.888667  0.0  0.297186  0.4104  0.000502  0.91604  0.0
H  H29  1  0.90727096  0.83748501  0.17503809  1  0.433597  0.000754  0.861176  0.001  0.4122  0.001017  0.910344  0.001  0.422904  0.000762  0.894994  0.001  0.29578  0.404584  0.001267  0.92119  0.002
H  H30  1  0.09272841  0.16251434  0.82496299  1  0.433605  0.000758  0.861165  0.001  0.412211  0.001017  0.91033  0.001  0.422914  0.000762  0.894981  0.001  0.295786  0.404594  0.001267  0.921176  0.002
C  C31  1  0.59184344  0.16472965  0.86173773  1  -0.057966  -0.000191  3.611184  0.0  -0.136282  -0.000323  3.857719  0.0  -0.131616  -0.000258  3.867863  0.0  -0.036449  -0.138816  -0.000323  3.850276  0.0
C  C32  1  0.40815805  0.83527203  0.13826315  1  -0.058013  -0.000179  3.611296  0.0  -0.136235  -0.000325  3.85776  0.0  -0.131562  -0.000258  3.867895  0.0  -0.036435  -0.138774  -0.000323  3.850322  0.0
C  C33  1  0.76375352  0.09821591  0.11558418  1  0.18556  0.000365  3.653545  0.0  0.141127  -0.000788  3.94932  -0.001  0.153537  -0.000458  3.963683  0.0  0.150739  0.133213  -0.001054  3.937103  -0.001
C  C34  1  0.23624751  0.90178695  0.88441800  1  0.185415  0.000359  3.653639  0.0  0.140996  -0.000783  3.949383  -0.001  0.153403  -0.000456  3.963752  0.0  0.150711  0.133082  -0.001054  3.937171  -0.001
C  C35  1  0.74589705  0.21770321  0.67972590  1  0.113017  -1.6e-05  3.55403  0.0  0.063596  2.4e-05  3.806666  0.0  0.071151  1.3e-05  3.822013  0.0  0.074727  0.058655  -7.9e-05  3.796935  0.0
C  C36  1  0.25410232  0.78229615  0.32027422  1  0.11319  -5e-06  3.554155  0.0  0.063721  1.7e-05  3.806858  0.0  0.071277  1.2e-05  3.822206  0.0  0.074754  0.058779  -7.9e-05  3.797126  0.0
C  C37  1  0.71686605  0.27424267  0.80825576  1  0.045185  9.3e-05  3.697043  0.0  0.067404  1.7e-05  3.944499  0.0  0.061695  2.7e-05  3.967774  0.0  0.009769  0.070376  4.3e-05  3.929613  0.0
C  C38  1  0.28313387  0.72575784  0.19174568  1  0.045126  8.3e-05  3.697071  0.0  0.067326  2.4e-05  3.94453  0.0  0.061613  2.9e-05  3.967807  0.0  0.009725  0.070298  4.3e-05  3.929642  0.0
C  C39  1  0.94151837  0.52140900  0.84427388  1  -0.089345  7.6e-05  3.678951  0.0  -0.100668  2.9e-05  3.936553  0.0  -0.109134  1.7e-05  3.957426  0.0  -0.065127  -0.095281  7.8e-05  3.923039  0.0
C  C40  1  0.05848082  0.47858570  0.15572196  1  -0.089307  3.2e-05  3.678831  0.0  -0.100691  2.2e-05  3.936486  0.0  -0.109149  1.7e-05  3.957349  0.0  -0.065173  -0.095312  7.8e-05  3.922981  0.0
C  C41  1  0.81536468  0.42939522  0.89062244  1  -0.006621  -2.9e-05  3.597195  0.0  -0.038665  4.1e-05  3.844663  0.0  -0.032112  2.6e-05  3.858666  0.0  -0.04283  -0.042927  0.0001  3.835674  0.0
C  C42  1  0.18463662  0.57060176  0.10937699  1  -0.006596  -3.1e-05  3.597078  0.0  -0.03862  3.9e-05  3.844512  0.0  -0.032065  2.6e-05  3.858514  0.0  -0.042797  -0.04288  0.0001  3.835524  0.0
C  C43  1  0.96958535  0.45794425  0.71727722  1  0.172706  -4.8e-05  3.537915  0.0  0.129099  -3.7e-05  3.787397  0.0  0.138296  -1.7e-05  3.801415  0.0  0.082908  0.122726  -1.3e-05  3.779149  0.0
C  C44  1  0.03041293  0.54205281  0.28271933  1  0.172705  -5.9e-05  3.537849  0.0  0.129116  -2.5e-05  3.787324  0.0  0.138313  -1.4e-05  3.801341  0.0  0.082917  0.122739  -1.3e-05  3.779079  0.0
C  C45  1  0.75440259  0.04412641  0.90068317  1  0.191429  0.000224  3.587857  0.0  0.118589  -0.000704  3.858231  0.0  0.135613  -0.000252  3.868874  0.0  0.169692  0.107216  -0.000951  3.851164  -0.001
C  C46  1  0.24559678  0.95587293  0.09931886  1  0.191403  0.00021  3.587807  0.0  0.118587  -0.000706  3.858177  0.0  0.135607  -0.000254  3.868825  0.0  0.169736  0.107211  -0.000951  3.851116  -0.001
N  N47  1  0.66843074  0.14571639  0.07890400  1  -0.232549  -0.00315  2.827377  -0.003  -0.244326  -0.002118  3.108619  -0.002  -0.253586  -0.00149  3.123885  -0.001  -0.209648  -0.236218  -0.00275  3.096148  -0.003
N  N48  1  0.33157286  0.85428761  0.92109857  1  -0.232534  -0.003169  2.827345  -0.003  -0.24425  -0.002121  3.108597  -0.002  -0.25351  -0.00149  3.123867  -0.001  -0.209593  -0.236144  -0.002749  3.096124  -0.003
N  N49  1  0.87050962  0.30967691  0.63947982  1  -0.193359  1.4e-05  3.46768  0.0  -0.120766  1e-05  3.690787  0.0  -0.136083  6e-06  3.707019  0.0  -0.334064  -0.110724  -1.4e-05  3.680248  0.0
N  N50  1  0.12949123  0.69032128  0.36051808  1  -0.193399  3.4e-05  3.467861  0.0  -0.120782  7e-06  3.690964  0.0  -0.136104  4e-06  3.707199  0.0  -0.334038  -0.110737  -1.4e-05  3.680424  0.0
N  N51  1  0.81976899  0.03538777  0.00826799  1  -0.361268  -0.017977  3.284187  -0.017  -0.334125  -0.024011  3.607447  -0.022  -0.368827  -0.020404  3.624648  -0.019  -0.355888  -0.308702  -0.025633  3.593556  -0.023
N  N52  1  0.18023148  0.96461391  0.99173382  1  -0.361191  -0.017973  3.284132  -0.017  -0.334073  -0.02401  3.607391  -0.022  -0.368776  -0.020401  3.624598  -0.019  -0.355918  -0.308654  -0.025632  3.593503  -0.023
N  N53  1  0.66451499  0.11046922  0.94248181  1  0.038984  -0.000442  3.553917  0.0  0.15589  -0.000813  3.748759  -0.001  0.144158  -0.000617  3.773618  -0.001  -0.128763  0.16184  -0.000913  3.734327  -0.001
N  N54  1  0.33548704  0.88953362  0.05752038  1  0.039108  -0.000433  3.553936  0.0  0.155843  -0.000809  3.748941  -0.001  0.14411  -0.000615  3.773802  -0.001  -0.128813  0.161808  -0.000913  3.734482  -0.001
O  O55  1  0.95625511  0.69713393  0.56515859  1  -0.677776  -0.001196  1.503835  -0.001  -0.676786  -0.00114  1.768026  -0.001  -0.701152  -0.000684  1.757621  -0.001  -0.500503  -0.659556  -0.001923  1.776728  -0.002
O  O56  1  0.04374426  0.30286543  0.43484153  1  -0.677712  -0.001209  1.503792  -0.001  -0.676761  -0.001154  1.768  -0.001  -0.701123  -0.000696  1.757594  -0.001  -0.500494  -0.659529  -0.001922  1.776703  -0.002
O  O57  1  0.11897982  0.17614553  0.66815765  1  -0.710289  0.000882  1.495741  0.001  -0.707822  0.000827  1.746856  0.001  -0.734041  0.000567  1.737406  0.0  -0.516686  -0.689612  0.000628  1.754978  0.0
O  O58  1  0.88102020  0.82385736  0.33184262  1  -0.710285  0.000885  1.495756  0.001  -0.707815  0.000826  1.746874  0.001  -0.734035  0.00057  1.737422  0.0  -0.516668  -0.689606  0.000628  1.754999  0.0
O  O59  1  0.62590747  0.62155275  0.92736370  1  -0.702878  0.000216  1.495054  0.0  -0.690469  0.000304  1.744819  0.0  -0.717307  0.000198  1.733427  0.0  -0.507137  -0.672038  0.000209  1.753874  0.0
O  O60  1  0.37409651  0.37844776  0.07263401  1  -0.702866  0.000203  1.495096  0.0  -0.690446  0.000297  1.744847  0.0  -0.71729  0.000189  1.733454  0.0  -0.507097  -0.672015  0.000209  1.753902  0.0
O  O61  1  0.47995567  0.19484248  0.49745329  1  -0.788334  -1.3e-05  1.618401  0.0  -0.784111  -2.8e-05  1.89545  0.0  -0.81635  7e-06  1.885886  0.0  -0.550568  -0.760905  -0.000217  1.902619  0.0
O  O62  1  0.52004416  0.80515571  0.50254554  1  -0.788384  -1.2e-05  1.618424  0.0  -0.784152  -2.5e-05  1.895465  0.0  -0.816386  5e-06  1.885895  0.0  -0.550613  -0.760944  -0.000217  1.902634  0.0
O  O63  1  0.25491845  0.98701158  0.60281334  1  -0.683989  5.9e-05  1.445424  0.0  -0.674638  -3.7e-05  1.6915  0.0  -0.700691  -2.3e-05  1.680381  0.0  -0.511402  -0.656003  -6.9e-05  1.699038  0.0
O  O64  1  0.74507992  0.01298780  0.39718583  1  -0.683984  6.3e-05  1.445428  0.0  -0.674656  -3.7e-05  1.691515  0.0  -0.700708  -2.2e-05  1.680394  0.0  -0.511404  -0.65602  -6.8e-05  1.699055  0.0
O  O65  1  0.32534230  0.53260106  0.83676062  1  -0.655851  7e-06  1.47689  0.0  -0.659902  1e-06  1.741438  0.0  -0.685015  9e-06  1.732729  0.0  -0.496949  -0.642363  0.0001  1.748805  0.0
O  O66  1  0.67465909  0.46739827  0.16324048  1  -0.655886  1e-05  1.476898  0.0  -0.659924  1.6e-05  1.741433  0.0  -0.685043  1.8e-05  1.732723  0.0  -0.496974  -0.642386  0.0001  1.748801  0.0
O  O67  1  0.55761805  0.69629864  0.70543479  1  -0.947094  9.3e-05  1.807462  0.0  -0.942129  4.9e-05  2.106849  0.0  -0.984035  6.3e-05  2.100787  0.0  -0.594241  -0.910899  -4e-05  2.111338  0.0
O  O68  1  0.44238077  0.30369955  0.29456497  1  -0.947176  9.8e-05  1.807503  0.0  -0.942214  5.5e-05  2.106898  0.0  -0.9841  6e-05  2.100776  0.0  -0.594264  -0.910981  -4e-05  2.111383  0.0
O  O69  1  0.88605175  0.82058389  0.80846283  1  -0.726552  -0.033115  1.656765  -0.033  -0.730406  -0.020914  1.958137  -0.02  -0.763845  -0.01733  1.944498  -0.016  -0.512966  -0.707695  -0.024946  1.969251  -0.024
O  O70  1  0.11394837  0.17942136  0.19153722  1  -0.726535  -0.033103  1.656764  -0.033  -0.73041  -0.020912  1.958164  -0.02  -0.763851  -0.017327  1.944525  -0.016  -0.512977  -0.707703  -0.024945  1.969285  -0.024
O  O71  1  0.73565528  0.34543223  0.39477569  1  -0.640992  -6.5e-05  1.466281  0.0  -0.632457  -4.8e-05  1.718623  0.0  -0.655005  -1.8e-05  1.707783  0.0  -0.491112  -0.616718  -2.5e-05  1.726891  0.0
O  O72  1  0.26434565  0.65456827  0.60522577  1  -0.641061  -7.2e-05  1.466311  0.0  -0.632508  -4.4e-05  1.718625  0.0  -0.655048  -1e-05  1.707784  0.0  -0.491112  -0.616768  -2.5e-05  1.726896  0.0
O  O73  1  0.62852152  0.58637229  0.44776386  1  -1.22352  -0.003426  1.882534  -0.004  -1.201693  -0.001795  2.160506  -0.002  -1.249685  -0.001238  2.159505  -0.001  -0.619276  -1.165235  -0.002516  2.160716  -0.002
O  O74  1  0.37147573  0.41362473  0.55223741  1  -1.22351  -0.003404  1.882462  -0.004  -1.201682  -0.001797  2.160418  -0.002  -1.249677  -0.00124  2.159431  -0.001  -0.619306  -1.165227  -0.002516  2.160632  -0.002
O  O75  1  0.68280463  0.50885539  0.64304065  1  -0.95006  -0.001584  1.828103  -0.002  -0.944686  -0.001003  2.12552  -0.001  -0.987389  -0.000645  2.124131  -0.001  -0.593664  -0.912946  -0.001182  2.126953  -0.001
O  O76  1  0.31719676  0.49114393  0.35696140  1  -0.950028  -0.001562  1.828097  -0.002  -0.944654  -0.001003  2.125519  -0.001  -0.987369  -0.000643  2.124147  -0.001  -0.593653  -0.912915  -0.001182  2.126951  -0.001
O  O77  1  0.43281394  0.31514621  0.74453052  1  -0.865361  -7.5e-05  1.743221  0.0  -0.859447  -6.6e-05  2.03782  0.0  -0.900764  -3.8e-05  2.033141  0.0  -0.58604  -0.829135  -3.1e-05  2.041081  0.0
O  O78  1  0.56718589  0.68485197  0.25546926  1  -0.865358  -5.8e-05  1.743227  0.0  -0.859445  -6.7e-05  2.037832  0.0  -0.900761  -3.9e-05  2.033149  0.0  -0.586038  -0.829146  -3.1e-05  2.041127  0.0
O  O79  1  0.90763203  0.82093104  0.07675324  1  -0.801064  0.068381  1.911381  0.072  -0.770597  0.046851  2.098038  0.051  -0.803482  0.03856  2.066467  0.042  -0.560008  -0.744632  0.053165  2.119048  0.057
O  O80  1  0.09236789  0.17906949  0.92324726  1  -0.801059  0.068369  1.911392  0.072  -0.770614  0.04685  2.097996  0.051  -0.803497  0.038559  2.066427  0.042  -0.560008  -0.744649  0.053165  2.119008  0.057
O  O81  1  0.80799127  0.88489352  0.58968273  1  -0.863606  0.000311  1.738565  0.0  -0.860623  -0.000294  2.035329  0.0  -0.900728  -0.000132  2.028995  0.0  -0.586692  -0.831397  -0.000258  2.040083  0.0
O  O82  1  0.19200755  0.11510467  0.41031703  1  -0.863609  0.000306  1.738544  0.0  -0.860644  -0.000296  2.035312  0.0  -0.900748  -0.00013  2.028977  0.0  -0.586712  -0.831418  -0.000258  2.040067  0.0
