# generated using pymatgen
data_Na4ZnH10(C6O7)2
_symmetry_space_group_name_H-M   'P 1'
_cell_length_a   7.96264099
_cell_length_b   8.68477386
_cell_length_c   12.54494140
_cell_angle_alpha   89.99996246
_cell_angle_beta   90.00004070
_cell_angle_gamma   113.97461806
_symmetry_Int_Tables_number   1
_chemical_formula_structural   Na4ZnH10(C6O7)2
_chemical_formula_sum   'Na8 Zn2 H20 C24 O28'
_cell_volume   792.68393506
_cell_formula_units_Z   2
loop_
 _symmetry_equiv_pos_site_id
 _symmetry_equiv_pos_as_xyz
  1  'x, y, z'
loop_
 _atom_site_type_symbol
 _atom_site_label
 _atom_site_symmetry_multiplicity
 _atom_site_fract_x
 _atom_site_fract_y
 _atom_site_fract_z
 _atom_site_occupancy
 _atom_site_hle17_bader_spin_density
 _atom_site_hle17_ddec_charge
 _atom_site_hle17_ddec_spin_density
 _atom_site_hle17_ddec_sum_bond_order
 _atom_site_hle17_magmom
 _atom_site_hse06_10hf_bader_spin_density
 _atom_site_hse06_10hf_ddec_charge
 _atom_site_hse06_10hf_ddec_spin_density
 _atom_site_hse06_10hf_ddec_sum_bond_order
 _atom_site_hse06_10hf_magmom
 _atom_site_hse06_bader_spin_density
 _atom_site_hse06_ddec_charge
 _atom_site_hse06_ddec_spin_density
 _atom_site_hse06_ddec_sum_bond_order
 _atom_site_hse06_magmom
 _atom_site_pbe_bader_spin_density
 _atom_site_pbe_cm5_charge
 _atom_site_pbe_ddec_charge
 _atom_site_pbe_ddec_spin_density
 _atom_site_pbe_ddec_sum_bond_order
 _atom_site_pbe_magmom
Na  Na0  1  0.05544288  0.15983923  0.87793632  1  0  0.920541  0  0.328379  0  0  0.874283  0  0.476027  0  0  0.886872  0  0.452484  0  0  0.652642  0.864963  0  0.492977  0
Na  Na1  1  0.94455696  0.34016036  0.37793654  1  0  0.920546  0  0.328371  0  0  0.874281  0  0.476036  0  0  0.886864  0  0.452503  0  0  0.652632  0.864957  0  0.492987  0
Na  Na2  1  0.94455781  0.84016069  0.12206357  1  0  0.92054  0  0.328376  0  0  0.874276  0  0.476035  0  0  0.886868  0  0.452487  0  0  0.652641  0.864956  0  0.492987  0
Na  Na3  1  0.05544192  0.65983830  0.62206335  1  0  0.92054  0  0.32838  0  0  0.874295  0  0.476007  0  0  0.88688  0  0.452476  0  0  0.652644  0.864974  0  0.492958  0
Na  Na4  1  0.89945608  0.46278890  0.88386871  1  0  0.911051  0  0.37393  0  0  0.873388  0  0.5191  0  0  0.883535  0  0.49838  0  0  0.69884  0.865604  0  0.534296  0
Na  Na5  1  0.10054250  0.03721068  0.38386869  1  0  0.911057  0  0.373927  0  0  0.873389  0  0.519105  0  0  0.883534  0  0.498384  0  0  0.698842  0.865603  0  0.5343  0
Na  Na6  1  0.10054280  0.53720976  0.11613117  1  0  0.911057  0  0.373925  0  0  0.873391  0  0.519099  0  0  0.883538  0  0.498378  0  0  0.698843  0.865608  0  0.534294  0
Na  Na7  1  0.89945819  0.96278924  0.61613120  1  0  0.911061  0  0.373921  0  0  0.873387  0  0.519105  0  0  0.883536  0  0.498383  0  0  0.698842  0.865601  0  0.5343  0
Zn  Zn8  1  0.49999993  0.49999980  0.99999989  1  0  1.139875  0  1.807534  0  0  0.987622  0  2.25774  0  0  1.034888  0  2.197314  0  0  0.69109  0.954137  0  2.299505  0
Zn  Zn9  1  0.50000002  0.99999971  0.50000006  1  0  1.139869  0  1.80757  0  0  0.987605  0  2.257792  0  0  1.034874  0  2.197365  0  0  0.691077  0.954117  0  2.299556  0
H  H10  1  0.31132714  0.07871821  0.18714082  1  0  0.122443  0  0.966839  0  0  0.132199  0  1.034909  0  0  0.13633  0  1.03212  0  0  0.113813  0.129243  0  1.037045  0
H  H11  1  0.68867254  0.42128149  0.68714077  1  0  0.12244  0  0.966864  0  0  0.132201  0  1.03491  0  0  0.136335  0  1.032117  0  0  0.113818  0.129243  0  1.037047  0
H  H12  1  0.68867174  0.92128045  0.81285986  1  0  0.122454  0  0.966859  0  0  0.13222  0  1.034897  0  0  0.136352  0  1.032106  0  0  0.113822  0.129265  0  1.037038  0
H  H13  1  0.31132689  0.57871843  0.31285911  1  0  0.122446  0  0.966836  0  0  0.132201  0  1.034904  0  0  0.136334  0  1.032113  0  0  0.113814  0.129245  0  1.03704  0
H  H14  1  0.46360922  0.21252611  0.28095075  1  0  0.135649  0  0.928174  0  0  0.148272  0  0.98793  0  0  0.151359  0  0.986733  0  0  0.115387  0.146088  0  0.988879  0
H  H15  1  0.53639054  0.28747354  0.78095069  1  0  0.135661  0  0.928172  0  0  0.14827  0  0.987927  0  0  0.151357  0  0.98673  0  0  0.115386  0.146085  0  0.988878  0
H  H16  1  0.53639022  0.78747381  0.71904914  1  0  0.135669  0  0.928164  0  0  0.148283  0  0.98792  0  0  0.15137  0  0.986721  0  0  0.115388  0.146101  0  0.988871  0
H  H17  1  0.46360890  0.71252638  0.21904919  1  0  0.135646  0  0.928175  0  0  0.14827  0  0.987931  0  0  0.151357  0  0.986735  0  0  0.115387  0.146086  0  0.988883  0
H  H18  1  0.69285433  0.10806262  0.20351005  1  0  0.139764  0  0.951636  0  0  0.151956  0  1.012839  0  0  0.155171  0  1.011348  0  0  0.118425  0.149645  0  1.013995  0
H  H19  1  0.30714537  0.39193708  0.70350984  1  0  0.139761  0  0.951618  0  0  0.151964  0  1.012822  0  0  0.155179  0  1.011329  0  0  0.118434  0.149652  0  1.013982  0
H  H20  1  0.30714385  0.89193730  0.79649063  1  0  0.139796  0  0.951605  0  0  0.151956  0  1.012817  0  0  0.155172  0  1.011325  0  0  0.118437  0.149646  0  1.013974  0
H  H21  1  0.69285533  0.60806285  0.29649004  1  0  0.13976  0  0.951637  0  0  0.151948  0  1.012838  0  0  0.155164  0  1.011347  0  0  0.118424  0.149637  0  1.013997  0
H  H22  1  0.52240234  0.98854619  0.11107813  1  0  0.122711  0  0.9338  0  0  0.135544  0  0.9943  0  0  0.137828  0  0.99399  0  0  0.107674  0.133834  0  0.994718  0
H  H23  1  0.47759794  0.51145407  0.61107817  1  0  0.122713  0  0.933784  0  0  0.135553  0  0.994286  0  0  0.137838  0  0.993974  0  0  0.10768  0.133842  0  0.994705  0
H  H24  1  0.47759710  0.01145373  0.88892175  1  0  0.122734  0  0.933797  0  0  0.135548  0  0.994285  0  0  0.137832  0  0.993973  0  0  0.107678  0.133838  0  0.994704  0
H  H25  1  0.52240149  0.48854585  0.38892171  1  0  0.122733  0  0.933781  0  0  0.135536  0  0.994309  0  0  0.13782  0  0.993998  0  0  0.107667  0.133826  0  0.994728  0
H  H26  1  0.38369556  0.15956187  0.00008534  1  0  0.388938  0  0.905805  0  0  0.362159  0  0.976879  0  0  0.373822  0  0.964905  0  0  0.298132  0.353982  0  0.985197  0
H  H27  1  0.61630396  0.34043796  0.50008530  1  0  0.388935  0  0.905809  0  0  0.362153  0  0.976882  0  0  0.373816  0  0.964908  0  0  0.298132  0.353976  0  0.9852  0
H  H28  1  0.61630387  0.84043805  0.99991454  1  0  0.388946  0  0.905795  0  0  0.362166  0  0.976868  0  0  0.373828  0  0.964895  0  0  0.298136  0.353989  0  0.985187  0
H  H29  1  0.38369673  0.65956196  0.49991459  1  0  0.388942  0  0.905802  0  0  0.362159  0  0.976878  0  0  0.373821  0  0.964906  0  0  0.298133  0.353982  0  0.985197  0
C  C30  1  0.29580700  0.31557636  0.20130504  1  0  0.749903  0  3.822183  0  0  0.70734  0  4.118632  0  0  0.740659  0  4.109465  0  0  0.21518  0.684688  0  4.124232  0
C  C31  1  0.70419394  0.18442334  0.70130511  1  0  0.749876  0  3.822289  0  0  0.707316  0  4.118712  0  0  0.740636  0  4.109548  0  0  0.215187  0.684662  0  4.124312  0
C  C32  1  0.70419188  0.68442230  0.79869405  1  0  0.749895  0  3.82229  0  0  0.707343  0  4.118696  0  0  0.740661  0  4.10953  0  0  0.215206  0.684695  0  4.124295  0
C  C33  1  0.29580675  0.81557658  0.29869478  1  0  0.74986  0  3.822187  0  0  0.707306  0  4.118624  0  0  0.740627  0  4.10946  0  0  0.215166  0.684653  0  4.124222  0
C  C34  1  0.72022123  0.42150152  0.15172816  1  0  0.610387  0  3.891542  0  0  0.5659  0  4.188923  0  0  0.597715  0  4.180752  0  0  0.198757  0.544211  0  4.194016  0
C  C35  1  0.27978079  0.07850073  0.65172967  1  0  0.610491  0  3.891377  0  0  0.565983  0  4.188788  0  0  0.597798  0  4.180617  0  0  0.198808  0.544295  0  4.193883  0
C  C36  1  0.27977876  0.57849966  0.84827173  1  0  0.610339  0  3.891534  0  0  0.565805  0  4.188991  0  0  0.59762  0  4.180821  0  0  0.198712  0.544116  0  4.194083  0
C  C37  1  0.72022046  0.92150045  0.34827021  1  0  0.610488  0  3.891388  0  0  0.565967  0  4.188818  0  0  0.597783  0  4.180649  0  0  0.198788  0.544279  0  4.193912  0
C  C38  1  0.40896884  0.21002004  0.20029353  1  0  -0.382878  0  3.635622  0  0  -0.41976  0  3.864589  0  0  -0.427899  0  3.871258  0  0  -0.167716  -0.414232  0  3.860243  0
C  C39  1  0.59103211  0.28997966  0.70029349  1  0  -0.382926  0  3.635686  0  0  -0.419755  0  3.864575  0  0  -0.427893  0  3.871239  0  0  -0.167729  -0.414223  0  3.86023  0
C  C40  1  0.59103186  0.78997988  0.79970636  1  0  -0.382926  0  3.63564  0  0  -0.419793  0  3.864568  0  0  -0.427928  0  3.871229  0  0  -0.167737  -0.414281  0  3.860245  0
C  C41  1  0.40896858  0.71002026  0.29970639  1  0  -0.382875  0  3.635622  0  0  -0.419759  0  3.864583  0  0  -0.4279  0  3.871252  0  0  -0.167719  -0.414233  0  3.860243  0
C  C42  1  0.56716393  0.25031131  0.11992969  1  0  0.264257  0  3.578974  0  0  0.263133  0  3.813583  0  0  0.267356  0  3.825507  0  0  0.067141  0.260128  0  3.805506  0
C  C43  1  0.43283624  0.24968970  0.61992960  1  0  0.264246  0  3.578896  0  0  0.2631  0  3.813538  0  0  0.267326  0  3.825462  0  0  0.06713  0.260094  0  3.805458  0
C  C44  1  0.43283550  0.74968861  0.88007100  1  0  0.264264  0  3.579006  0  0  0.263119  0  3.813601  0  0  0.267343  0  3.825525  0  0  0.067154  0.26012  0  3.805525  0
C  C45  1  0.56716375  0.75031148  0.38007029  1  0  0.264249  0  3.578971  0  0  0.263128  0  3.813574  0  0  0.267351  0  3.8255  0  0  0.067157  0.260123  0  3.805495  0
C  C46  1  0.63737456  0.11124516  0.12379743  1  0  -0.362032  0  3.630294  0  0  -0.401446  0  3.860779  0  0  -0.409024  0  3.86813  0  0  -0.166284  -0.396143  0  3.855748  0
C  C47  1  0.36262381  0.38875458  0.62379725  1  0  -0.362004  0  3.630254  0  0  -0.401454  0  3.860806  0  0  -0.409027  0  3.868148  0  0  -0.1663  -0.39615  0  3.855776  0
C  C48  1  0.36262432  0.88875350  0.87620326  1  0  -0.362107  0  3.630374  0  0  -0.401403  0  3.860744  0  0  -0.40898  0  3.868089  0  0  -0.166297  -0.396099  0  3.855711  0
C  C49  1  0.63737437  0.61124533  0.37620264  1  0  -0.362044  0  3.630355  0  0  -0.401409  0  3.860812  0  0  -0.408988  0  3.86816  0  0  -0.166271  -0.396106  0  3.85578  0
C  C50  1  0.79061343  0.13264647  0.04539853  1  0  0.757493  0  3.813018  0  0  0.713809  0  4.112504  0  0  0.747356  0  4.101725  0  0  0.215532  0.690965  0  4.119218  0
C  C51  1  0.20938613  0.36735332  0.54539988  1  0  0.75751  0  3.812942  0  0  0.713808  0  4.112465  0  0  0.747357  0  4.101682  0  0  0.215547  0.690962  0  4.119178  0
C  C52  1  0.20938671  0.86735219  0.95460136  1  0  0.757505  0  3.813001  0  0  0.713782  0  4.112501  0  0  0.747328  0  4.101722  0  0  0.215534  0.690937  0  4.119215  0
C  C53  1  0.79061205  0.63264659  0.45460080  1  0  0.757506  0  3.813042  0  0  0.713793  0  4.11256  0  0  0.747342  0  4.101778  0  0  0.215533  0.690948  0  4.119272  0
O  O54  1  0.50667269  0.26148605  0.01249593  1  0  -0.613481  0  2.120943  0  0  -0.547383  0  2.361411  0  0  -0.567162  0  2.346333  0  0  -0.377814  -0.533623  0  2.3718  0
O  O55  1  0.49332865  0.23851503  0.51249587  1  0  -0.613486  0  2.120887  0  0  -0.547347  0  2.361315  0  0  -0.567138  0  2.346245  0  0  -0.3778  -0.533588  0  2.371702  0
O  O56  1  0.49332674  0.73851387  0.98750396  1  0  -0.613459  0  2.120985  0  0  -0.547365  0  2.361459  0  0  -0.567143  0  2.346382  0  0  -0.377803  -0.533603  0  2.371846  0
O  O57  1  0.50667260  0.76148615  0.48750401  1  0  -0.61349  0  2.120948  0  0  -0.547374  0  2.361402  0  0  -0.567152  0  2.346322  0  0  -0.377821  -0.533614  0  2.37179  0
O  O58  1  0.72423080  0.55374109  0.10368326  1  0  -0.691984  0  2.049877  0  0  -0.635833  0  2.320563  0  0  -0.660325  0  2.303353  0  0  -0.367956  -0.618723  0  2.331952  0
O  O59  1  0.27577198  0.94625918  0.60368381  1  0  -0.692064  0  2.049762  0  0  -0.635911  0  2.320468  0  0  -0.660413  0  2.303278  0  0  -0.368016  -0.618799  0  2.331854  0
O  O60  1  0.27576989  0.44625883  0.89631662  1  0  -0.691999  0  2.049837  0  0  -0.635828  0  2.32053  0  0  -0.660318  0  2.30332  0  0  -0.367962  -0.618718  0  2.331921  0
O  O61  1  0.72422871  0.05374074  0.39631607  1  0  -0.692068  0  2.049771  0  0  -0.635908  0  2.320479  0  0  -0.660403  0  2.303274  0  0  -0.368008  -0.618795  0  2.331862  0
O  O62  1  0.82743927  0.42411466  0.22598042  1  0  -0.698444  0  1.964811  0  0  -0.662883  0  2.213726  0  0  -0.683755  0  2.201233  0  0  -0.421671  -0.648351  0  2.222078  0
O  O63  1  0.17255989  0.07588376  0.72598030  1  0  -0.698457  0  1.96482  0  0  -0.662894  0  2.213761  0  0  -0.683766  0  2.201269  0  0  -0.421667  -0.648365  0  2.222114  0
O  O64  1  0.17256017  0.57588526  0.77401947  1  0  -0.69839  0  1.964864  0  0  -0.66282  0  2.213804  0  0  -0.6837  0  2.201327  0  0  -0.421635  -0.648288  0  2.222156  0
O  O65  1  0.82743955  0.92411616  0.27401959  1  0  -0.698455  0  1.964824  0  0  -0.66289  0  2.213773  0  0  -0.683762  0  2.201277  0  0  -0.421669  -0.648362  0  2.222127  0
O  O66  1  0.17962957  0.28512975  0.27579321  1  0  -0.735812  0  1.90591  0  0  -0.701271  0  2.15746  0  0  -0.721645  0  2.142187  0  0  -0.415957  -0.686962  0  2.167612  0
O  O67  1  0.82036963  0.21486864  0.77579332  1  0  -0.735797  0  1.905948  0  0  -0.701264  0  2.157496  0  0  -0.721636  0  2.142216  0  0  -0.415953  -0.68696  0  2.167659  0
O  O68  1  0.82036931  0.71486891  0.72420588  1  0  -0.735805  0  1.905956  0  0  -0.701272  0  2.15749  0  0  -0.721653  0  2.142233  0  0  -0.415973  -0.686963  0  2.167641  0
O  O69  1  0.17963107  0.78513128  0.22420657  1  0  -0.735792  0  1.905922  0  0  -0.701248  0  2.157462  0  0  -0.721624  0  2.142182  0  0  -0.415942  -0.686947  0  2.167629  0
O  O70  1  0.31759804  0.42695873  0.12942346  1  0  -0.722883  0  2.069857  0  0  -0.660487  0  2.340967  0  0  -0.687412  0  2.326015  0  0  -0.392417  -0.641563  0  2.350608  0
O  O71  1  0.68240467  0.07304228  0.62942197  1  0  -0.722848  0  2.069873  0  0  -0.660482  0  2.341024  0  0  -0.687392  0  2.326043  0  0  -0.392428  -0.641558  0  2.350668  0
O  O72  1  0.68240266  0.57304119  0.87057723  1  0  -0.722863  0  2.069877  0  0  -0.660485  0  2.340999  0  0  -0.687404  0  2.326038  0  0  -0.392422  -0.641561  0  2.35064  0
O  O73  1  0.31759532  0.92695890  0.37057871  1  0  -0.722848  0  2.069798  0  0  -0.660481  0  2.340964  0  0  -0.687386  0  2.325971  0  0  -0.392415  -0.641557  0  2.350607  0
O  O74  1  0.80132770  0.99749864  0.01015225  1  0  -0.727498  0  1.944533  0  0  -0.674614  0  2.177467  0  0  -0.698787  0  2.164512  0  0  -0.388726  -0.657694  0  2.185926  0
O  O75  1  0.19867305  0.50250295  0.51015217  1  0  -0.727532  0  1.944463  0  0  -0.67464  0  2.177398  0  0  -0.698811  0  2.164441  0  0  -0.388749  -0.657721  0  2.185857  0
O  O76  1  0.19867300  0.00250129  0.98984763  1  0  -0.727521  0  1.94448  0  0  -0.674639  0  2.17743  0  0  -0.698811  0  2.164474  0  0  -0.388756  -0.657718  0  2.185889  0
O  O77  1  0.80132694  0.49749823  0.48984771  1  0  -0.727522  0  1.944485  0  0  -0.674638  0  2.177428  0  0  -0.698808  0  2.164469  0  0  -0.388756  -0.65772  0  2.185887  0
O  O78  1  0.90401676  0.27839005  0.01890816  1  0  -0.75807  0  1.942794  0  0  -0.718112  0  2.19416  0  0  -0.73944  0  2.179741  0  0  -0.448517  -0.703115  0  2.203727  0
O  O79  1  0.09598403  0.22160977  0.51890794  1  0  -0.758064  0  1.942795  0  0  -0.718081  0  2.194151  0  0  -0.739411  0  2.179735  0  0  -0.448502  -0.703085  0  2.203716  0
O  O80  1  0.09598393  0.72160987  0.98109252  1  0  -0.758062  0  1.942808  0  0  -0.718097  0  2.194189  0  0  -0.739426  0  2.179772  0  0  -0.448512  -0.703099  0  2.203755  0
O  O81  1  0.90401540  0.77839015  0.48109195  1  0  -0.758063  0  1.942849  0  0  -0.718083  0  2.19421  0  0  -0.739412  0  2.179794  0  0  -0.448493  -0.703087  0  2.203776  0
