# generated using pymatgen
data_Zn8H33C76Cl5O26
_symmetry_space_group_name_H-M   'P 1'
_cell_length_a   18.25619003
_cell_length_b   18.27105780
_cell_length_c   18.43294999
_cell_angle_alpha   89.79136879
_cell_angle_beta   119.74424283
_cell_angle_gamma   119.98055956
_symmetry_Int_Tables_number   1
_chemical_formula_structural   Zn8H33C76Cl5O26
_chemical_formula_sum   'Zn8 H33 C76 Cl5 O26'
_cell_volume   4373.39749575
_cell_formula_units_Z   1
loop_
 _symmetry_equiv_pos_site_id
 _symmetry_equiv_pos_as_xyz
  1  'x, y, z'
loop_
 _atom_site_type_symbol
 _atom_site_label
 _atom_site_symmetry_multiplicity
 _atom_site_fract_x
 _atom_site_fract_y
 _atom_site_fract_z
 _atom_site_occupancy
 _atom_site_pbe_bader_charge
 _atom_site_pbe_bader_spin_density
 _atom_site_pbe_cm5_charge
 _atom_site_pbe_ddec_charge
 _atom_site_pbe_ddec_spin_density
 _atom_site_pbe_ddec_sum_bond_order
 _atom_site_pbe_magmom
Zn  Zn0  1  0.41291695  0.54428359  0.95685070  1  1.300855  0  0.669817  0.959208  0  2.389787  0
Zn  Zn1  1  0.58180932  0.54606075  0.13090232  1  1.306489  0  0.668021  0.97523  0  2.362234  0
Zn  Zn2  1  0.59165520  0.54582781  0.95924602  1  1.321152  0  0.670329  0.979699  0  2.324658  0
Zn  Zn3  1  0.41614164  0.37020262  0.95757809  1  1.300563  0  0.669092  0.962115  0  2.36295  0
Zn  Zn4  1  0.58484301  0.95640252  0.54042557  1  1.315724  0  0.669829  0.963684  0  2.362618  0
Zn  Zn5  1  0.40697185  0.95384135  0.53835322  1  1.306211  0  0.673381  0.962614  0  2.366923  0
Zn  Zn6  1  0.41129949  0.96271781  0.36769726  1  1.31802  0  0.67301  0.975605  0  2.342154  0
Zn  Zn7  1  0.58626163  0.13119053  0.54547750  1  1.302706  0  0.671434  0.965638  0  2.38717  0
H  H8  1  0.13533670  0.51181119  0.61952889  1  0.055524  0  0.104958  0.102168  0  0.985098  0
H  H9  1  0.36778322  0.18228184  0.59631778  1  0.091776  0  0.110359  0.113461  0  0.978374  0
H  H10  1  0.64720054  0.20286929  0.10591460  1  0.050773  0  0.10341  0.103671  0  0.991892  0
H  H11  1  0.46632227  0.26222093  0.35622329  1  0.083389  0  0.11159  0.116335  0  0.977421  0
H  H12  1  0.89526127  0.79113872  0.15816305  1  0.07184  0  0.109407  0.112021  0  0.98013  0
H  H13  1  0.92435381  0.45998298  0.30888788  1  0.078363  0  0.106932  0.120298  0  0.985996  0
H  H14  1  0.11403990  0.55505192  0.37741560  1  0.078863  0  0.1072  0.10475  0  0.986111  0
H  H15  1  0.08679912  0.89073641  0.24524381  1  0.074204  0  0.112476  0.116366  0  0.978328  0
H  H16  1  0.36124968  0.59796804  0.17356280  1  0.059717  0  0.109054  0.111162  0  0.979924  0
H  H17  1  0.78375977  0.96726340  0.22945374  1  0.056619  0  0.106028  0.117167  0  0.988361  0
H  H18  1  0.78464464  0.05963454  0.33015716  1  0.064112  0  0.102137  0.098098  0  1.001855  0
H  H19  1  0.13054982  0.60999606  0.52462297  1  0.062991  0  0.100154  0.09822  0  1.005756  0
H  H20  1  0.90671224  0.08232502  0.48244888  1  0.096471  0  0.101636  0.111929  0  1.019544  0
H  H21  1  0.80940968  0.08657323  0.53651217  1  0.081838  0  0.101974  0.108577  0  1.013509  0
H  H22  1  0.90069739  0.32251007  0.91867396  1  0.062518  0  0.098034  0.093344  0  1.020633  0
H  H23  1  0.19033701  0.40737785  0.96345502  1  0.040149  0  0.100656  0.104015  0  1.014958  0
H  H24  1  0.65605307  0.76715349  0.85723917  1  0.094167  0  0.109594  0.115231  0  0.986051  0
H  H25  1  0.09340784  0.41457725  0.01621272  1  0.047076  0  0.101767  0.097441  0  0.992011  0
H  H26  1  0.30082494  0.54721136  0.74496711  1  0.09632  0  0.100603  0.10955  0  1.027738  0
H  H27  1  0.46359765  0.35662245  0.25754661  1  0.079832  0  0.111874  0.116415  0  0.979079  0
H  H28  1  0.56299564  0.27915230  0.08967471  1  0.118179  0  0.09529  0.102269  0  1.053496  0
H  H29  1  0.69763484  0.14559246  0.23352589  1  0.075404  0  0.104265  0.115215  0  0.998652  0
H  H30  1  0.29153477  0.74006097  0.55387138  1  0.061417  0  0.099454  0.106848  0  1.031434  0
H  H31  1  0.19823542  0.71041457  0.37614715  1  0.037127  0  0.103297  0.108149  0  1.013483  0
H  H32  1  0.65426869  0.98740520  0.36346535  1  0.070191  0  0.091479  0.091999  0  1.065458  0
H  H33  1  0.36077693  0.69382781  0.26883157  1  0.051089  0  0.110423  0.112831  0  0.979601  0
H  H34  1  0.80631105  0.22188662  0.77031913  1  0.006184  0  0.100132  0.103682  0  1.0222  0
H  H35  1  0.65046944  0.85922573  0.75647264  1  0.090997  0  0.110182  0.115614  0  0.982995  0
H  H36  1  0.37949799  0.28556765  0.69539889  1  0.079311  0  0.104064  0.10639  0  0.998892  0
H  H37  1  0.78663429  0.31065667  0.04675995  1  0.078285  0  0.104958  0.115171  0  0.992165  0
H  H38  1  0.76891645  0.20319877  0.94498937  1  0.048544  0  0.107033  0.104098  0  0.984461  0
H  H39  1  0.63735082  0.14914706  0.78435718  1  0.052278  0  0.103582  0.106477  0  1.010193  0
H  H40  1  0.19366327  0.28223566  0.72486533  1  0.072923  0  0.105174  0.124923  0  1.006261  0
C  C41  1  0.50259353  0.36068009  0.13727514  1  1.562339  0  0.230712  0.613149  0  4.164872  0
C  C42  1  0.94295611  0.31764245  0.89521459  1  -0.037106  0  -0.09318  -0.080863  0  4.034281  0
C  C43  1  0.05231913  0.37019851  0.95031637  1  -0.054627  0  -0.091888  -0.082071  0  4.042063  0
C  C44  1  0.50403661  0.63964513  0.86199557  1  1.534149  0  0.230573  0.612963  0  4.153884  0
C  C45  1  0.10648956  0.36595485  0.92096803  1  0.021823  0  -0.091051  -0.127248  0  3.978966  0
C  C46  1  0.29995514  0.58977737  0.70368010  1  -0.057593  0  -0.09219  -0.129113  0  3.978283  0
C  C47  1  0.20702637  0.57017042  0.63338109  1  -0.019091  0  -0.090652  -0.079227  0  4.038997  0
C  C48  1  0.20426766  0.62522168  0.57956348  1  -0.031814  0  -0.092129  -0.081019  0  4.042054  0
C  C49  1  0.29456666  0.69813646  0.59581568  1  -0.01395  0  -0.093897  -0.135211  0  3.980206  0
C  C50  1  0.39191918  0.71984983  0.66694762  1  0.003227  0  0.00133  0.060295  0  3.941132  0
C  C51  1  0.39487560  0.66496747  0.72337187  1  -0.020265  0  0.003593  0.064293  0  3.931063  0
C  C52  1  0.89324450  0.13070243  0.57801053  1  -0.043165  0  -0.085847  -0.102981  0  3.965024  0
C  C53  1  0.49315533  0.68636748  0.79444892  1  -0.041945  0  -0.008339  -0.071516  0  3.925941  0
C  C54  1  0.58262783  0.75382925  0.80411448  1  0.039303  0  -0.081569  -0.091762  0  3.997863  0
C  C55  1  0.57950130  0.80580438  0.74778695  1  -0.064422  0  -0.081862  -0.095892  0  3.998651  0
C  C56  1  0.49099780  0.63941919  0.13277870  1  1.598535  0  0.221575  0.603845  0  4.224845  0
C  C57  1  0.48693951  0.79161723  0.68233072  1  -0.03361  0  -0.007426  -0.066686  0  3.930791  0
C  C58  1  0.66318756  0.31313642  0.94337331  1  0.004124  0  0.016161  0.104142  0  4.014606  0
C  C59  1  0.72807628  0.28545320  0.97590730  1  -0.002561  0  -0.100853  -0.161252  0  4.033887  0
C  C60  1  0.71827920  0.22558980  0.91830213  1  -0.016405  0  -0.091712  -0.069726  0  4.06438  0
C  C61  1  0.64479667  0.19541655  0.82888456  1  -0.007494  0  -0.09012  -0.132046  0  3.983027  0
C  C62  1  0.57715914  0.22278758  0.79342187  1  0.005256  0  0.005258  0.075576  0  3.948216  0
C  C63  1  0.94485108  0.18908315  0.66352291  1  -0.019069  0  -0.000818  0.057201  0  3.972726  0
C  C64  1  0.58419675  0.28279383  0.85128696  1  0.065607  0  0.000606  0.000707  0  3.917258  0
C  C65  1  0.51164532  0.30544597  0.81294135  1  0.00093  0  -0.005392  -0.04146  0  3.912215  0
C  C66  1  0.43547568  0.26887179  0.72309446  1  -0.041895  0  -0.082361  -0.095761  0  3.984229  0
C  C67  1  0.42834024  0.21013795  0.66689200  1  0.010392  0  -0.080597  -0.092039  0  3.997566  0
C  C68  1  0.50701285  0.36491227  0.86451367  1  1.592695  0  0.222525  0.60746  0  4.214545  0
C  C69  1  0.49884197  0.18876058  0.70099749  1  0.000968  0  -0.007243  -0.066152  0  3.943052  0
C  C70  1  0.57895376  0.24931943  0.14181479  1  -0.026978  0  -0.094578  -0.139626  0  3.992272  0
C  C71  1  0.62658557  0.20716971  0.15129855  1  -0.012238  0  -0.089621  -0.060152  0  4.03183  0
C  C72  1  0.65335854  0.17316034  0.22193785  1  0.00927  0  -0.097315  -0.153774  0  4.013908  0
C  C73  1  0.62607157  0.17715218  0.27880655  1  0.033369  0  0.01646  0.105203  0  4.005308  0
C  C74  1  0.05609214  0.24476073  0.71845406  1  0.060991  0  0.002225  0.077533  0  3.979523  0
C  C75  1  0.56748333  0.21193368  0.26653573  1  0.04765  0  4.9e-05  0.004178  0  3.921398  0
C  C76  1  0.55079484  0.25484841  0.19980341  1  -0.00562  0  0.004969  0.075533  0  3.939145  0
C  C77  1  0.51236374  0.30687673  0.19846398  1  0.017022  0  -0.006092  -0.06254  0  3.928016  0
C  C78  1  0.48855045  0.31350143  0.25746872  1  -0.042637  0  -0.080369  -0.092484  0  3.997475  0
C  C79  1  0.49303796  0.26258398  0.31476647  1  0.003137  0  -0.079434  -0.089577  0  3.982233  0
C  C80  1  0.77403143  0.63050894  0.14552669  1  1.633155  0  0.223729  0.606151  0  4.20502  0
C  C81  1  0.52940923  0.21101527  0.31826978  1  -0.013213  0  -0.008455  -0.051979  0  3.934821  0
C  C82  1  0.90267763  0.55931515  0.26236983  1  0.051512  0  0.015367  0.099401  0  4.022472  0
C  C83  1  0.96169471  0.52734877  0.30545806  1  0.011397  0  -0.099467  -0.161445  0  4.02851  0
C  C84  1  0.06850481  0.58148082  0.34481091  1  -0.018364  0  -0.090175  -0.065453  0  4.058114  0
C  C85  1  0.89146108  0.19554368  0.69512741  1  -0.078815  0  -0.003394  -0.108675  0  3.89567  0
C  C86  1  0.11531751  0.66797769  0.34389485  1  -0.005696  0  -0.091371  -0.136289  0  3.986236  0
C  C87  1  0.05699392  0.70302632  0.30065525  1  0.007085  0  0.006029  0.080878  0  3.939263  0
C  C88  1  0.94620262  0.64676417  0.25436561  1  0.076431  0  0.000701  -0.002121  0  3.908778  0
C  C89  1  0.88966948  0.68152694  0.20319377  1  -0.068109  0  -0.003743  -0.03356  0  3.898247  0
C  C90  1  0.94036594  0.76696599  0.19932871  1  -0.009708  0  -0.082332  -0.098396  0  3.984556  0
C  C91  1  0.04821171  0.82294794  0.24749515  1  0.00156  0  -0.078748  -0.088526  0  3.999009  0
C  C92  1  0.22360256  0.36052717  0.86000038  1  1.551123  0  0.232227  0.61915  0  4.175374  0
C  C93  1  0.10588783  0.79245567  0.29866600  1  -0.061057  0  -0.008706  -0.071418  0  3.939777  0
C  C94  1  0.65366873  0.84458350  0.20744265  1  0.019738  0  0.018252  0.107196  0  4.001864  0
C  C95  1  0.72710856  0.93581617  0.24520855  1  0.059488  0  -0.097847  -0.153795  0  4.020534  0
C  C96  1  0.94341641  0.25438760  0.77915585  1  0.091042  0  0.000291  0.061835  0  3.968622  0
C  C97  1  0.72745395  0.98744328  0.30203380  1  -0.097002  0  -0.093052  -0.068654  0  4.055481  0
C  C98  1  0.65482487  0.94718368  0.32067102  1  0.08124  0  -0.093965  -0.136226  0  3.991391  0
C  C99  1  0.57851611  0.85372476  0.28312358  1  -0.034594  0  0.006109  0.079977  0  3.937114  0
C  C100  1  0.57647546  0.79903554  0.22471571  1  0.058417  0  0.001211  0.002088  0  3.907704  0
C  C101  1  0.49704966  0.70552307  0.18751596  1  -0.016669  0  -0.006251  -0.04384  0  3.926141  0
C  C102  1  0.42148716  0.66955635  0.20342451  1  0.008758  0  -0.082478  -0.09721  0  3.99327  0
C  C103  1  0.42161238  0.72330007  0.25785333  1  0.011027  0  -0.081856  -0.095442  0  4.007276  0
C  C104  1  0.10985868  0.24080776  0.68453323  1  -0.02526  0  -0.096887  -0.200916  0  3.94311  0
C  C105  1  0.49985916  0.81323354  0.29868947  1  -0.025388  0  -0.005971  -0.062592  0  3.931253  0
C  C106  1  0.49511814  0.13165039  0.63944991  1  1.554163  0  0.234357  0.619769  0  4.160299  0
C  C107  1  0.05470465  0.30881656  0.83477068  1  -0.008981  0  0.00204  0.064598  0  3.971107  0
C  C108  1  0.49942241  0.86777976  0.35886132  1  1.577597  0  0.233568  0.621259  0  4.155894  0
C  C109  1  0.49146762  0.85443866  0.62982123  1  1.559186  0  0.230904  0.612861  0  4.15468  0
C  C110  1  0.51479770  0.14849126  0.37037186  1  1.572057  0  0.222786  0.604306  0  4.208295  0
C  C111  1  0.22054417  0.85689623  0.35543642  1  1.57299  0  0.232574  0.615908  0  4.159014  0
C  C112  1  0.77610545  0.13843334  0.63762959  1  1.589693  0  0.230751  0.616387  0  4.176507  0
C  C113  1  0.05622783  0.18426163  0.60153409  1  0.104396  0  0.011187  0.15971  0  4.069246  0
C  C114  1  0.94680826  0.12774756  0.54735055  1  -0.021121  0  -0.096729  -0.148944  0  4.002154  0
C  C115  1  0.10825178  0.30279329  0.80292709  1  0.006733  0  -0.006851  -0.116494  0  3.893662  0
C  C116  1  0.89015694  0.26123365  0.81226050  1  0.010655  0  -0.091036  -0.127741  0  3.969974  0
Cl  Cl117  1  0.68276386  0.38636970  0.02099866  1  -0.199385  0  0.013999  -0.067066  0  1.703381  0
Cl  Cl118  1  0.67696671  0.14888000  0.37319683  1  -0.226027  0  0.009716  -0.07145  0  1.59061  0
Cl  Cl119  1  0.77330329  0.48838027  0.22087294  1  -0.202521  0  0.012264  -0.056713  0  1.689065  0
Cl  Cl120  1  0.12190194  0.18021235  0.56029503  1  -0.233654  0  -0.032756  -0.112498  0  1.394204  0
Cl  Cl121  1  0.65773783  0.78892803  0.13480128  1  -0.21436  0  0.001266  -0.070889  0  1.543626  0
O  O122  1  0.50143002  0.50132560  0.00119149  1  -1.206909  0  -0.572154  -1.033154  0  2.524454  0
O  O123  1  0.45889872  0.06554855  0.32724159  1  -1.157545  0  -0.314762  -0.547565  0  2.34452  0
O  O124  1  0.26523226  0.86355231  0.43713075  1  -1.174963  0  -0.311766  -0.547399  0  2.339344  0
O  O125  1  0.44849857  0.32017932  0.05478698  1  -1.15851  0  -0.305821  -0.528099  0  2.325396  0
O  O126  1  0.73271784  0.17881661  0.60790976  1  -1.161585  0  -0.307627  -0.538222  0  2.329841  0
O  O127  1  0.26400820  0.90149435  0.31888912  1  -1.160204  0  -0.312538  -0.541566  0  2.292346  0
O  O128  1  0.73159851  0.05457822  0.62340009  1  -1.158728  0  -0.310341  -0.540942  0  2.316023  0
O  O129  1  0.54930717  0.87240397  0.60310975  1  -1.15675  0  -0.314476  -0.545024  0  2.31722  0
O  O130  1  0.55241287  0.18279671  0.45075307  1  -1.172357  0  -0.318837  -0.54968  0  2.335478  0
O  O131  1  0.41619292  0.05101456  0.59725840  1  -1.166343  0  -0.31034  -0.537298  0  2.285429  0
O  O132  1  0.42255111  0.87278198  0.32349246  1  -1.170439  0  -0.311975  -0.543882  0  2.295226  0
O  O133  1  0.42472691  0.61118142  0.04957410  1  -1.176824  0  -0.315096  -0.546214  0  2.33948  0
O  O134  1  0.44273674  0.61797865  0.88527877  1  -1.160812  0  -0.309746  -0.542708  0  2.376928  0
O  O135  1  0.54790602  0.61316084  0.17576365  1  -1.160169  0  -0.31275  -0.53839  0  2.339432  0
O  O136  1  0.55990571  0.44826693  0.87713334  1  -1.162209  0  -0.313855  -0.543451  0  2.322714  0
O  O137  1  0.72935805  0.62966659  0.18119187  1  -1.166888  0  -0.315274  -0.552221  0  2.365071  0
O  O138  1  0.26836506  0.32087461  0.88685332  1  -1.172417  0  -0.307942  -0.536963  0  2.317634  0
O  O139  1  0.73300033  0.59877755  0.06368721  1  -1.163781  0  -0.313973  -0.549158  0  2.342752  0
O  O140  1  0.26674047  0.44442108  0.87655529  1  -1.182087  0  -0.30821  -0.537942  0  2.329271  0
O  O141  1  0.44291194  0.32362528  0.88466513  1  -1.162424  0  -0.31528  -0.544634  0  2.33692  0
O  O142  1  0.54957840  0.44354899  0.17461100  1  -1.171881  0  -0.313218  -0.549209  0  2.343564  0
O  O143  1  0.57550864  0.62719406  0.89279856  1  -1.160354  0  -0.316914  -0.55061  0  2.311949  0
O  O144  1  0.49745138  0.00050179  0.49749961  1  -1.221316  0  -0.575436  -1.038367  0  2.549973  0
O  O145  1  0.57225248  0.17000277  0.63438411  1  -1.169252  0  -0.310472  -0.544667  0  2.327636  0
O  O146  1  0.57478572  0.90300620  0.44017343  1  -1.164913  0  -0.310955  -0.542942  0  2.310556  0
O  O147  1  0.43971274  0.88651531  0.61777930  1  -1.168355  0  -0.311095  -0.542414  0  2.336931  0
