# generated using pymatgen
data_Cu2H15C14SBr2N3
_symmetry_space_group_name_H-M   'P 1'
_cell_length_a   8.62381495
_cell_length_b   9.67934617
_cell_length_c   10.33767180
_cell_angle_alpha   97.17574669
_cell_angle_beta   101.04697044
_cell_angle_gamma   93.41402050
_symmetry_Int_Tables_number   1
_chemical_formula_structural   Cu2H15C14SBr2N3
_chemical_formula_sum   'Cu4 H30 C28 S2 Br4 N6'
_cell_volume   837.19862644
_cell_formula_units_Z   2
loop_
 _symmetry_equiv_pos_site_id
 _symmetry_equiv_pos_as_xyz
  1  'x, y, z'
loop_
 _atom_site_type_symbol
 _atom_site_label
 _atom_site_symmetry_multiplicity
 _atom_site_fract_x
 _atom_site_fract_y
 _atom_site_fract_z
 _atom_site_occupancy
 _atom_site_hle17_bader_spin_density
 _atom_site_hle17_ddec_charge
 _atom_site_hle17_ddec_spin_density
 _atom_site_hle17_ddec_sum_bond_order
 _atom_site_hle17_magmom
 _atom_site_hse06_10hf_bader_spin_density
 _atom_site_hse06_10hf_ddec_charge
 _atom_site_hse06_10hf_ddec_spin_density
 _atom_site_hse06_10hf_ddec_sum_bond_order
 _atom_site_hse06_10hf_magmom
 _atom_site_hse06_bader_spin_density
 _atom_site_hse06_ddec_charge
 _atom_site_hse06_ddec_spin_density
 _atom_site_hse06_ddec_sum_bond_order
 _atom_site_hse06_magmom
 _atom_site_pbe_bader_spin_density
 _atom_site_pbe_cm5_charge
 _atom_site_pbe_ddec_charge
 _atom_site_pbe_ddec_spin_density
 _atom_site_pbe_ddec_sum_bond_order
 _atom_site_pbe_magmom
Cu  Cu0  1  0.49887169  0.32640418  0.40746119  1  0  0.492791  0  2.007283  0  0  0.427667  0  2.464079  0  0  0.425607  0  2.428408  0  0  0.539034  0.430342  0  2.486584  0
Cu  Cu1  1  0.50113329  0.67359818  0.59253951  1  0  0.492815  0  2.007302  0  0  0.427718  0  2.464082  0  0  0.425705  0  2.428432  0  0  0.539041  0.430399  0  2.486581  0
Cu  Cu2  1  0.09261195  0.40563841  0.50324665  1  0  0.335974  0  1.961537  0  0  0.241244  0  2.478097  0  0  0.265127  0  2.410164  0  0  0.196932  0.226617  0  2.522678  0
Cu  Cu3  1  0.90739722  0.59435875  0.49675803  1  0  0.335933  0  1.961597  0  0  0.241182  0  2.478185  0  0  0.265038  0  2.410221  0  0  0.196927  0.226555  0  2.522763  0
H  H4  1  0.84295140  0.23899146  0.45328844  1  0  0.092215  0  0.981458  0  0  0.099689  0  1.061284  0  0  0.103342  0  1.056393  0  0  0.081988  0.096486  0  1.065394  0
H  H5  1  0.15705329  0.76100776  0.54671089  1  0  0.09224  0  0.981371  0  0  0.09971  0  1.061196  0  0  0.103365  0  1.0563  0  0  0.081999  0.096506  0  1.065307  0
H  H6  1  0.82258817  0.05269589  0.44099368  1  0  0.117576  0  0.925231  0  0  0.133302  0  0.98029  0  0  0.134919  0  0.98036  0  0  0.097265  0.131933  0  0.980577  0
H  H7  1  0.17741222  0.94730749  0.55900347  1  0  0.117603  0  0.925171  0  0  0.133319  0  0.980265  0  0  0.13494  0  0.980331  0  0  0.097286  0.131949  0  0.980552  0
H  H8  1  0.51801475  0.05835360  0.38736914  1  0  0.083181  0  0.975329  0  0  0.086633  0  1.049934  0  0  0.088723  0  1.049508  0  0  0.084907  0.084828  0  1.050792  0
H  H9  1  0.48198674  0.94164983  0.61263593  1  0  0.083173  0  0.975335  0  0  0.086633  0  1.049928  0  0  0.088721  0  1.049505  0  0  0.084891  0.08483  0  1.050784  0
H  H10  1  0.66772149  0.26914263  0.23301246  1  0  0.130913  0  0.997006  0  0  0.139444  0  1.065155  0  0  0.141877  0  1.064232  0  0  0.080733  0.137521  0  1.066413  0
H  H11  1  0.33227612  0.73085657  0.76698472  1  0  0.130891  0  0.997027  0  0  0.139407  0  1.065191  0  0  0.141851  0  1.06426  0  0  0.080727  0.137484  0  1.066452  0
H  H12  1  0.47100298  0.16668787  0.18237754  1  0  0.127763  0  1.000899  0  0  0.139699  0  1.061356  0  0  0.14108  0  1.062462  0  0  0.088557  0.138614  0  1.06088  0
H  H13  1  0.52899460  0.83331135  0.81762254  1  0  0.127799  0  1.000912  0  0  0.139739  0  1.061348  0  0  0.141122  0  1.062454  0  0  0.088578  0.138654  0  1.060873  0
H  H14  1  0.89259478  0.43306585  0.98537782  1  0  0.085109  0  0.950853  0  0  0.098517  0  1.019565  0  0  0.099358  0  1.019383  0  0  0.109623  0.098342  0  1.018817  0
H  H15  1  0.10740483  0.56693025  0.01462611  1  0  0.085133  0  0.950775  0  0  0.098469  0  1.019508  0  0  0.099314  0  1.019321  0  0  0.109602  0.098295  0  1.018763  0
H  H16  1  0.95097138  0.29983034  0.87572448  1  0  0.079948  0  0.961414  0  0  0.090106  0  1.037269  0  0  0.089718  0  1.039362  0  0  0.106507  0.090692  0  1.035779  0
H  H17  1  0.04902939  0.70016578  0.12428159  1  0  0.079903  0  0.961506  0  0  0.090015  0  1.037343  0  0  0.089639  0  1.039413  0  0  0.106476  0.090583  0  1.035906  0
H  H18  1  0.84327817  0.21104522  0.06918578  1  0  0.088823  0  0.952387  0  0  0.104185  0  1.006035  0  0  0.105812  0  1.006499  0  0  0.098201  0.102948  0  1.005738  0
H  H19  1  0.15671191  0.78894982  0.93081451  1  0  0.088857  0  0.952592  0  0  0.104248  0  1.006196  0  0  0.105878  0  1.00666  0  0  0.098206  0.103007  0  1.005897  0
H  H20  1  0.54874855  0.18763736  0.84007788  1  0  0.120193  0  0.986355  0  0  0.131234  0  1.049875  0  0  0.133719  0  1.049853  0  0  0.090031  0.129511  0  1.049831  0
H  H21  1  0.45123812  0.81237015  0.15991066  1  0  0.120192  0  0.986656  0  0  0.13127  0  1.050108  0  0  0.133747  0  1.050103  0  0  0.090016  0.129557  0  1.050029  0
H  H22  1  0.57837485  0.09042497  0.98475858  1  0  0.119152  0  0.979022  0  0  0.138278  0  1.033745  0  0  0.140261  0  1.034243  0  0  0.09382  0.136743  0  1.033631  0
H  H23  1  0.42160969  0.90957315  0.01523339  1  0  0.119232  0  0.979146  0  0  0.138281  0  1.033944  0  0  0.140265  0  1.034442  0  0  0.093824  0.136744  0  1.033834  0
H  H24  1  0.81373976  0.76958213  0.78152517  1  0  0.09579  0  0.99096  0  0  0.0995  0  1.063941  0  0  0.103341  0  1.061132  0  0  0.089189  0.096573  0  1.066511  0
H  H25  1  0.18625348  0.23042127  0.21847561  1  0  0.095776  0  0.990997  0  0  0.099509  0  1.063925  0  0  0.103353  0  1.061116  0  0  0.089199  0.096581  0  1.066492  0
H  H26  1  0.87637521  0.96974930  0.96304855  1  0  0.083906  0  0.98149  0  0  0.095023  0  1.042131  0  0  0.097197  0  1.042312  0  0  0.097249  0.093264  0  1.042418  0
H  H27  1  0.12361783  0.03025200  0.03695197  1  0  0.083878  0  0.981503  0  0  0.095013  0  1.042131  0  0  0.097185  0  1.042318  0  0  0.09726  0.093285  0  1.042383  0
H  H28  1  0.83223740  0.94149032  0.19095958  1  0  0.094223  0  0.936419  0  0  0.109325  0  0.988243  0  0  0.11183  0  0.98765  0  0  0.102625  0.106711  0  0.989755  0
H  H29  1  0.16775897  0.05850891  0.80904319  1  0  0.094244  0  0.936415  0  0  0.109335  0  0.988249  0  0  0.111839  0  0.987654  0  0  0.102643  0.106723  0  0.98976  0
H  H30  1  0.72125501  0.71320189  0.23414137  1  0  0.093944  0  0.982358  0  0  0.098341  0  1.053063  0  0  0.101778  0  1.051178  0  0  0.086232  0.096056  0  1.054344  0
H  H31  1  0.27874366  0.28679628  0.76585780  1  0  0.093993  0  0.982292  0  0  0.098358  0  1.053036  0  0  0.101796  0  1.051151  0  0  0.086248  0.096074  0  1.054316  0
H  H32  1  0.64783534  0.51516200  0.05067247  1  0  0.097275  0  0.950324  0  0  0.108226  0  1.011588  0  0  0.11063  0  1.011186  0  0  0.100116  0.106408  0  1.011914  0
H  H33  1  0.35216815  0.48483723  0.94932859  1  0  0.097238  0  0.950401  0  0  0.108212  0  1.011633  0  0  0.110618  0  1.01123  0  0  0.100109  0.106394  0  1.011967  0
C  C34  1  0.68713172  0.51490653  0.79402734  1  0  0.290219  0  3.696543  0  0  0.25615  0  3.956829  0  0  0.270567  0  3.971087  0  0  0.235786  0.24663  0  3.947485  0
C  C35  1  0.31287088  0.48509584  0.20597490  1  0  0.29017  0  3.696624  0  0  0.256074  0  3.956983  0  0  0.270493  0  3.971235  0  0  0.235719  0.246554  0  3.947637  0
C  C36  1  0.69990731  0.31267615  0.67486069  1  0  0.235406  0  3.769539  0  0  0.205722  0  4.062093  0  0  0.220473  0  4.075019  0  0  0.223386  0.195583  0  4.053842  0
C  C37  1  0.30010379  0.68732830  0.32514030  1  0  0.235523  0  3.769537  0  0  0.205765  0  4.062235  0  0  0.22052  0  4.075153  0  0  0.223289  0.195625  0  4.053984  0
C  C38  1  0.76399061  0.14866980  0.46262734  1  0  -0.141266  0  3.673138  0  0  -0.170125  0  3.915782  0  0  -0.171923  0  3.928555  0  0  -0.148586  -0.168433  0  3.906898  0
C  C39  1  0.23601558  0.85133255  0.53737066  1  0  -0.141247  0  3.672997  0  0  -0.170123  0  3.915673  0  0  -0.171923  0  3.928452  0  0  -0.14861  -0.168432  0  3.906789  0
C  C40  1  0.60382317  0.14093084  0.37432293  1  0  -0.041092  0  3.758631  0  0  -0.052399  0  4.035663  0  0  -0.048609  0  4.047512  0  0  -0.155572  -0.055036  0  4.027561  0
C  C41  1  0.39618298  0.85907153  0.62567893  1  0  -0.041203  0  3.758592  0  0  -0.052463  0  4.03558  0  0  -0.04869  0  4.047457  0  0  -0.155577  -0.0551  0  4.027476  0
C  C42  1  0.57474235  0.20324510  0.25970380  1  0  -0.326883  0  3.678525  0  0  -0.374002  0  3.954273  0  0  -0.373156  0  3.960458  0  0  -0.24963  -0.374324  0  3.950119  0
C  C43  1  0.42525866  0.79675309  0.74029867  1  0  -0.326839  0  3.678456  0  0  -0.373969  0  3.954225  0  0  -0.373152  0  3.96043  0  0  -0.249623  -0.374292  0  3.95007  0
C  C44  1  0.84810521  0.34033757  0.91216136  1  0  -0.003768  0  3.68731  0  0  -0.067158  0  3.934938  0  0  -0.062372  0  3.946072  0  0  -0.053915  -0.070038  0  3.92624  0
C  C45  1  0.15189708  0.65966166  0.08784144  1  0  -0.003664  0  3.687644  0  0  -0.066799  0  3.934904  0  0  -0.062019  0  3.946041  0  0  -0.05384  -0.069691  0  3.926205  0
C  C46  1  0.76974653  0.23317287  0.97687208  1  0  -0.043853  0  3.770362  0  0  -0.050453  0  4.027739  0  0  -0.052296  0  4.049392  0  0  -0.101228  -0.049034  0  4.012013  0
C  C47  1  0.23022805  0.76682002  0.02311860  1  0  -0.043893  0  3.76973  0  0  -0.050575  0  4.027064  0  0  -0.052417  0  4.04871  0  0  -0.101178  -0.049146  0  4.011335  0
C  C48  1  0.62563728  0.16767872  0.93125303  1  0  -0.268763  0  3.657768  0  0  -0.313799  0  3.896111  0  0  -0.318927  0  3.915364  0  0  -0.186089  -0.309647  0  3.882566  0
C  C49  1  0.37437328  0.83233199  0.06874470  1  0  -0.268911  0  3.656974  0  0  -0.313936  0  3.895386  0  0  -0.319067  0  3.914625  0  0  -0.186181  -0.309778  0  3.881849  0
C  C50  1  0.72422172  0.63036294  0.90378551  1  0  -0.017328  0  3.811626  0  0  0.005212  0  4.041822  0  0  0.001795  0  4.064473  0  0  -0.012017  0.006758  0  4.027654  0
C  C51  1  0.27577841  0.36963837  0.09621619  1  0  -0.017204  0  3.811435  0  0  0.005279  0  4.041737  0  0  0.00186  0  4.064388  0  0  -0.01201  0.006824  0  4.02757  0
C  C52  1  0.79160813  0.75846150  0.88038918  1  0  -0.091833  0  3.733459  0  0  -0.10914  0  3.972358  0  0  -0.109594  0  3.990805  0  0  -0.086575  -0.108954  0  3.960846  0
C  C53  1  0.20838602  0.24153876  0.11960947  1  0  -0.091864  0  3.73335  0  0  -0.10916  0  3.972294  0  0  -0.109615  0  3.990737  0  0  -0.086601  -0.108974  0  3.960791  0
C  C54  1  0.82817198  0.87002401  0.98321384  1  0  -0.076736  0  3.773838  0  0  -0.086241  0  4.016955  0  0  -0.089074  0  4.038206  0  0  -0.092031  -0.084736  0  4.003349  0
C  C55  1  0.17182463  0.12997729  0.01678534  1  0  -0.076685  0  3.773814  0  0  -0.0862  0  4.016936  0  0  -0.089031  0  4.038184  0  0  -0.092002  -0.084719  0  4.003319  0
C  C56  1  0.80195518  0.85441036  0.11019460  1  0  -0.064054  0  3.74118  0  0  -0.078499  0  3.987918  0  0  -0.078762  0  4.0073  0  0  -0.087026  -0.078017  0  3.975446  0
C  C57  1  0.19803766  0.14558886  0.88980565  1  0  -0.064121  0  3.741148  0  0  -0.078552  0  3.98788  0  0  -0.07881  0  4.007254  0  0  -0.087087  -0.078072  0  3.97542  0
C  C58  1  0.73846882  0.72628808  0.13445214  1  0  -0.062651  0  3.766611  0  0  -0.07372  0  4.015893  0  0  -0.075953  0  4.035395  0  0  -0.091601  -0.072563  0  4.00299  0
C  C59  1  0.26153122  0.27371220  0.86554943  1  0  -0.062672  0  3.766508  0  0  -0.073715  0  4.015791  0  0  -0.075947  0  4.035289  0  0  -0.091598  -0.072558  0  4.002889  0
C  C60  1  0.69853140  0.61466096  0.03141224  1  0  -0.092511  0  3.719986  0  0  -0.114998  0  3.964687  0  0  -0.115356  0  3.983933  0  0  -0.088371  -0.114879  0  3.952557  0
C  C61  1  0.30146726  0.38533721  0.96858790  1  0  -0.09255  0  3.720018  0  0  -0.115036  0  3.964725  0  0  -0.115393  0  3.98397  0  0  -0.08837  -0.114919  0  3.952593  0
S  S62  1  0.75719815  0.14655089  0.63743611  1  0  0.029544  0  2.402616  0  0  0.027866  0  2.742003  0  0  0.024207  0  2.741554  0  0  0.046825  0.030609  0  2.742493  0
S  S63  1  0.24281264  0.85345044  0.36256544  1  0  0.029461  0  2.402727  0  0  0.027822  0  2.742154  0  0  0.024156  0  2.741718  0  0  0.046794  0.030566  0  2.742642  0
Br  Br64  1  0.24438861  0.21295660  0.49009708  1  0  -0.530612  0  1.267701  0  0  -0.459496  0  1.639101  0  0  -0.479338  0  1.603481  0  0  -0.278457  -0.444818  0  1.662732  0
Br  Br65  1  0.75560347  0.78703315  0.50989038  1  0  -0.530576  0  1.267657  0  0  -0.459473  0  1.639076  0  0  -0.47931  0  1.603437  0  0  -0.278452  -0.444798  0  1.662709  0
Br  Br66  1  0.06396906  0.54148602  0.70613673  1  0  -0.465571  0  1.382422  0  0  -0.391139  0  1.776804  0  0  -0.410881  0  1.738479  0  0  -0.245172  -0.377133  0  1.801985  0
Br  Br67  1  0.93602914  0.45850800  0.29386868  1  0  -0.465586  0  1.382386  0  0  -0.391154  0  1.776777  0  0  -0.410897  0  1.738441  0  0  -0.245186  -0.377151  0  1.80196  0
N  N68  1  0.60794308  0.51883294  0.67076907  1  0  -0.250153  0  3.224126  0  0  -0.208793  0  3.552125  0  0  -0.215515  0  3.552851  0  0  -0.268129  -0.204599  0  3.551663  0
N  N69  1  0.39206190  0.48116942  0.32923163  1  0  -0.250061  0  3.223908  0  0  -0.208685  0  3.551932  0  0  -0.215389  0  3.552624  0  0  -0.26808  -0.204489  0  3.551467  0
N  N70  1  0.61462981  0.39119537  0.59580033  1  0  -0.263061  0  3.227144  0  0  -0.223944  0  3.557708  0  0  -0.230278  0  3.558142  0  0  -0.274969  -0.220885  0  3.557649  0
N  N71  1  0.38538110  0.60880700  0.40419942  1  0  -0.263065  0  3.227082  0  0  -0.224  0  3.557764  0  0  -0.230337  0  3.558198  0  0  -0.274936  -0.220941  0  3.557703  0
N  N72  1  0.74387612  0.38599344  0.80022691  1  0  -0.153809  0  3.509943  0  0  -0.061433  0  3.719983  0  0  -0.079311  0  3.743595  0  0  -0.229617  -0.050048  0  3.704047  0
N  N73  1  0.25612865  0.61400683  0.19977449  1  0  -0.153919  0  3.510148  0  0  -0.061543  0  3.720132  0  0  -0.079424  0  3.743746  0  0  -0.229524  -0.050154  0  3.704191  0
