# generated using pymatgen
data_CdCoH14C22N4O9
_symmetry_space_group_name_H-M   'P 1'
_cell_length_a   8.80378773
_cell_length_b   9.94555612
_cell_length_c   13.93900000
_cell_angle_alpha   99.96977719
_cell_angle_beta   102.63778229
_cell_angle_gamma   110.63800670
_symmetry_Int_Tables_number   1
_chemical_formula_structural   CdCoH14C22N4O9
_chemical_formula_sum   'Cd2 Co2 H28 C44 N8 O18'
_cell_volume   1071.81925941
_cell_formula_units_Z   2
loop_
 _symmetry_equiv_pos_site_id
 _symmetry_equiv_pos_as_xyz
  1  'x, y, z'
loop_
 _atom_site_type_symbol
 _atom_site_label
 _atom_site_symmetry_multiplicity
 _atom_site_fract_x
 _atom_site_fract_y
 _atom_site_fract_z
 _atom_site_occupancy
 _atom_site_hle17_ddec_charge
 _atom_site_hle17_ddec_spin_density
 _atom_site_hle17_ddec_sum_bond_order
 _atom_site_hle17_magmom
 _atom_site_hse06_10hf_ddec_charge
 _atom_site_hse06_10hf_ddec_spin_density
 _atom_site_hse06_10hf_ddec_sum_bond_order
 _atom_site_hse06_10hf_magmom
 _atom_site_hse06_ddec_charge
 _atom_site_hse06_ddec_spin_density
 _atom_site_hse06_ddec_sum_bond_order
 _atom_site_hse06_magmom
 _atom_site_pbe_bader_charge
 _atom_site_pbe_bader_spin_density
 _atom_site_pbe_cm5_charge
 _atom_site_pbe_ddec_charge
 _atom_site_pbe_ddec_spin_density
 _atom_site_pbe_ddec_sum_bond_order
 _atom_site_pbe_magmom
Cd  Cd0  1  0.94458474  0.90870932  0.59945082  1  1.177687  5e-05  1.652128  0.0  0.998906  0.000236  2.093121  0.0  1.057058  0.000123  2.03951  0.0  1.303748  0.000467  0.778932  0.954617  0.000399  2.131424  0.0
Cd  Cd1  1  0.05541440  0.09129144  0.40054794  1  1.177662  5e-05  1.652144  0.0  0.998874  0.000236  2.093142  0.0  1.057028  0.000123  2.03953  0.0  1.303668  0.000469  0.778922  0.954587  0.0004  2.131453  0.0
Co  Co2  1  0.81104395  0.98652629  0.03425174  1  1.076572  2.833043  1.905717  2.559  1.040925  2.835399  2.331583  2.619  1.118615  2.878176  2.259946  2.702  1.263799  2.586916  0.682619  0.97131  2.794712  2.397382  2.541
Co  Co3  1  0.18895235  0.01347335  0.96574791  1  1.076623  2.833034  1.905662  2.559  1.04099  2.835401  2.331505  2.619  1.118675  2.878177  2.259876  2.702  1.263688  2.586925  0.682515  0.971197  2.794583  2.397375  2.541
H  H4  1  0.20042370  0.50778331  0.26737203  1  0.128216  -5.1e-05  0.946183  0.0  0.13871  -2e-05  1.007015  0.0  0.142101  -1.6e-05  1.004749  0.0  0.100553  8e-06  0.119484  0.136247  -2.6e-05  1.008786  0.0
H  H5  1  0.79957609  0.49221634  0.73262883  1  0.128219  -5.1e-05  0.946192  0.0  0.138717  -2e-05  1.007015  0.0  0.142107  -1.6e-05  1.004751  0.0  0.100576  7e-06  0.119482  0.13625  -2.6e-05  1.008791  0.0
H  H6  1  0.92696924  0.69703248  0.07357678  1  0.131576  -0.000193  0.958502  0.0  0.135594  -0.000221  1.029915  0.0  0.140009  -0.000235  1.026141  0.0  0.142696  1.2e-05  0.114173  0.132234  -0.000185  1.032725  0.0
H  H7  1  0.07302821  0.30296716  0.92642448  1  0.131513  -0.000191  0.958585  0.0  0.135576  -0.000221  1.029941  0.0  0.139986  -0.000234  1.026171  0.0  0.142685  1.2e-05  0.114183  0.132218  -0.000185  1.032744  0.0
H  H8  1  0.35243587  0.98435447  0.33752828  1  0.11979  -3e-05  0.957123  0.0  0.126029  -3.4e-05  1.024544  0.0  0.129507  -3.2e-05  1.02288  0.0  0.123502  3.4e-05  0.11049  0.123432  -2.7e-05  1.026071  0.0
H  H9  1  0.64756340  0.01564406  0.66247166  1  0.119813  -4.4e-05  0.95708  0.0  0.126053  -3.4e-05  1.024501  0.0  0.129533  -3.1e-05  1.022834  0.0  0.123484  3.3e-05  0.110483  0.123446  -2.8e-05  1.026033  0.0
H  H10  1  0.27022948  0.56879211  0.44308085  1  0.136045  2e-06  0.984338  0.0  0.141802  5e-06  1.049971  0.0  0.145856  3e-06  1.047008  0.0  0.211355  2e-06  0.123028  0.138788  4e-06  1.05224  0.0
H  H11  1  0.72977031  0.43120753  0.55691785  1  0.136033  2e-06  0.984399  0.0  0.141797  5e-06  1.05002  0.0  0.14585  3e-06  1.047058  0.0  0.211301  2e-06  0.123024  0.138782  3e-06  1.052288  0.0
H  H12  1  0.58075897  0.65882559  0.59213331  1  0.113962  7e-06  0.941532  0.0  0.124638  1.4e-05  0.997922  0.0  0.126648  9e-06  0.998017  0.0  0.114697  4.4e-05  0.122292  0.123077  1.9e-05  0.998169  0.0
H  H13  1  0.41924055  0.34116846  0.40786324  1  0.113939  7e-06  0.941548  0.0  0.124605  1.4e-05  0.997951  0.0  0.126614  8e-06  0.998048  0.0  0.114688  4.5e-05  0.122264  0.123038  1.9e-05  0.9982  0.0
H  H14  1  0.64092449  0.94712736  0.39993326  1  0.118846  1e-05  0.930826  0.0  0.126027  1.8e-05  0.995626  0.0  0.129433  1.4e-05  0.991465  0.0  0.1954  3.3e-05  0.139579  0.123229  1.8e-05  0.999135  0.0
H  H15  1  0.35907529  0.05287229  0.60006617  1  0.118775  -1e-06  0.930801  0.0  0.125951  1.8e-05  0.995629  0.0  0.129342  1.4e-05  0.991488  0.0  0.195403  3.3e-05  0.139541  0.12316  1.8e-05  0.999123  0.0
H  H16  1  0.72709450  0.47650637  0.01301831  1  0.139584  0.000187  0.962465  0.0  0.149275  0.000227  1.021078  0.0  0.15278  0.000156  1.018496  0.0  0.180014  0.000846  0.12813  0.146662  0.000362  1.023167  0.001
H  H17  1  0.27290542  0.52349104  0.98698372  1  0.139577  0.000187  0.962424  0.0  0.149279  0.000227  1.021035  0.0  0.152787  0.000156  1.018448  0.0  0.179955  0.000846  0.128106  0.146653  0.000362  1.023134  0.001
H  H18  1  0.58440343  0.16791191  0.94643022  1  0.119759  -5.1e-05  0.966625  0.001  0.128236  0.0  1.024547  0.001  0.131208  -9.7e-05  1.022408  0.0  0.166879  0.000907  0.119203  0.126047  0.000113  1.026097  0.001
H  H19  1  0.41559947  0.83208439  0.05357281  1  0.119777  -5e-05  0.966604  0.001  0.128228  0.0  1.024559  0.001  0.131195  -9.7e-05  1.022425  0.0  0.166843  0.000907  0.119176  0.12602  0.000113  1.02613  0.001
H  H20  1  0.07418973  0.30695554  0.15358028  1  0.109677  0.000208  0.945363  0.001  0.115849  0.00017  1.012466  0.001  0.1193  0.000117  1.007424  0.0  0.163268  0.000901  0.140655  0.113264  0.000231  1.015966  0.001
H  H21  1  0.92581342  0.69304634  0.84642419  1  0.109711  0.000211  0.945313  0.001  0.115828  0.00017  1.012475  0.001  0.119296  0.000117  1.007413  0.0  0.163359  0.0009  0.140631  0.113233  0.000231  1.015982  0.001
H  H22  1  0.00275209  0.41331233  0.58322601  1  0.109066  2.8e-05  0.946761  0.0  0.116314  -3e-06  1.013868  0.0  0.119896  -0.0  1.010702  0.0  0.110209  -2e-06  0.107289  0.113757  -1.4e-05  1.01618  0.0
H  H23  1  0.99724860  0.58669178  0.41677409  1  0.109067  3.2e-05  0.946698  0.0  0.11633  -3e-06  1.013792  0.0  0.119912  -0.0  1.010627  0.0  0.110187  -1e-06  0.107288  0.113772  -1.4e-05  1.01611  0.0
H  H24  1  0.41061323  0.82226314  0.78204579  1  0.110369  0.000115  0.949521  0.0  0.120424  -2.5e-05  1.011096  0.0  0.12454  -0.000106  1.007295  0.0  0.068893  0.000483  0.10901  0.117493  6.7e-05  1.013584  0.0
H  H25  1  0.58938695  0.17773985  0.21795266  1  0.11039  0.000115  0.949515  0.0  0.120399  -2.5e-05  1.011135  0.0  0.124517  -0.000106  1.007333  0.0  0.068928  0.000484  0.109  0.117463  6.7e-05  1.013635  0.0
H  H26  1  0.43473361  0.40235490  0.79341002  1  0.108475  -6e-06  0.937429  0.0  0.116388  -3.2e-05  1.001481  0.0  0.120874  -2.6e-05  0.997134  0.0  0.093281  3.8e-05  0.106104  0.113192  -3.8e-05  1.00446  0.0
H  H27  1  0.56526721  0.59764698  0.20658983  1  0.108452  -8e-06  0.937465  0.0  0.116386  -3.2e-05  1.001495  0.0  0.120874  -2.6e-05  0.997149  0.0  0.093251  3.8e-05  0.106091  0.113185  -3.8e-05  1.004484  0.0
H  H28  1  0.73347013  0.03033068  0.20578020  1  0.426564  -0.00011  0.870112  0.0  0.396352  0.000497  0.937904  0.001  0.407349  0.000316  0.922233  0.001  0.622831  0.000714  0.295801  0.388663  0.000653  0.948734  0.001
H  H29  1  0.26652966  0.96966896  0.79421851  1  0.426542  -0.000111  0.870135  0.0  0.39633  0.000497  0.937932  0.001  0.407327  0.000316  0.92226  0.001  0.622817  0.000714  0.295775  0.388627  0.000653  0.948779  0.001
H  H30  1  0.72385776  0.87134032  0.18011313  1  0.442272  -0.000257  0.847568  0.0  0.416961  0.000319  0.90121  0.001  0.428367  0.000146  0.884687  0.001  0.648431  0.000498  0.304991  0.408895  0.000482  0.912741  0.001
H  H31  1  0.27614151  0.12865820  0.81988608  1  0.44228  -0.000259  0.847566  0.0  0.416963  0.000319  0.90122  0.001  0.428369  0.000146  0.884696  0.001  0.648151  0.000499  0.304992  0.408881  0.000482  0.91277  0.001
C  C32  1  0.29195472  0.74678445  0.30848183  1  0.196403  1.9e-05  3.778442  0.0  0.192063  -0.00027  4.026715  0.0  0.197337  -0.000481  4.048341  0.0  0.24006  0.000184  0.099336  0.188423  1.6e-05  4.01276  0.0
C  C33  1  0.70804326  0.25321631  0.69151892  1  0.196311  2.5e-05  3.77858  0.0  0.192015  -0.00027  4.026786  0.0  0.19729  -0.00048  4.04841  0.0  0.240048  0.000185  0.09931  0.18837  1.7e-05  4.012837  0.0
C  C34  1  0.18316931  0.60323183  0.24696056  1  -0.206362  0.000618  3.67814  0.001  -0.241566  0.001025  3.937564  0.001  -0.24504  0.000867  3.955259  0.001  0.098265  0.000822  -0.079786  -0.240191  0.000423  3.926727  0.001
C  C35  1  0.81683048  0.39676782  0.75304030  1  -0.206332  0.000611  3.678162  0.001  -0.241559  0.001025  3.937543  0.001  -0.245033  0.000867  3.955239  0.001  0.09822  0.000818  -0.079786  -0.240193  0.000421  3.926718  0.001
C  C36  1  0.05064567  0.58456576  0.16259934  1  0.203372  0.000123  3.784361  0.0  0.197465  -0.000107  4.034612  0.0  0.202583  -0.000209  4.057225  0.0  0.31658  0.000315  0.104725  0.193802  -2.5e-05  4.020074  0.0
C  C37  1  0.94935412  0.41543388  0.83740152  1  0.203365  0.000133  3.784453  0.0  0.197502  -0.000107  4.034665  0.0  0.20262  -0.000209  4.05727  0.0  0.316481  0.000315  0.104718  0.193832  -2.5e-05  4.020141  0.0
C  C38  1  0.02908953  0.70853622  0.13916936  1  -0.143258  -0.00044  3.659721  0.0  -0.179922  7.8e-05  3.91238  0.0  -0.181682  3.5e-05  3.931474  0.0  0.024484  0.001581  -0.080405  -0.178771  0.000666  3.900168  0.001
C  C39  1  0.97090974  0.29146230  0.86083200  1  -0.143257  -0.000462  3.659769  0.0  -0.179964  7.8e-05  3.912401  0.0  -0.181738  3.5e-05  3.931534  0.0  0.024575  0.001578  -0.080475  -0.178823  0.000665  3.900198  0.001
C  C40  1  0.13909450  0.85191457  0.20204072  1  -0.031582  0.002253  3.752922  0.004  -0.003308  0.000588  3.980187  0.002  -0.010298  -3.9e-05  4.002137  0.001  -0.001237  0.003199  -0.010231  0.000872  0.001278  3.967162  0.003
C  C41  1  0.86090529  0.14808508  0.79795942  1  -0.031557  0.00226  3.752889  0.004  -0.003317  0.000588  3.980173  0.002  -0.010313  -3.9e-05  4.002115  0.001  -0.00124  0.003195  -0.010221  0.000852  0.001275  3.967161  0.003
C  C42  1  0.27168664  0.87267648  0.28735400  1  -0.148014  0.000238  3.680591  0.001  -0.183187  0.001125  3.931319  0.001  -0.184661  0.000933  3.949464  0.001  -0.018618  0.001223  -0.08228  -0.183078  0.000461  3.920454  0.001
C  C43  1  0.72831483  0.12732428  0.71264580  1  -0.147996  0.000262  3.680635  0.001  -0.183178  0.001125  3.931339  0.001  -0.184652  0.000932  3.949485  0.001  -0.018605  0.001219  -0.082251  -0.183076  0.000458  3.920489  0.001
C  C44  1  0.39300605  0.66001429  0.45734072  1  -0.064497  2.9e-05  3.635533  0.0  -0.102142  2.9e-05  3.887916  0.0  -0.101523  1.4e-05  3.905929  0.0  0.206395  8.9e-05  0.00164  -0.102469  4.3e-05  3.876034  0.0
C  C45  1  0.60699542  0.33998647  0.54265908  1  -0.064511  3.8e-05  3.635617  0.0  -0.102164  2.8e-05  3.888003  0.0  -0.101547  1.4e-05  3.906017  0.0  0.206413  8.9e-05  0.001611  -0.102494  4.3e-05  3.876122  0.0
C  C46  1  0.54682565  0.70493439  0.52985927  1  0.011586  -1.1e-05  3.746204  0.0  -0.021211  -1e-06  4.008992  0.0  -0.019203  -8e-06  4.030285  0.0  0.471755  2.3e-05  -8.6e-05  -0.022752  1e-05  3.99482  0.0
C  C47  1  0.45317595  0.29506413  0.47014027  1  0.011602  -2.4e-05  3.746149  0.0  -0.021187  -1e-06  4.008932  0.0  -0.019178  -8e-06  4.030223  0.0  0.471774  2.4e-05  -5.3e-05  -0.022735  1.1e-05  3.994772  0.0
C  C48  1  0.58464530  0.85895288  0.43398904  1  0.172598  1.3e-05  3.612363  0.0  0.110509  5e-06  3.880013  0.0  0.125296  -1.7e-05  3.891448  0.0  0.93606  3.8e-05  0.143375  0.100673  2.3e-05  3.872653  0.0
C  C49  1  0.41535681  0.14104676  0.56601071  1  0.172665  3.6e-05  3.612288  0.0  0.110562  5e-06  3.879959  0.0  0.12536  -1.8e-05  3.891399  0.0  0.936064  3.8e-05  0.143409  0.10072  2.3e-05  3.872592  0.0
C  C50  1  0.77627232  0.39607292  0.03339702  1  -0.050489  0.005739  3.614693  0.008  -0.090328  0.002001  3.86886  0.003  -0.089342  0.001556  3.887189  0.002  0.261218  0.00507  0.007272  -0.091227  0.00245  3.857515  0.004
C  C51  1  0.22372695  0.60392560  0.96660579  1  -0.050476  0.005737  3.614619  0.008  -0.090339  0.002001  3.868797  0.003  -0.089351  0.001556  3.88712  0.002  0.261169  0.005069  0.007248  -0.091251  0.00245  3.857485  0.004
C  C52  1  0.70757441  0.24329117  0.00025966  1  0.020262  -0.005692  3.700245  -0.003  -0.006684  -8.6e-05  3.967659  0.001  -0.004117  -0.00061  3.987377  0.001  0.412041  0.001262  0.004571  -0.009079  0.000299  3.954397  0.002
C  C53  1  0.29242784  0.75670624  0.99974341  1  0.020154  -0.005694  3.700291  -0.003  -0.006769  -8.6e-05  3.96774  0.001  -0.004198  -0.000608  3.98746  0.001  0.411991  0.001264  0.004527  -0.009182  0.0003  3.954517  0.002
C  C54  1  0.95906131  0.31047581  0.10904972  1  0.180824  -0.02291  3.616012  -0.014  0.120278  -0.00459  3.896672  -0.002  0.137323  -0.003818  3.906237  -0.001  0.987044  -0.004843  0.149469  0.10865  -0.006058  3.889044  -0.002
C  C55  1  0.04094016  0.68952495  0.89095366  1  0.180862  -0.022935  3.615848  -0.014  0.12036  -0.004589  3.89653  -0.002  0.137389  -0.003812  3.906093  -0.001  0.987013  -0.004851  0.14954  0.108716  -0.006067  3.888919  -0.002
C  C56  1  0.09926446  0.98027560  0.18020925  1  0.676751  -0.002248  3.854927  -0.001  0.626511  0.004355  4.152921  0.005  0.666086  0.002917  4.142032  0.004  1.579803  0.007715  0.221175  0.597602  0.005789  4.159599  0.006
C  C57  1  0.90073197  0.01972181  0.81979230  1  0.676805  -0.002259  3.854841  -0.001  0.626639  0.004356  4.152711  0.005  0.666234  0.002918  4.141786  0.004  1.579939  0.007712  0.221207  0.597735  0.005786  4.159391  0.006
C  C58  1  0.21255895  0.39048361  0.68145701  1  -0.078084  0.001201  3.759382  0.002  -0.050576  0.000298  3.998902  0.0  -0.062261  0.000211  4.022927  0.0  -0.016211  0.000868  -0.020993  -0.043021  0.00042  3.982511  0.001
C  C59  1  0.78744136  0.60951715  0.31854190  1  -0.078127  0.001197  3.759471  0.002  -0.050605  0.000298  3.998976  0.0  -0.062293  0.000211  4.023007  0.0  -0.016084  0.00087  -0.020977  -0.043054  0.000421  3.982598  0.001
C  C60  1  0.12608205  0.47188789  0.64136513  1  -0.035933  -0.00334  3.67214  -0.002  -0.076746  -0.000805  3.923783  0.0  -0.070835  -0.000563  3.940642  0.0  -0.006058  -0.001169  -0.069685  -0.080284  -0.001319  3.912768  -0.001
C  C61  1  0.87391877  0.52811399  0.35863328  1  -0.035934  -0.003358  3.672024  -0.002  -0.076766  -0.000806  3.923693  0.0  -0.070853  -0.000562  3.940551  0.0  -0.006134  -0.001171  -0.069733  -0.080307  -0.001321  3.912691  -0.001
C  C62  1  0.19539251  0.62741236  0.67861701  1  -0.08309  0.000729  3.779624  0.001  -0.057397  4.5e-05  4.022004  0.0  -0.069247  6.2e-05  4.045932  0.0  -0.039455  0.000162  -0.0226  -0.050122  -9e-06  4.006349  0.0
C  C63  1  0.80460832  0.37258952  0.32138211  1  -0.083092  0.000727  3.779537  0.001  -0.057402  4.5e-05  4.021921  0.0  -0.069252  6.2e-05  4.045848  0.0  -0.039375  0.000163  -0.022578  -0.050134  -8e-06  4.006281  0.0
C  C64  1  0.35457881  0.70123313  0.75292049  1  -0.041179  -0.002803  3.675631  -0.002  -0.082948  -0.000345  3.925132  0.0  -0.076788  -0.000413  3.941354  0.0  0.007184  8e-05  -0.069776  -0.086326  -0.000324  3.914102  0.0
C  C65  1  0.64542201  0.29876875  0.24707792  1  -0.04122  -0.002794  3.675761  -0.002  -0.082943  -0.000346  3.925252  0.0  -0.076784  -0.000413  3.941471  0.0  0.007026  8e-05  -0.06981  -0.086325  -0.000324  3.914235  0.0
C  C66  1  0.44169082  0.62106446  0.79438556  1  -0.080207  0.005328  3.766186  0.008  -0.051082  0.002263  3.998368  0.003  -0.062301  0.001498  4.021455  0.002  -0.066422  0.006078  -0.019547  -0.044281  0.003019  3.983437  0.005
C  C67  1  0.55830897  0.37893518  0.20561243  1  -0.080121  0.005321  3.766279  0.008  -0.050992  0.002262  3.998447  0.003  -0.062211  0.001498  4.021535  0.002  -0.066513  0.006075  -0.019496  -0.044187  0.003017  3.983518  0.005
C  C68  1  0.36972872  0.46518585  0.75871146  1  -0.049223  -0.003093  3.667596  -0.002  -0.089583  -0.000367  3.916991  0.0  -0.084176  -0.000258  3.93336  0.0  0.028963  -0.000288  -0.070776  -0.092369  -0.000707  3.905391  0.0
C  C69  1  0.63027094  0.53481603  0.24128822  1  -0.049177  -0.003069  3.667676  -0.002  -0.089565  -0.000366  3.917065  0.0  -0.084161  -0.000257  3.933439  0.0  0.028899  -0.00029  -0.070759  -0.09236  -0.000709  3.905483  0.0
C  C70  1  0.12728472  0.22431787  0.65010144  1  0.654047  9.3e-05  3.913643  0.0  0.599572  0.000142  4.205955  0.0  0.634139  9.6e-05  4.20161  0.0  1.554452  0.000276  0.202138  0.576371  0.000185  4.207566  0.0
C  C71  1  0.87271507  0.77568177  0.34989584  1  0.654085  9.1e-05  3.913575  0.0  0.599626  0.000142  4.20585  0.0  0.634192  9.6e-05  4.201506  0.0  1.554433  0.000276  0.202181  0.576428  0.000186  4.207463  0.0
C  C72  1  0.09534086  0.71395573  0.64555445  1  0.636738  -0.000211  3.924315  0.0  0.585212  -3.9e-05  4.215389  0.0  0.619385  -2.8e-05  4.210473  0.0  1.527219  6e-06  0.197246  0.562172  -5.8e-05  4.217763  0.0
C  C73  1  0.90465893  0.28604392  0.35444282  1  0.636681  -0.000206  3.924388  0.0  0.585136  -3.9e-05  4.215492  0.0  0.619308  -2.9e-05  4.210578  0.0  1.527163  5e-06  0.197228  0.562099  -5.8e-05  4.217865  0.0
C  C74  1  0.60216089  0.70278715  0.88336575  1  0.646507  -0.007104  3.914833  -0.006  0.604434  0.000294  4.213351  0.001  0.641829  0.000272  4.207244  0.001  1.575846  0.000446  0.205989  0.577794  0.000167  4.215656  0.001
C  C75  1  0.39783709  0.29721361  0.11663356  1  0.646369  -0.007098  3.914971  -0.006  0.604276  0.000295  4.21352  0.001  0.641671  0.000272  4.207418  0.001  1.576093  0.000448  0.205924  0.577623  0.000168  4.215858  0.001
N  N76  1  0.82301091  0.19176398  0.04784526  1  -0.389431  0.042613  3.353577  0.066  -0.347497  0.030412  3.677979  0.038  -0.374883  0.024171  3.690196  0.029  -1.248776  0.069174  -0.365072  -0.325731  0.036112  3.66857  0.046
N  N77  1  0.17699121  0.80823566  0.95215808  1  -0.389392  0.042619  3.35352  0.066  -0.347461  0.030412  3.677901  0.038  -0.374847  0.024168  3.690121  0.029  -1.248743  0.069146  -0.36506  -0.325678  0.036096  3.668494  0.046
N  N78  1  0.93585904  0.43793974  0.10307326  1  -0.091564  7.4e-05  3.57561  0.002  -0.001758  0.000334  3.784899  0.002  -0.016959  0.00025  3.810528  0.001  -1.272809  0.001957  -0.221427  0.008182  0.000359  3.768069  0.002
N  N79  1  0.06414139  0.56205879  0.89692827  1  -0.091566  7.5e-05  3.575571  0.002  -0.00177  0.000334  3.784855  0.002  -0.016971  0.000248  3.810488  0.001  -1.272816  0.001955  -0.221438  0.008164  0.000358  3.768047  0.002
N  N80  1  0.66480107  0.82774744  0.51421364  1  -0.401336  2.5e-05  3.289605  0.0  -0.323999  2.3e-05  3.574352  0.0  -0.346681  -0.0  3.592102  0.0  -1.219095  0.000124  -0.359209  -0.308011  5.3e-05  3.561409  0.0
N  N81  1  0.33520002  0.17224997  0.48578569  1  -0.401284  1.6e-05  3.289498  0.0  -0.323946  2.4e-05  3.574241  0.0  -0.346628  1e-06  3.591985  0.0  -1.219084  0.000125  -0.359201  -0.307969  5.3e-05  3.561316  0.0
N  N82  1  0.41846203  0.75869596  0.39695319  1  -0.083777  3.1e-05  3.581589  0.0  0.006114  7e-06  3.791777  0.0  -0.00878  -2e-06  3.81719  0.0  -1.273896  7.7e-05  -0.220762  0.016005  2.8e-05  3.77468  0.0
N  N83  1  0.58153892  0.24130368  0.60304640  1  -0.083753  2.2e-05  3.581567  0.0  0.006135  8e-06  3.791727  0.0  -0.008755  -2e-06  3.817134  0.0  -1.273916  7.6e-05  -0.220763  0.016024  2.7e-05  3.774629  0.0
O  O84  1  0.01703581  0.95839202  0.08587140  1  -0.670379  0.053506  2.22435  0.089  -0.63882  0.04423  2.543649  0.064  -0.680875  0.03327  2.525842  0.047  -1.163225  0.107415  -0.316361  -0.601778  0.055779  2.552984  0.081
O  O85  1  0.98295440  0.04160204  0.91413032  1  -0.670467  0.053508  2.224319  0.089  -0.638928  0.044231  2.54357  0.064  -0.680985  0.033272  2.525746  0.047  -1.163353  0.107375  -0.316418  -0.601913  0.055759  2.552932  0.081
O  O86  1  0.13869255  0.09658247  0.24991136  1  -0.617405  0.006297  1.975992  0.011  -0.5627  0.006638  2.227663  0.012  -0.589588  0.004742  2.214896  0.009  -1.168437  0.018461  -0.31713  -0.543557  0.008977  2.235885  0.015
O  O87  1  0.86130840  0.90341717  0.75008965  1  -0.617409  0.006301  1.975975  0.011  -0.562729  0.006639  2.227609  0.012  -0.589624  0.004742  2.21483  0.009  -1.168569  0.018459  -0.317141  -0.543601  0.008976  2.235833  0.015
O  O88  1  0.00625106  0.15446090  0.56532898  1  -0.681457  0.000125  2.019513  0.0  -0.609654  5.6e-05  2.278561  0.0  -0.640756  2.9e-05  2.267797  0.0  -1.184648  0.000219  -0.335641  -0.586795  9.3e-05  2.284549  0.0
O  O89  1  0.99374808  0.84553986  0.43466906  1  -0.681492  0.000126  2.019436  0.0  -0.609691  5.6e-05  2.278462  0.0  -0.640798  2.9e-05  2.267712  0.0  -1.184573  0.00022  -0.335664  -0.586824  9.3e-05  2.284446  0.0
O  O90  1  0.17137718  0.15341409  0.71040363  1  -0.660718  0.000118  2.068728  0.0  -0.593217  7.6e-05  2.304461  0.0  -0.623251  -3.6e-05  2.297275  0.0  -1.195229  0.000913  -0.314257  -0.571691  0.000228  2.309416  0.001
O  O91  1  0.82862093  0.84658444  0.28959470  1  -0.660694  0.000119  2.068697  0.0  -0.59321  7.6e-05  2.304435  0.0  -0.623242  -3.6e-05  2.297251  0.0  -1.195243  0.000915  -0.314281  -0.571701  0.000228  2.309406  0.001
O  O92  1  0.93762635  0.64823572  0.59904245  1  -0.617345  0.000112  1.940008  0.0  -0.560796  4.6e-05  2.174237  0.0  -0.588027  2.3e-05  2.16651  0.0  -1.166781  0.00022  -0.313982  -0.541175  8.8e-05  2.17825  0.0
O  O93  1  0.06237382  0.35176727  0.40095816  1  -0.617342  0.000112  1.940006  0.0  -0.560774  4.6e-05  2.174228  0.0  -0.588006  2.3e-05  2.166504  0.0  -1.166773  0.000221  -0.313963  -0.541153  8.9e-05  2.178249  0.0
O  O94  1  0.17560910  0.85776307  0.66893454  1  -0.673202  0.000197  2.032775  0.001  -0.598714  0.00018  2.269969  0.0  -0.629331  5.7e-05  2.259567  0.0  -1.163388  0.000975  -0.332416  -0.576805  0.000331  2.277349  0.001
O  O95  1  0.82439172  0.14223881  0.33106243  1  -0.673155  0.000196  2.032838  0.001  -0.59866  0.00018  2.270023  0.0  -0.629277  5.7e-05  2.259627  0.0  -1.163339  0.000976  -0.332407  -0.576757  0.000332  2.277405  0.001
O  O96  1  0.68116721  0.63416244  0.92360723  1  -0.611247  0.0012  1.900934  0.003  -0.575935  0.002036  2.12641  0.004  -0.599879  0.001193  2.1168  0.002  -1.180989  0.006953  -0.321916  -0.558101  0.002944  2.131959  0.005
O  O97  1  0.31883025  0.36583721  0.07639187  1  -0.611173  0.001199  1.901019  0.003  -0.575876  0.002036  2.126515  0.004  -0.599818  0.001194  2.116907  0.002  -1.181062  0.006946  -0.321914  -0.558065  0.002941  2.132083  0.005
O  O98  1  0.64366172  0.84594317  0.91255878  1  -0.640167  0.062677  2.103487  0.105  -0.607802  0.044381  2.394637  0.068  -0.652718  0.031905  2.382849  0.047  -1.133462  0.111407  -0.331513  -0.569767  0.056792  2.400364  0.087
O  O99  1  0.35633574  0.15405647  0.08743960  1  -0.640171  0.06268  2.103483  0.105  -0.607779  0.044383  2.394615  0.068  -0.652694  0.031906  2.38283  0.047  -1.133487  0.11134  -0.331541  -0.56976  0.056758  2.400363  0.087
O  O100  1  0.69456447  0.94218936  0.14539894  1  -0.817602  0.031551  1.926446  0.055  -0.777005  0.029387  2.12508  0.044  -0.8043  0.023828  2.085859  0.036  -1.21791  0.067247  -0.56265  -0.753804  0.034906  2.152551  0.052
O  O101  1  0.30543312  0.05780805  0.85460062  1  -0.81758  0.031554  1.926455  0.055  -0.776999  0.029388  2.125127  0.044  -0.804284  0.023828  2.085879  0.036  -1.217658  0.067228  -0.562657  -0.753802  0.034896  2.15263  0.052
