# generated using pymatgen
data_CuH8C13N3
_symmetry_space_group_name_H-M   'P 1'
_cell_length_a   9.07670433
_cell_length_b   9.07668466
_cell_length_c   11.59896149
_cell_angle_alpha   90.00062992
_cell_angle_beta   89.99948902
_cell_angle_gamma   120.00004946
_symmetry_Int_Tables_number   1
_chemical_formula_structural   CuH8C13N3
_chemical_formula_sum   'Cu3 H24 C39 N9'
_cell_volume   827.57041780
_cell_formula_units_Z   3
loop_
 _symmetry_equiv_pos_site_id
 _symmetry_equiv_pos_as_xyz
  1  'x, y, z'
loop_
 _atom_site_type_symbol
 _atom_site_label
 _atom_site_symmetry_multiplicity
 _atom_site_fract_x
 _atom_site_fract_y
 _atom_site_fract_z
 _atom_site_occupancy
 _atom_site_hle17_bader_spin_density
 _atom_site_hle17_ddec_charge
 _atom_site_hle17_ddec_spin_density
 _atom_site_hle17_ddec_sum_bond_order
 _atom_site_hle17_magmom
 _atom_site_hse06_10hf_bader_spin_density
 _atom_site_hse06_10hf_ddec_charge
 _atom_site_hse06_10hf_ddec_spin_density
 _atom_site_hse06_10hf_ddec_sum_bond_order
 _atom_site_hse06_10hf_magmom
 _atom_site_hse06_bader_spin_density
 _atom_site_hse06_ddec_charge
 _atom_site_hse06_ddec_spin_density
 _atom_site_hse06_ddec_sum_bond_order
 _atom_site_hse06_magmom
 _atom_site_pbe_bader_spin_density
 _atom_site_pbe_cm5_charge
 _atom_site_pbe_ddec_charge
 _atom_site_pbe_ddec_spin_density
 _atom_site_pbe_ddec_sum_bond_order
 _atom_site_pbe_magmom
Cu  Cu0  1  0.99429386  0.19180010  0.00982661  1  0  0.374549  0  2.464401  0  0  0.279085  0  2.979842  0  0  0.261003  0  2.948032  0  0  0.535203  0.294838  0  2.997589  0
Cu  Cu1  1  0.80819157  0.80250270  0.34315889  1  0  0.374503  0  2.46441  0  0  0.279018  0  2.979854  0  0  0.260951  0  2.948047  0  0  0.535167  0.294777  0  2.99759  0
Cu  Cu2  1  0.19750036  0.00570525  0.67648833  1  0  0.37456  0  2.464313  0  0  0.279103  0  2.979754  0  0  0.261028  0  2.947936  0  0  0.535181  0.294851  0  2.997507  0
H  H3  1  0.62204941  0.07111456  0.91031148  1  0  0.072974  0  0.936926  0  0  0.082055  0  1.001576  0  0  0.084855  0  0.999394  0  0  0.112758  0.080007  0  1.003217  0
H  H4  1  0.92888049  0.55093013  0.24364157  1  0  0.073021  0  0.937006  0  0  0.082133  0  1.001607  0  0  0.08493  0  0.999425  0  0  0.112791  0.080086  0  1.003248  0
H  H5  1  0.44907239  0.37794886  0.57697151  1  0  0.072971  0  0.936964  0  0  0.082074  0  1.001587  0  0  0.084873  0  0.999406  0  0  0.112738  0.080027  0  1.003228  0
H  H6  1  0.44843173  0.21416002  0.88385001  1  0  0.111449  0  0.961409  0  0  0.119785  0  1.024454  0  0  0.123142  0  1.023639  0  0  0.104675  0.117465  0  1.024951  0
H  H7  1  0.78584344  0.23426820  0.21718403  1  0  0.111444  0  0.961356  0  0  0.119761  0  1.024436  0  0  0.123115  0  1.023618  0  0  0.104657  0.117442  0  1.024933  0
H  H8  1  0.76573395  0.55157149  0.55051359  1  0  0.111443  0  0.961416  0  0  0.119779  0  1.024462  0  0  0.123138  0  1.023641  0  0  0.104662  0.117461  0  1.02496  0
H  H9  1  0.58728643  0.52876417  0.91900574  1  0  0.092451  0  0.956845  0  0  0.10557  0  1.015948  0  0  0.108335  0  1.013843  0  0  0.105347  0.103508  0  1.017576  0
H  H10  1  0.47124260  0.05852096  0.25234272  1  0  0.092469  0  0.95688  0  0  0.10561  0  1.015942  0  0  0.108359  0  1.013858  0  0  0.105365  0.103549  0  1.017571  0
H  H11  1  0.94148183  0.41271975  0.58567500  1  0  0.092467  0  0.956868  0  0  0.105607  0  1.015932  0  0  0.108362  0  1.013842  0  0  0.105365  0.103547  0  1.01756  0
H  H12  1  0.85786609  0.80667991  0.96936134  1  0  0.104503  0  0.949539  0  0  0.11535  0  1.00949  0  0  0.118849  0  1.007762  0  0  0.104632  0.112758  0  1.010903  0
H  H13  1  0.19332386  0.05118439  0.30269818  1  0  0.104513  0  0.949534  0  0  0.115357  0  1.009484  0  0  0.118855  0  1.007758  0  0  0.104632  0.112766  0  1.010898  0
H  H14  1  0.94881296  0.14213134  0.63603521  1  0  0.104452  0  0.949553  0  0  0.115308  0  1.009505  0  0  0.118806  0  1.007779  0  0  0.104597  0.112717  0  1.010915  0
H  H15  1  0.37705293  0.44260991  0.08909216  1  0  0.073325  0  0.936687  0  0  0.08235  0  1.001352  0  0  0.085071  0  0.999311  0  0  0.112915  0.080366  0  1.002888  0
H  H16  1  0.55738665  0.93444152  0.42242607  1  0  0.073357  0  0.9367  0  0  0.082388  0  1.001358  0  0  0.085112  0  0.999312  0  0  0.112903  0.080404  0  1.002894  0
H  H17  1  0.06555946  0.62295278  0.75575977  1  0  0.073328  0  0.936719  0  0  0.082346  0  1.001388  0  0  0.085067  0  0.999341  0  0  0.112911  0.080361  0  1.002923  0
H  H18  1  0.55639311  0.75957669  0.11406495  1  0  0.118057  0  0.95444  0  0  0.12837  0  1.011883  0  0  0.131334  0  1.011899  0  0  0.107698  0.126284  0  1.011947  0
H  H19  1  0.24042013  0.79681756  0.44740125  1  0  0.118049  0  0.954397  0  0  0.128361  0  1.011853  0  0  0.131324  0  1.011864  0  0  0.107685  0.12627  0  1.011917  0
H  H20  1  0.20317643  0.44360632  0.78073833  1  0  0.118057  0  0.954235  0  0  0.128346  0  1.011733  0  0  0.131305  0  1.011748  0  0  0.107656  0.126255  0  1.011796  0
H  H21  1  0.42234083  0.93951855  0.07991573  1  0  0.091552  0  0.957626  0  0  0.10474  0  1.016906  0  0  0.107359  0  1.014966  0  0  0.105368  0.10284  0  1.018322  0
H  H22  1  0.06048042  0.48282340  0.41325179  1  0  0.091566  0  0.95756  0  0  0.104758  0  1.016844  0  0  0.107378  0  1.014904  0  0  0.105386  0.102859  0  1.018259  0
H  H23  1  0.51717189  0.57765487  0.74658645  1  0  0.091561  0  0.957448  0  0  0.104775  0  1.016726  0  0  0.107395  0  1.014783  0  0  0.105379  0.102871  0  1.01814  0
H  H24  1  0.15496736  0.95290115  0.02901995  1  0  0.106109  0  0.946311  0  0  0.117182  0  1.005145  0  0  0.120685  0  1.003542  0  0  0.105809  0.114612  0  1.006425  0
H  H25  1  0.04709512  0.20205881  0.36235642  1  0  0.106167  0  0.946274  0  0  0.117265  0  1.005068  0  0  0.12077  0  1.00346  0  0  0.105866  0.114697  0  1.006348  0
H  H26  1  0.79793617  0.84503090  0.69569412  1  0  0.106196  0  0.946212  0  0  0.117299  0  1.005013  0  0  0.120805  0  1.003404  0  0  0.10587  0.114728  0  1.006292  0
C  C27  1  0.90692260  0.04099218  0.13222602  1  0  -0.139643  0  3.574488  0  0  -0.147295  0  3.966565  0  0  -0.131664  0  3.962446  0  0  -0.073141  -0.158305  0  3.968134  0
C  C28  1  0.95900696  0.86593082  0.46555837  1  0  -0.139542  0  3.5746  0  0  -0.147177  0  3.966665  0  0  -0.131557  0  3.962556  0  0  -0.073052  -0.158184  0  3.968226  0
C  C29  1  0.13407328  0.09308227  0.79888610  1  0  -0.139427  0  3.574239  0  0  -0.147074  0  3.966333  0  0  -0.131441  0  3.962213  0  0  -0.073023  -0.158094  0  3.967904  0
C  C30  1  0.67740916  0.20712440  0.92651936  1  0  0.123566  0  3.706089  0  0  0.09181  0  3.966609  0  0  0.097719  0  3.981428  0  0  0.044452  0.088076  0  3.956828  0
C  C31  1  0.79288220  0.47028348  0.25985178  1  0  0.123427  0  3.7061  0  0  0.091647  0  3.96662  0  0  0.097559  0  3.981433  0  0  0.044349  0.087915  0  3.956841  0
C  C32  1  0.52971487  0.32259509  0.59318364  1  0  0.123528  0  3.705999  0  0  0.091774  0  3.966504  0  0  0.097679  0  3.981322  0  0  0.044419  0.088042  0  3.956726  0
C  C33  1  0.58095574  0.28788520  0.91136266  1  0  -0.118059  0  3.741617  0  0  -0.130574  0  3.993239  0  0  -0.136655  0  4.015023  0  0  -0.088731  -0.126923  0  3.979071  0
C  C34  1  0.71211776  0.29307250  0.24469649  1  0  -0.118057  0  3.741624  0  0  -0.130553  0  3.993267  0  0  -0.136634  0  4.015058  0  0  -0.088741  -0.126901  0  3.979095  0
C  C35  1  0.70693238  0.41904327  0.57802604  1  0  -0.118059  0  3.741661  0  0  -0.130573  0  3.993278  0  0  -0.136662  0  4.015081  0  0  -0.088718  -0.126923  0  3.979109  0
C  C36  1  0.65796482  0.46168814  0.92989152  1  0  -0.064657  0  3.701256  0  0  -0.08751  0  3.945063  0  0  -0.084822  0  3.962497  0  0  -0.072886  -0.089147  0  3.93363  0
C  C37  1  0.53831727  0.19627450  0.26322853  1  0  -0.064721  0  3.701403  0  0  -0.087623  0  3.945182  0  0  -0.084925  0  3.962618  0  0  -0.072887  -0.08926  0  3.933746  0
C  C38  1  0.80372584  0.34204085  0.59656323  1  0  -0.06475  0  3.701558  0  0  -0.087631  0  3.945359  0  0  -0.084936  0  3.962797  0  0  -0.072918  -0.089267  0  3.933924  0
C  C39  1  0.83040342  0.55363005  0.96395211  1  0  0.022822  0  3.815107  0  0  0.039574  0  4.045089  0  0  0.037237  0  4.069805  0  0  -0.004291  0.040956  0  4.028519  0
C  C40  1  0.44637034  0.27676398  0.29729260  1  0  0.022777  0  3.815196  0  0  0.039643  0  4.045044  0  0  0.037309  0  4.069754  0  0  -0.004342  0.041025  0  4.02847  0
C  C41  1  0.72323927  0.16960906  0.63062358  1  0  0.02275  0  3.814941  0  0  0.03956  0  4.044888  0  0  0.037224  0  4.0696  0  0  -0.004315  0.040943  0  4.028317  0
C  C42  1  0.91521892  0.45946939  0.98055461  1  0  0.112581  0  3.761491  0  0  0.107582  0  3.998884  0  0  0.110762  0  4.018561  0  0  0.106957  0.10548  0  3.985753  0
C  C43  1  0.54052961  0.45574863  0.31389107  1  0  0.112652  0  3.761301  0  0  0.107606  0  3.998703  0  0  0.110788  0  4.01838  0  0  0.107034  0.105504  0  3.985573  0
C  C44  1  0.54424970  0.08477577  0.64722189  1  0  0.112799  0  3.761152  0  0  0.107748  0  3.998599  0  0  0.110929  0  4.018275  0  0  0.107087  0.105646  0  3.985472  0
C  C45  1  0.92188643  0.73350178  0.98256370  1  0  -0.082843  0  3.716513  0  0  -0.103067  0  3.961362  0  0  -0.106319  0  3.984143  0  0  -0.07795  -0.100874  0  3.946102  0
C  C46  1  0.26650363  0.18838330  0.31590228  1  0  -0.082738  0  3.716629  0  0  -0.10299  0  3.961434  0  0  -0.10624  0  3.984216  0  0  -0.077927  -0.100796  0  3.946172  0
C  C47  1  0.81161070  0.07810620  0.64923402  1  0  -0.082703  0  3.716707  0  0  -0.10295  0  3.961557  0  0  -0.1062  0  3.984341  0  0  -0.077951  -0.100757  0  3.946295  0
C  C48  1  0.32407099  0.52536728  0.07316628  1  0  0.12594  0  3.702454  0  0  0.093909  0  3.964435  0  0  0.099831  0  3.97917  0  0  0.045842  0.090205  0  3.954667  0
C  C49  1  0.47463173  0.79870468  0.40649676  1  0  0.125758  0  3.702351  0  0  0.093728  0  3.96433  0  0  0.099648  0  3.979064  0  0  0.04582  0.090023  0  3.954562  0
C  C50  1  0.20129217  0.67593406  0.73982619  1  0  0.126001  0  3.702231  0  0  0.093988  0  3.964207  0  0  0.099914  0  3.978934  0  0  0.045953  0.090275  0  3.954435  0
C  C51  1  0.42369974  0.70253574  0.08737572  1  0  -0.118387  0  3.737637  0  0  -0.132085  0  3.990688  0  0  -0.137878  0  4.012391  0  0  -0.08831  -0.128633  0  3.976585  0
C  C52  1  0.29745934  0.72115885  0.42070695  1  0  -0.118317  0  3.737762  0  0  -0.132003  0  3.990801  0  0  -0.137793  0  4.012504  0  0  -0.088262  -0.128547  0  3.976692  0
C  C53  1  0.27883920  0.57630374  0.75403882  1  0  -0.118387  0  3.737467  0  0  -0.132068  0  3.990568  0  0  -0.137854  0  4.012269  0  0  -0.088285  -0.128612  0  3.976458  0
C  C54  1  0.34929333  0.80179295  0.06926617  1  0  -0.064982  0  3.70413  0  0  -0.087675  0  3.948831  0  0  -0.085287  0  3.966515  0  0  -0.072765  -0.08916  0  3.937184  0
C  C55  1  0.19820784  0.54750222  0.40259804  1  0  -0.06498  0  3.704347  0  0  -0.087697  0  3.949063  0  0  -0.085311  0  3.96675  0  0  -0.072797  -0.089179  0  3.937411  0
C  C56  1  0.45249125  0.65070447  0.73593001  1  0  -0.065022  0  3.704325  0  0  -0.087744  0  3.949043  0  0  -0.08536  0  3.966733  0  0  -0.072833  -0.089219  0  3.937385  0
C  C57  1  0.17676519  0.72415726  0.03571862  1  0  0.022145  0  3.817566  0  0  0.039266  0  4.04709  0  0  0.036932  0  4.072054  0  0  -0.004099  0.040635  0  4.030424  0
C  C58  1  0.27584292  0.45260928  0.36905556  1  0  0.022135  0  3.8176  0  0  0.039272  0  4.04713  0  0  0.036939  0  4.072094  0  0  -0.00413  0.04064  0  4.030463  0
C  C59  1  0.54738604  0.82322889  0.70238431  1  0  0.02215  0  3.817501  0  0  0.039266  0  4.047054  0  0  0.036933  0  4.072019  0  0  -0.004067  0.040632  0  4.03039  0
C  C60  1  0.08857425  0.54491119  0.02004521  1  0  0.113221  0  3.759508  0  0  0.107513  0  3.997539  0  0  0.110555  0  4.017368  0  0  0.106991  0.105494  0  3.984346  0
C  C61  1  0.45508788  0.54366312  0.35337891  1  0  0.113329  0  3.759674  0  0  0.107582  0  3.997784  0  0  0.110625  0  4.017614  0  0  0.10709  0.105563  0  3.98459  0
C  C62  1  0.45633307  0.91142433  0.68670688  1  0  0.11321  0  3.759831  0  0  0.107515  0  3.997895  0  0  0.110555  0  4.017728  0  0  0.106986  0.105488  0  3.984702  0
C  C63  1  0.08846345  0.81555297  0.01639950  1  0  -0.087224  0  3.719181  0  0  -0.107256  0  3.964444  0  0  -0.110573  0  3.987053  0  0  -0.078838  -0.105049  0  3.949283  0
C  C64  1  0.18445522  0.27290664  0.34973700  1  0  -0.087401  0  3.719294  0  0  -0.107445  0  3.964551  0  0  -0.110763  0  3.98716  0  0  -0.078887  -0.105238  0  3.949389  0
C  C65  1  0.72708758  0.91154998  0.68306680  1  0  -0.087351  0  3.7195  0  0  -0.107403  0  3.964777  0  0  -0.110722  0  3.987389  0  0  -0.078837  -0.105193  0  3.949612  0
N  N66  1  0.85638073  0.94663462  0.21119407  1  0  -0.407217  0  3.356065  0  0  -0.349996  0  3.698597  0  0  -0.362975  0  3.704165  0  0  -0.45072  -0.341572  0  3.693729  0
N  N67  1  0.05336433  0.90974152  0.54451972  1  0  -0.40728  0  3.356114  0  0  -0.350069  0  3.698648  0  0  -0.363044  0  3.70421  0  0  -0.450746  -0.341649  0  3.693789  0
N  N68  1  0.09024890  0.14362098  0.87786423  1  0  -0.407461  0  3.355743  0  0  -0.350243  0  3.698291  0  0  -0.363222  0  3.703853  0  0  -0.45084  -0.341819  0  3.693421  0
N  N69  1  0.83954612  0.28914250  0.96077220  1  0  -0.292873  0  3.319477  0  0  -0.235962  0  3.609513  0  0  -0.240313  0  3.615598  0  0  -0.343396  -0.233585  0  3.605111  0
N  N70  1  0.71085822  0.55040413  0.29410548  1  0  -0.292808  0  3.319203  0  0  -0.235873  0  3.609252  0  0  -0.240228  0  3.615342  0  0  -0.343324  -0.233495  0  3.604848  0
N  N71  1  0.44959465  0.16045505  0.62743630  1  0  -0.292882  0  3.319224  0  0  -0.235979  0  3.609319  0  0  -0.240326  0  3.615399  0  0  -0.343367  -0.233603  0  3.604921  0
N  N72  1  0.16131092  0.44776002  0.04054119  1  0  -0.289353  0  3.317884  0  0  -0.232713  0  3.609083  0  0  -0.237178  0  3.615341  0  0  -0.343535  -0.230276  0  3.60461  0
N  N73  1  0.55223167  0.71354427  0.37386992  1  0  -0.289319  0  3.318076  0  0  -0.232694  0  3.609329  0  0  -0.237161  0  3.61559  0  0  -0.343626  -0.230255  0  3.604851  0
N  N74  1  0.28645580  0.83868914  0.70719867  1  0  -0.289443  0  3.318273  0  0  -0.232834  0  3.609515  0  0  -0.237301  0  3.615774  0  0  -0.34366  -0.230375  0  3.605021  0
