# generated using pymatgen
data_CdH14C14N2O5
_symmetry_space_group_name_H-M   'P 1'
_cell_length_a   7.65105708
_cell_length_b   10.24888665
_cell_length_c   11.12374556
_cell_angle_alpha   76.76646361
_cell_angle_beta   71.14918611
_cell_angle_gamma   63.45357516
_symmetry_Int_Tables_number   1
_chemical_formula_structural   CdH14C14N2O5
_chemical_formula_sum   'Cd2 H28 C28 N4 O10'
_cell_volume   734.76327818
_cell_formula_units_Z   2
loop_
 _symmetry_equiv_pos_site_id
 _symmetry_equiv_pos_as_xyz
  1  'x, y, z'
loop_
 _atom_site_type_symbol
 _atom_site_label
 _atom_site_symmetry_multiplicity
 _atom_site_fract_x
 _atom_site_fract_y
 _atom_site_fract_z
 _atom_site_occupancy
 _atom_site_hle17_bader_spin_density
 _atom_site_hle17_ddec_charge
 _atom_site_hle17_ddec_spin_density
 _atom_site_hle17_ddec_sum_bond_order
 _atom_site_hle17_magmom
 _atom_site_hse06_10hf_bader_spin_density
 _atom_site_hse06_10hf_ddec_charge
 _atom_site_hse06_10hf_ddec_spin_density
 _atom_site_hse06_10hf_ddec_sum_bond_order
 _atom_site_hse06_10hf_magmom
 _atom_site_hse06_bader_spin_density
 _atom_site_hse06_ddec_charge
 _atom_site_hse06_ddec_spin_density
 _atom_site_hse06_ddec_sum_bond_order
 _atom_site_hse06_magmom
 _atom_site_pbe_bader_spin_density
 _atom_site_pbe_cm5_charge
 _atom_site_pbe_ddec_charge
 _atom_site_pbe_ddec_spin_density
 _atom_site_pbe_ddec_sum_bond_order
 _atom_site_pbe_magmom
Cd  Cd0  1  0.28760602  0.73816682  0.21043678  1  0  1.062678  0  1.675477  0  0  0.859972  0  2.116477  0  0  0.921234  0  2.066007  0  0  0.767651  0.816542  0  2.150646  0
Cd  Cd1  1  0.71243017  0.26182284  0.78955798  1  0  1.062603  0  1.675508  0  0  0.859901  0  2.116477  0  0  0.92116  0  2.066017  0  0  0.767627  0.816472  0  2.150641  0
H  H2  1  0.26733501  0.02111212  0.31062288  1  0  0.098497  0  0.954723  0  0  0.105759  0  1.017354  0  0  0.10844  0  1.014812  0  0  0.117411  0.103725  0  1.019343  0
H  H3  1  0.73263919  0.97888916  0.68937940  1  0  0.098485  0  0.954674  0  0  0.105708  0  1.017345  0  0  0.108393  0  1.014796  0  0  0.117371  0.103675  0  1.01934  0
H  H4  1  0.64636716  0.51907505  0.52149157  1  0  0.106346  0  0.94217  0  0  0.122513  0  1.00241  0  0  0.123891  0  1.003087  0  0  0.102415  0.12152  0  1.001974  0
H  H5  1  0.35365982  0.48094640  0.47850390  1  0  0.106187  0  0.942171  0  0  0.122352  0  1.002449  0  0  0.12373  0  1.003118  0  0  0.102353  0.121354  0  1.002023  0
H  H6  1  0.69293875  0.67819167  0.48408803  1  0  0.110848  0  0.922347  0  0  0.128102  0  0.976528  0  0  0.130837  0  0.975042  0  0  0.104886  0.126138  0  0.9777  0
H  H7  1  0.30710545  0.32181345  0.51591665  1  0  0.110888  0  0.922095  0  0  0.128132  0  0.97631  0  0  0.13085  0  0.974839  0  0  0.104849  0.126167  0  0.977478  0
H  H8  1  0.21757784  0.06592142  0.76832624  1  0  0.118504  0  0.974538  0  0  0.128059  0  1.034055  0  0  0.13173  0  1.032267  0  0  0.109269  0.125334  0  1.035614  0
H  H9  1  0.78238811  0.93407571  0.23167363  1  0  0.118425  0  0.974669  0  0  0.127967  0  1.034172  0  0  0.131638  0  1.032383  0  0  0.109225  0.125233  0  1.035746  0
H  H10  1  0.99714320  0.41153900  0.43689887  1  0  0.103288  0  0.94456  0  0  0.119934  0  1.005618  0  0  0.121572  0  1.005477  0  0  0.103907  0.118604  0  1.006046  0
H  H11  1  0.00287772  0.58844685  0.56309445  1  0  0.103307  0  0.944563  0  0  0.119982  0  1.00563  0  0  0.12162  0  1.005489  0  0  0.103958  0.118651  0  1.006058  0
H  H12  1  0.91541337  0.43884443  0.30042999  1  0  0.106476  0  0.943921  0  0  0.121906  0  1.00537  0  0  0.124552  0  1.004053  0  0  0.103165  0.119861  0  1.006558  0
H  H13  1  0.08458152  0.56117717  0.69956476  1  0  0.106435  0  0.943858  0  0  0.121907  0  1.005337  0  0  0.124538  0  1.004045  0  0  0.103143  0.119855  0  1.00653  0
H  H14  1  0.22369748  0.36607038  0.00030569  1  0  0.1002  0  0.93316  0  0  0.113434  0  0.989171  0  0  0.116218  0  0.986926  0  0  0.111004  0.112184  0  0.989495  0
H  H15  1  0.77625768  0.63392806  0.99969096  1  0  0.100306  0  0.933086  0  0  0.11354  0  0.989111  0  0  0.116326  0  0.986865  0  0  0.111066  0.112291  0  0.989441  0
H  H16  1  0.30996799  0.57489780  0.98801077  1  0  0.076461  0  0.94115  0  0  0.084898  0  1.006849  0  0  0.087239  0  1.00469  0  0  0.116071  0.083865  0  1.00709  0
H  H17  1  0.69002950  0.42509262  0.01198864  1  0  0.076436  0  0.941038  0  0  0.084803  0  1.00683  0  0  0.087142  0  1.004673  0  0  0.116063  0.083767  0  1.007071  0
H  H18  1  0.21966230  0.20507379  0.86841472  1  0  0.115537  0  0.959983  0  0  0.123381  0  1.0226  0  0  0.126504  0  1.021568  0  0  0.108711  0.121045  0  1.023647  0
H  H19  1  0.78029816  0.79492041  0.13158661  1  0  0.115576  0  0.959938  0  0  0.12342  0  1.022543  0  0  0.126546  0  1.021508  0  0  0.108729  0.121084  0  1.02359  0
H  H20  1  0.24538881  0.87999230  0.64811415  1  0  0.111305  0  0.941744  0  0  0.121032  0  0.99981  0  0  0.124532  0  0.996632  0  0  0.111873  0.118388  0  1.002239  0
H  H21  1  0.75459226  0.11999746  0.35188149  1  0  0.111272  0  0.941845  0  0  0.121013  0  0.999903  0  0  0.124514  0  0.996724  0  0  0.111882  0.118365  0  1.002333  0
H  H22  1  0.29890917  0.62315747  0.75936657  1  0  0.115129  0  0.973514  0  0  0.123046  0  1.033584  0  0  0.126398  0  1.032532  0  0  0.108162  0.120552  0  1.034609  0
H  H23  1  0.70109952  0.37682926  0.24063289  1  0  0.115063  0  0.973433  0  0  0.122942  0  1.033592  0  0  0.126301  0  1.032531  0  0  0.108169  0.120451  0  1.034611  0
H  H24  1  0.25607700  0.27355046  0.22505474  1  0  0.119074  0  0.960479  0  0  0.126646  0  1.02161  0  0  0.130344  0  1.020205  0  0  0.110099  0.124048  0  1.022697  0
H  H25  1  0.74388320  0.72645515  0.77493868  1  0  0.119188  0  0.960165  0  0  0.126707  0  1.021364  0  0  0.130397  0  1.019976  0  0  0.110143  0.124123  0  1.022413  0
H  H26  1  0.91936405  0.83174376  0.44053981  1  0  0.408019  0  0.898844  0  0  0.379508  0  0.960213  0  0  0.389219  0  0.945798  0  0  0.279347  0.372667  0  0.970378  0
H  H27  1  0.08064434  0.16826288  0.55946620  1  0  0.407977  0  0.898892  0  0  0.379476  0  0.960255  0  0  0.389189  0  0.945832  0  0  0.279306  0.372634  0  0.970422  0
H  H28  1  0.05545298  0.87226871  0.48808422  1  0  0.41815  0  0.862835  0  0  0.394352  0  0.924602  0  0  0.402848  0  0.911909  0  0  0.292485  0.388333  0  0.93362  0
H  H29  1  0.94458768  0.12772381  0.51190743  1  0  0.418239  0  0.862668  0  0  0.394434  0  0.924489  0  0  0.40293  0  0.911794  0  0  0.292498  0.388411  0  0.933512  0
C  C30  1  0.25989627  0.06449278  0.21237461  1  0  0.135981  0  3.695581  0  0  0.104817  0  3.947041  0  0  0.111748  0  3.965711  0  0  0.051616  0.100124  0  3.934244  0
C  C31  1  0.74008067  0.93551246  0.78762367  1  0  0.136131  0  3.695713  0  0  0.104992  0  3.94716  0  0  0.111927  0  3.965813  0  0  0.051658  0.100296  0  3.93437  0
C  C32  1  0.70103623  0.58836711  0.44142026  1  0  -0.234738  0  3.679145  0  0  -0.276056  0  3.931833  0  0  -0.281443  0  3.940297  0  0  -0.166623  -0.272299  0  3.925776  0
C  C33  1  0.29900542  0.41164396  0.55857442  1  0  -0.23446  0  3.678651  0  0  -0.275803  0  3.931498  0  0  -0.281149  0  3.93992  0  0  -0.166413  -0.272037  0  3.925431  0
C  C34  1  0.04773063  0.58121703  0.30248812  1  0  0.689872  0  3.836329  0  0  0.641808  0  4.134618  0  0  0.675013  0  4.129817  0  0  0.197678  0.619173  0  4.136949  0
C  C35  1  0.95230956  0.41878148  0.69751226  1  0  0.689905  0  3.83613  0  0  0.641961  0  4.134293  0  0  0.675165  0  4.129489  0  0  0.197718  0.619317  0  4.136635  0
C  C36  1  0.24582946  0.02394436  0.01800758  1  0  0.17184  0  3.764609  0  0  0.166815  0  4.005988  0  0  0.173165  0  4.028277  0  0  0.115296  0.162623  0  3.990619  0
C  C37  1  0.75413994  0.97604559  0.98200061  1  0  0.1717  0  3.764753  0  0  0.166721  0  4.006043  0  0  0.173072  0  4.028326  0  0  0.115231  0.162534  0  3.990668  0
C  C38  1  0.24176671  0.95564237  0.81453961  1  0  -0.140226  0  3.675222  0  0  -0.160614  0  3.925505  0  0  -0.167721  0  3.946111  0  0  -0.077981  -0.155756  0  3.911641  0
C  C39  1  0.75821218  0.04434548  0.18545858  1  0  -0.140183  0  3.675412  0  0  -0.160561  0  3.925652  0  0  -0.167668  0  3.946257  0  0  -0.07799  -0.155698  0  3.911794  0
C  C40  1  0.54863254  0.65276377  0.36139721  1  0  0.685064  0  3.849865  0  0  0.639284  0  4.145872  0  0  0.67298  0  4.140534  0  0  0.195572  0.616418  0  4.148786  0
C  C41  1  0.45137822  0.34726086  0.63862082  1  0  0.684975  0  3.849581  0  0  0.639223  0  4.145613  0  0  0.672922  0  4.140264  0  0  0.195338  0.616343  0  4.148545  0
C  C42  1  0.25501243  0.91846651  0.94145714  1  0  0.167156  0  3.778902  0  0  0.161184  0  4.023034  0  0  0.167784  0  4.045173  0  0  0.114081  0.156781  0  4.007842  0
C  C43  1  0.74496317  0.08153470  0.05854494  1  0  0.16732  0  3.778654  0  0  0.161361  0  4.022752  0  0  0.16796  0  4.044894  0  0  0.114096  0.156949  0  4.00756  0
C  C44  1  0.91628366  0.49778279  0.37095048  1  0  -0.240386  0  3.6836  0  0  -0.28214  0  3.935464  0  0  -0.287213  0  3.94328  0  0  -0.166393  -0.278487  0  3.930039  0
C  C45  1  0.08374516  0.50221273  0.62904679  1  0  -0.240393  0  3.683528  0  0  -0.282297  0  3.935573  0  0  -0.287368  0  3.943409  0  0  -0.166441  -0.278635  0  3.930148  0
C  C46  1  0.23250376  0.25659211  0.04107237  1  0  -0.002528  0  3.710192  0  0  -0.023947  0  3.96687  0  0  -0.0208  0  3.984708  0  0  -0.066991  -0.026183  0  3.954303  0
C  C47  1  0.76745089  0.74340517  0.95892280  1  0  -0.00271  0  3.709965  0  0  -0.024137  0  3.96666  0  0  -0.020987  0  3.984487  0  0  -0.067113  -0.026387  0  3.954104  0
C  C48  1  0.29281481  0.68152972  0.93431163  1  0  0.141114  0  3.707206  0  0  0.109588  0  3.961501  0  0  0.116864  0  3.980203  0  0  0.051459  0.104641  0  3.948512  0
C  C49  1  0.70718044  0.31846016  0.06569458  1  0  0.140981  0  3.707352  0  0  0.109522  0  3.961668  0  0  0.116802  0  3.98037  0  0  0.051287  0.104575  0  3.948678  0
C  C50  1  0.23014438  0.16561781  0.96631637  1  0  -0.131526  0  3.680875  0  0  -0.152062  0  3.935741  0  0  -0.158411  0  3.956593  0  0  -0.078809  -0.148215  0  3.922142  0
C  C51  1  0.76982209  0.83437823  0.03368367  1  0  -0.13141  0  3.680856  0  0  -0.151955  0  3.935689  0  0  -0.158312  0  3.956552  0  0  -0.078738  -0.1481  0  3.922084  0
C  C52  1  0.25703167  0.85049553  0.74681167  1  0  0.013956  0  3.670312  0  0  -0.001821  0  3.91416  0  0  0.001469  0  3.931856  0  0  -0.057517  -0.003861  0  3.902225  0
C  C53  1  0.74296309  0.14948419  0.25318778  1  0  0.01398  0  3.670309  0  0  -0.001799  0  3.91418  0  0  0.001494  0  3.931872  0  0  -0.057449  -0.003834  0  3.90224  0
C  C54  1  0.28425979  0.71029014  0.80732261  1  0  -0.097161  0  3.689271  0  0  -0.110551  0  3.939825  0  0  -0.116948  0  3.960664  0  0  -0.075207  -0.106344  0  3.926092  0
C  C55  1  0.71572601  0.28969558  0.19268046  1  0  -0.096992  0  3.689002  0  0  -0.110408  0  3.939653  0  0  -0.116806  0  3.960488  0  0  -0.075183  -0.106196  0  3.925896  0
C  C56  1  0.24958029  0.20549511  0.16578243  1  0  -0.111291  0  3.708686  0  0  -0.124934  0  3.962346  0  0  -0.131722  0  3.983681  0  0  -0.079935  -0.120274  0  3.948032  0
C  C57  1  0.75036337  0.79452742  0.83421153  1  0  -0.111416  0  3.708361  0  0  -0.125013  0  3.962022  0  0  -0.131804  0  3.983361  0  0  -0.079914  -0.120341  0  3.947713  0
N  N58  1  0.27957357  0.78231484  0.99899993  1  0  -0.379218  0  3.291038  0  0  -0.303646  0  3.554996  0  0  -0.325266  0  3.57532  0  0  -0.336505  -0.289377  0  3.541505  0
N  N59  1  0.72042686  0.21767948  0.00099456  1  0  -0.37918  0  3.291141  0  0  -0.303613  0  3.555033  0  0  -0.325236  0  3.57536  0  0  -0.336403  -0.289335  0  3.541532  0
N  N60  1  0.25803252  0.97695833  0.14018389  1  0  -0.377848  0  3.288214  0  0  -0.300943  0  3.549408  0  0  -0.322532  0  3.570557  0  0  -0.331275  -0.285708  0  3.534329  0
N  N61  1  0.74195542  0.02303830  0.85982191  1  0  -0.377938  0  3.288311  0  0  -0.301063  0  3.549489  0  0  -0.322647  0  3.570631  0  0  -0.331269  -0.285835  0  3.534422  0
O  O62  1  0.60550958  0.61748871  0.24691704  1  0  -0.65304  0  1.964473  0  0  -0.577807  0  2.203352  0  0  -0.607863  0  2.193777  0  0  -0.332012  -0.556892  0  2.209004  0
O  O63  1  0.39450719  0.38249716  0.75310771  1  0  -0.652777  0  1.964683  0  0  -0.577594  0  2.203591  0  0  -0.607607  0  2.193949  0  0  -0.331838  -0.556679  0  2.209249  0
O  O64  1  0.98006270  0.71830915  0.31711152  1  0  -0.680541  0  2.016727  0  0  -0.599494  0  2.255048  0  0  -0.629984  0  2.244009  0  0  -0.330447  -0.578717  0  2.26244  0
O  O65  1  0.01998332  0.28168902  0.68288716  1  0  -0.680465  0  2.016504  0  0  -0.599501  0  2.254862  0  0  -0.629988  0  2.243818  0  0  -0.330468  -0.578722  0  2.262252  0
O  O66  1  0.36692120  0.73530190  0.41075749  1  0  -0.658625  0  1.915778  0  0  -0.596804  0  2.146961  0  0  -0.624816  0  2.136584  0  0  -0.336244  -0.577414  0  2.153471  0
O  O67  1  0.63313122  0.26476470  0.58923245  1  0  -0.658913  0  1.915389  0  0  -0.59698  0  2.14641  0  0  -0.625062  0  2.13615  0  0  -0.336242  -0.577572  0  2.152905  0
O  O68  1  0.22363205  0.51386431  0.23503312  1  0  -0.640169  0  1.90757  0  0  -0.581461  0  2.140592  0  0  -0.609268  0  2.133363  0  0  -0.331115  -0.56158  0  2.144237  0
O  O69  1  0.77639882  0.48612186  0.76497135  1  0  -0.640237  0  1.907409  0  0  -0.58152  0  2.140325  0  0  -0.609322  0  2.133093  0  0  -0.331122  -0.561638  0  2.143976  0
O  O70  1  0.91381496  0.90034531  0.49204357  1  0  -0.828217  0  1.737658  0  0  -0.783754  0  1.878668  0  0  -0.800595  0  1.851943  0  0  -0.605124  -0.771466  0  1.897405  0
O  O71  1  0.08621454  0.09965081  0.50796345  1  0  -0.828285  0  1.737604  0  0  -0.783825  0  1.878613  0  0  -0.800659  0  1.851894  0  0  -0.605101  -0.771532  0  1.897356  0
