# generated using pymatgen
data_HoCuH16C16(NO)8
_symmetry_space_group_name_H-M   'P 1'
_cell_length_a   9.23055223
_cell_length_b   10.84914668
_cell_length_c   10.84914139
_cell_angle_alpha   87.89214189
_cell_angle_beta   72.61324329
_cell_angle_gamma   72.61313215
_symmetry_Int_Tables_number   1
_chemical_formula_structural   HoCuH16C16(NO)8
_chemical_formula_sum   'Ho2 Cu2 H32 C32 N16 O16'
_cell_volume   987.81039527
_cell_formula_units_Z   2
loop_
 _symmetry_equiv_pos_site_id
 _symmetry_equiv_pos_as_xyz
  1  'x, y, z'
loop_
 _atom_site_type_symbol
 _atom_site_label
 _atom_site_symmetry_multiplicity
 _atom_site_fract_x
 _atom_site_fract_y
 _atom_site_fract_z
 _atom_site_occupancy
 _atom_site_pbe_bader_spin_density
 _atom_site_pbe_cm5_charge
 _atom_site_pbe_ddec_charge
 _atom_site_pbe_ddec_spin_density
 _atom_site_pbe_ddec_sum_bond_order
 _atom_site_pbe_magmom
Ho  Ho0  1  0.25000061  0.96738814  0.03261253  1  0  1.497661  2.15482  0  2.058741  0
Ho  Ho1  1  0.75000123  0.03261100  0.96738852  1  0  1.497671  2.154805  0  2.058786  0
Cu  Cu2  1  0.99999948  0.99999944  0.49999954  1  0  0.574857  0.349996  0  1.995639  0
Cu  Cu3  1  0.50000026  0.49999970  0.99999957  1  0  0.574874  0.350013  0  1.995639  0
H  H4  1  0.35381395  0.32250645  0.38486796  1  0  0.103595  0.09656  0  1.031022  0
H  H5  1  0.14618292  0.61513155  0.67749474  1  0  0.103612  0.09659  0  1.031016  0
H  H6  1  0.64618222  0.67749262  0.61513088  1  0  0.103625  0.096599  0  1.03099  0
H  H7  1  0.85381552  0.38486753  0.32250351  1  0  0.10363  0.096631  0  1.031049  0
H  H8  1  0.06325394  0.36033744  0.44750046  1  0  0.098668  0.098606  0  1.020774  0
H  H9  1  0.43674299  0.55250170  0.63965907  1  0  0.098665  0.098608  0  1.02071  0
H  H10  1  0.93674257  0.63965776  0.55249939  1  0  0.098676  0.098575  0  1.02077  0
H  H11  1  0.56325547  0.44750029  0.36033903  1  0  0.098671  0.098598  0  1.02075  0
H  H12  1  0.93179058  0.25103181  0.63768061  1  0  0.104056  0.108955  0  1.013192  0
H  H13  1  0.56821138  0.36232240  0.74896435  1  0  0.104057  0.108964  0  1.013174  0
H  H14  1  0.06821123  0.74896441  0.36231967  1  0  0.104057  0.108958  0  1.013192  0
H  H15  1  0.43178862  0.63768154  0.25103418  1  0  0.10405  0.108943  0  1.013189  0
H  H16  1  0.38432679  0.06888142  0.69836807  1  0  0.113796  0.121271  0  1.007666  0
H  H17  1  0.11567817  0.30162982  0.93112120  1  0  0.113798  0.121306  0  1.007595  0
H  H18  1  0.61567395  0.93112061  0.30163221  1  0  0.113801  0.121293  0  1.007634  0
H  H19  1  0.88432254  0.69836931  0.06888015  1  0  0.113808  0.121308  0  1.007598  0
H  H20  1  0.38836598  0.07104290  0.20768453  1  0  0.293392  0.39435  0  0.944255  0
H  H21  1  0.11163576  0.79231582  0.92895866  1  0  0.293353  0.394219  0  0.944407  0
H  H22  1  0.61163702  0.92895915  0.79231516  1  0  0.29336  0.394245  0  0.944367  0
H  H23  1  0.88836571  0.20768428  0.07104152  1  0  0.293357  0.394235  0  0.944381  0
H  H24  1  0.31366016  0.97192813  0.29200541  1  0  0.289361  0.359934  0  0.993565  0
H  H25  1  0.18634042  0.70799418  0.02807263  1  0  0.289354  0.359904  0  0.993603  0
H  H26  1  0.68633981  0.02807292  0.70799419  1  0  0.289366  0.359943  0  0.993572  0
H  H27  1  0.81366105  0.29200591  0.97192755  1  0  0.289354  0.359889  0  0.993633  0
H  H28  1  0.08376184  0.23533513  0.16311608  1  0  0.296034  0.361147  0  0.991413  0
H  H29  1  0.41623911  0.83688456  0.76466586  1  0  0.295989  0.361068  0  0.991522  0
H  H30  1  0.91623888  0.76466400  0.83688527  1  0  0.296008  0.361118  0  0.991441  0
H  H31  1  0.58376199  0.16311650  0.23533345  1  0  0.295925  0.360952  0  0.991652  0
H  H32  1  0.96595668  0.15394917  0.22512596  1  0  0.299092  0.349165  0  1.010585  0
H  H33  1  0.53404436  0.77487345  0.84605038  1  0  0.299085  0.349148  0  1.010613  0
H  H34  1  0.03404516  0.84604996  0.77487418  1  0  0.299092  0.34915  0  1.010611  0
H  H35  1  0.46595484  0.22512661  0.15394855  1  0  0.29909  0.349145  0  1.010613  0
C  C36  1  0.56248072  0.16581655  0.49276834  1  0  0.220553  0.233869  0  4.052287  0
C  C37  1  0.93751964  0.50723007  0.83418608  1  0  0.220607  0.233965  0  4.052129  0
C  C38  1  0.43751774  0.83418544  0.50722977  1  0  0.220603  0.233955  0  4.052152  0
C  C39  1  0.06248030  0.49276808  0.16581459  1  0  0.220563  0.233935  0  4.052169  0
C  C40  1  0.38972617  0.19164370  0.53582572  1  0  -0.004368  0.022755  0  4.008378  0
C  C41  1  0.11027480  0.46417083  0.80835918  1  0  -0.004352  0.02274  0  4.0084  0
C  C42  1  0.61027454  0.80835541  0.46417378  1  0  -0.004372  0.022736  0  4.008359  0
C  C43  1  0.88972663  0.53582634  0.19163931  1  0  -0.004349  0.022735  0  4.008374  0
C  C44  1  0.29691833  0.27496745  0.46706018  1  0  -0.079745  -0.090843  0  3.92904  0
C  C45  1  0.20308134  0.53294033  0.72503069  1  0  -0.079764  -0.09088  0  3.929066  0
C  C46  1  0.70307898  0.72503165  0.53294020  1  0  -0.079759  -0.09088  0  3.929114  0
C  C47  1  0.79691897  0.46705682  0.27496716  1  0  -0.079777  -0.090927  0  3.929057  0
C  C48  1  0.13298496  0.29658356  0.50280619  1  0  -0.091976  -0.075487  0  4.01302  0
C  C49  1  0.36701381  0.49719449  0.70341612  1  0  -0.091974  -0.075473  0  4.013007  0
C  C50  1  0.86701425  0.70341654  0.49719642  1  0  -0.092011  -0.075456  0  4.012944  0
C  C51  1  0.63298426  0.50280557  0.29658310  1  0  -0.091973  -0.075436  0  4.012993  0
C  C52  1  0.05986769  0.23518246  0.60718913  1  0  -0.088755  -0.110209  0  4.007242  0
C  C53  1  0.44013213  0.39281443  0.76481528  1  0  -0.08873  -0.110208  0  4.007258  0
C  C54  1  0.94013080  0.76481960  0.39281542  1  0  -0.088725  -0.110212  0  4.007265  0
C  C55  1  0.55986596  0.60718853  0.23518287  1  0  -0.088742  -0.110268  0  4.007207  0
C  C56  1  0.15082625  0.15349558  0.67807000  1  0  -0.02151  -0.05233  0  3.986683  0
C  C57  1  0.34917662  0.32193071  0.84650513  1  0  -0.021541  -0.052375  0  3.986727  0
C  C58  1  0.84917486  0.84650549  0.32193115  1  0  -0.021532  -0.052301  0  3.986678  0
C  C59  1  0.65082412  0.67807133  0.15349514  1  0  -0.021508  -0.052202  0  3.986508  0
C  C60  1  0.31506851  0.13232991  0.64267244  1  0  -0.073504  -0.105337  0  3.896837  0
C  C61  1  0.18493450  0.35732793  0.86767074  1  0  -0.073537  -0.10541  0  3.896975  0
C  C62  1  0.68493146  0.86767115  0.35732808  1  0  -0.073535  -0.105418  0  3.896826  0
C  C63  1  0.81506657  0.64267021  0.13232779  1  0  -0.073557  -0.105438  0  3.896925  0
C  C64  1  0.06858807  0.08850163  0.78909223  1  0  0.225277  0.633205  0  4.185338  0
C  C65  1  0.43141814  0.21090853  0.91149645  1  0  0.225441  0.633549  0  4.184801  0
C  C66  1  0.93141491  0.91149753  0.21090945  1  0  0.225407  0.633426  0  4.185015  0
C  C67  1  0.56858447  0.78909157  0.08850252  1  0  0.225355  0.633336  0  4.185091  0
N  N68  1  0.66376257  0.11023414  0.56043213  1  0  -0.200649  -0.241332  0  3.210857  0
N  N69  1  0.83623768  0.43956556  0.88976958  1  0  -0.200709  -0.241384  0  3.210771  0
N  N70  1  0.33623627  0.88976689  0.43956684  1  0  -0.200703  -0.241458  0  3.210849  0
N  N71  1  0.16376227  0.56043260  0.11023201  1  0  -0.200678  -0.241357  0  3.210787  0
N  N72  1  0.80835884  0.10290861  0.47933641  1  0  -0.175147  -0.033038  0  3.73103  0
N  N73  1  0.69164107  0.52066231  0.89709358  1  0  -0.175163  -0.033051  0  3.730981  0
N  N74  1  0.19163887  0.89709241  0.52066286  1  0  -0.175134  -0.032966  0  3.7309  0
N  N75  1  0.30835850  0.47933680  0.10290713  1  0  -0.175154  -0.03307  0  3.731016  0
N  N76  1  0.79673385  0.15316564  0.36776378  1  0  -0.080087  -0.048749  0  3.294626  0
N  N77  1  0.70326592  0.63223403  0.84683464  1  0  -0.080068  -0.04873  0  3.294578  0
N  N78  1  0.20326535  0.84683443  0.63223515  1  0  -0.080073  -0.048741  0  3.294563  0
N  N79  1  0.29673365  0.36776508  0.15316516  1  0  -0.08007  -0.048693  0  3.294569  0
N  N80  1  0.64372362  0.19245047  0.37355800  1  0  -0.198417  -0.248199  0  3.263472  0
N  N81  1  0.85627519  0.62644045  0.80755080  1  0  -0.198408  -0.248227  0  3.263449  0
N  N82  1  0.35627372  0.80755152  0.62644132  1  0  -0.198404  -0.248189  0  3.263425  0
N  N83  1  0.14372475  0.37355768  0.19244803  1  0  -0.198404  -0.248223  0  3.263458  0
O  O84  1  0.13786732  0.03790481  0.87216487  1  0  -0.411419  -0.698714  0  2.366926  0
O  O85  1  0.36214156  0.12783425  0.96209395  1  0  -0.411466  -0.698859  0  2.366793  0
O  O86  1  0.86213565  0.96209433  0.12783497  1  0  -0.41146  -0.698802  0  2.366869  0
O  O87  1  0.63786295  0.87216683  0.03790540  1  0  -0.411429  -0.698774  0  2.366884  0
O  O88  1  0.92972830  0.08713180  0.79360354  1  0  -0.400381  -0.657888  0  2.344433  0
O  O89  1  0.57027742  0.20639727  0.91286830  1  0  -0.400474  -0.658062  0  2.344267  0
O  O90  1  0.07027545  0.91286833  0.20639789  1  0  -0.400445  -0.658004  0  2.344319  0
O  O91  1  0.42972519  0.79360283  0.08713159  1  0  -0.400439  -0.65798  0  2.344358  0
O  O92  1  0.30066061  0.03167584  0.22175458  1  0  -0.649274  -0.853272  0  2.152036  0
O  O93  1  0.19933927  0.77824613  0.96832679  1  0  -0.649249  -0.853128  0  2.152206  0
O  O94  1  0.69934126  0.96832619  0.77824448  1  0  -0.649254  -0.853176  0  2.152164  0
O  O95  1  0.80066070  0.22175492  0.03167374  1  0  -0.649251  -0.853119  0  2.152149  0
O  O96  1  0.03825712  0.16921878  0.14084301  1  0  -0.604857  -0.81684  0  2.260417  0
O  O97  1  0.46174508  0.85915654  0.83078044  1  0  -0.604808  -0.816727  0  2.260482  0
O  O98  1  0.96174435  0.83078131  0.85915625  1  0  -0.604833  -0.816767  0  2.260515  0
O  O99  1  0.53825525  0.14084352  0.16921727  1  0  -0.604743  -0.816609  0  2.260664  0
