# generated using pymatgen
data_HgH9C9I2N3O2
_symmetry_space_group_name_H-M   'P 1'
_cell_length_a   7.01324215
_cell_length_b   11.17385777
_cell_length_c   18.76146303
_cell_angle_alpha   107.32704202
_cell_angle_beta   95.69068376
_cell_angle_gamma   89.96949667
_symmetry_Int_Tables_number   1
_chemical_formula_structural   HgH9C9I2N3O2
_chemical_formula_sum   'Hg4 H36 C36 I8 N12 O8'
_cell_volume   1395.95450511
_cell_formula_units_Z   4
loop_
 _symmetry_equiv_pos_site_id
 _symmetry_equiv_pos_as_xyz
  1  'x, y, z'
loop_
 _atom_site_type_symbol
 _atom_site_label
 _atom_site_symmetry_multiplicity
 _atom_site_fract_x
 _atom_site_fract_y
 _atom_site_fract_z
 _atom_site_occupancy
 _atom_site_hle17_bader_spin_density
 _atom_site_hle17_ddec_charge
 _atom_site_hle17_ddec_spin_density
 _atom_site_hle17_ddec_sum_bond_order
 _atom_site_hle17_magmom
 _atom_site_hse06_10hf_bader_spin_density
 _atom_site_hse06_10hf_ddec_charge
 _atom_site_hse06_10hf_ddec_spin_density
 _atom_site_hse06_10hf_ddec_sum_bond_order
 _atom_site_hse06_10hf_magmom
 _atom_site_hse06_bader_spin_density
 _atom_site_hse06_ddec_charge
 _atom_site_hse06_ddec_spin_density
 _atom_site_hse06_ddec_sum_bond_order
 _atom_site_hse06_magmom
 _atom_site_pbe_bader_spin_density
 _atom_site_pbe_cm5_charge
 _atom_site_pbe_ddec_charge
 _atom_site_pbe_ddec_spin_density
 _atom_site_pbe_ddec_sum_bond_order
 _atom_site_pbe_magmom
Hg  Hg0  1  0.96554891  0.57692156  0.40039938  1  0  0.494346  0  2.236405  0  0  0.387905  0  2.71924  0  0  0.43175  0  2.693997  0  0  0.334838  0.35857  0  2.736336  0
Hg  Hg1  1  0.53465941  0.17684958  0.59953077  1  0  0.494325  0  2.238295  0  0  0.387892  0  2.721216  0  0  0.431716  0  2.695948  0  0  0.334419  0.35858  0  2.738319  0
Hg  Hg2  1  0.03445849  0.42307528  0.59960233  1  0  0.494306  0  2.236449  0  0  0.387871  0  2.719267  0  0  0.431717  0  2.694027  0  0  0.334808  0.358535  0  2.736358  0
Hg  Hg3  1  0.46533944  0.82314820  0.40046973  1  0  0.494371  0  2.23827  0  0  0.387943  0  2.721186  0  0  0.431765  0  2.695918  0  0  0.334433  0.358631  0  2.738295  0
H  H4  1  0.08800319  0.43452627  0.09368065  1  0  0.345905  0  0.910865  0  0  0.320211  0  0.977898  0  0  0.330662  0  0.968891  0  0  0.310181  0.312868  0  0.984223  0
H  H5  1  0.41228591  0.34067370  0.90629988  1  0  0.346533  0  0.910218  0  0  0.320773  0  0.977365  0  0  0.331265  0  0.968259  0  0  0.310559  0.313343  0  0.983837  0
H  H6  1  0.91199851  0.56547151  0.90631996  1  0  0.345929  0  0.910841  0  0  0.320234  0  0.977878  0  0  0.330684  0  0.968872  0  0  0.310201  0.312894  0  0.984202  0
H  H7  1  0.58771170  0.65932877  0.09370034  1  0  0.346562  0  0.910248  0  0  0.320844  0  0.977336  0  0  0.331311  0  0.968275  0  0  0.310549  0.313408  0  0.983827  0
H  H8  1  0.67724663  0.43335240  0.09890320  1  0  0.332378  0  0.915672  0  0  0.311163  0  0.977661  0  0  0.320595  0  0.969848  0  0  0.31007  0.304575  0  0.983096  0
H  H9  1  0.82304567  0.33456463  0.90112515  1  0  0.331937  0  0.917046  0  0  0.310772  0  0.979086  0  0  0.320134  0  0.971318  0  0  0.309745  0.304212  0  0.984479  0
H  H10  1  0.32275229  0.56664726  0.90109657  1  0  0.33236  0  0.915712  0  0  0.311154  0  0.977688  0  0  0.320584  0  0.969877  0  0  0.310067  0.304563  0  0.983127  0
H  H11  1  0.17695191  0.66543690  0.09887544  1  0  0.332047  0  0.916939  0  0  0.310841  0  0.979017  0  0  0.320203  0  0.971249  0  0  0.309779  0.30428  0  0.984416  0
H  H12  1  0.75063546  0.45913593  0.22715794  1  0  0.071098  0  0.9718  0  0  0.072444  0  1.053071  0  0  0.07561  0  1.04961  0  0  0.098265  0.070159  0  1.055551  0
H  H13  1  0.74995842  0.23238881  0.77281268  1  0  0.070646  0  0.971829  0  0  0.071757  0  1.053793  0  0  0.074983  0  1.050258  0  0  0.097895  0.069475  0  1.056292  0
H  H14  1  0.24936631  0.54086372  0.77284086  1  0  0.071117  0  0.97181  0  0  0.07246  0  1.053081  0  0  0.075628  0  1.049619  0  0  0.098267  0.070175  0  1.055562  0
H  H15  1  0.25003616  0.76760990  0.22718677  1  0  0.070656  0  0.971868  0  0  0.071767  0  1.05383  0  0  0.074992  0  1.050296  0  0  0.097912  0.069487  0  1.056329  0
H  H16  1  0.51355583  0.16543766  0.00892428  1  0  0.120989  0  0.963334  0  0  0.138345  0  1.028069  0  0  0.140152  0  1.027882  0  0  0.090237  0.136963  0  1.028292  0
H  H17  1  0.98675357  0.15650978  0.99102226  1  0  0.121341  0  0.963419  0  0  0.138385  0  1.028457  0  0  0.140156  0  1.028316  0  0  0.090249  0.137028  0  1.028657  0
H  H18  1  0.48644738  0.83456199  0.99107511  1  0  0.121009  0  0.963272  0  0  0.138345  0  1.028037  0  0  0.140151  0  1.02785  0  0  0.090213  0.136962  0  1.028259  0
H  H19  1  0.01324556  0.84349456  0.00897782  1  0  0.121356  0  0.963455  0  0  0.138395  0  1.028489  0  0  0.140168  0  1.028345  0  0  0.090256  0.137038  0  1.028688  0
H  H20  1  0.52572564  0.08673483  0.07922338  1  0  0.136536  0  0.952888  0  0  0.155854  0  1.013521  0  0  0.157685  0  1.013146  0  0  0.100716  0.154505  0  1.013805  0
H  H21  1  0.97456722  0.00752641  0.92070422  1  0  0.135372  0  0.953242  0  0  0.155196  0  1.013452  0  0  0.157005  0  1.013104  0  0  0.100399  0.153841  0  1.013746  0
H  H22  1  0.47427900  0.91326482  0.92077606  1  0  0.136533  0  0.952851  0  0  0.155849  0  1.013497  0  0  0.15768  0  1.013121  0  0  0.100716  0.154498  0  1.01378  0
H  H23  1  0.02543187  0.99247699  0.07929622  1  0  0.135381  0  0.953225  0  0  0.155189  0  1.013461  0  0  0.157008  0  1.013102  0  0  0.10039  0.153825  0  1.013758  0
H  H24  1  0.72649653  0.17724868  0.07226758  1  0  0.125536  0  0.938828  0  0  0.146651  0  0.997513  0  0  0.148677  0  0.996772  0  0  0.096972  0.145098  0  0.998141  0
H  H25  1  0.77381626  0.10516250  0.92767356  1  0  0.125356  0  0.939265  0  0  0.14634  0  0.998069  0  0  0.14837  0  0.997322  0  0  0.096789  0.144803  0  0.99868  0
H  H26  1  0.27350682  0.82275378  0.92773231  1  0  0.125505  0  0.938897  0  0  0.14665  0  0.997541  0  0  0.148665  0  0.996813  0  0  0.096993  0.145098  0  0.998169  0
H  H27  1  0.22618139  0.89484090  0.07232629  1  0  0.125356  0  0.93923  0  0  0.146348  0  0.998025  0  0  0.14838  0  0.997279  0  0  0.0968  0.144811  0  0.998634  0
H  H28  1  0.40266296  0.12659333  0.20111140  1  0  0.107658  0  0.939548  0  0  0.118679  0  0.998588  0  0  0.12143  0  0.997033  0  0  0.111351  0.116652  0  0.999768  0
H  H29  1  0.09751167  0.92543042  0.79878753  1  0  0.107646  0  0.938961  0  0  0.119198  0  0.997518  0  0  0.121848  0  0.99613  0  0  0.111343  0.117161  0  0.99873  0
H  H30  1  0.59733597  0.87340633  0.79888997  1  0  0.107685  0  0.939481  0  0  0.118676  0  0.998563  0  0  0.121444  0  0.996987  0  0  0.111348  0.11665  0  0.999743  0
H  H31  1  0.90248877  0.07457111  0.20121262  1  0  0.107631  0  0.938979  0  0  0.119184  0  0.99754  0  0  0.121835  0  0.99615  0  0  0.111345  0.117148  0  0.99875  0
H  H32  1  0.73185456  0.32554523  0.40964721  1  0  0.067277  0  0.972639  0  0  0.071103  0  1.050881  0  0  0.073699  0  1.047875  0  0  0.091234  0.069013  0  1.053346  0
H  H33  1  0.76820106  0.91624869  0.59031733  1  0  0.067045  0  0.972926  0  0  0.070786  0  1.05142  0  0  0.073384  0  1.048397  0  0  0.0912  0.068695  0  1.053895  0
H  H34  1  0.26815009  0.67445442  0.59035223  1  0  0.067203  0  0.972692  0  0  0.071048  0  1.050932  0  0  0.073647  0  1.047926  0  0  0.091198  0.068957  0  1.053401  0
H  H35  1  0.23180497  0.08375002  0.40968093  1  0  0.067068  0  0.972944  0  0  0.070784  0  1.051441  0  0  0.073383  0  1.048418  0  0  0.091209  0.068691  0  1.053916  0
H  H36  1  0.51498607  0.14514723  0.33546082  1  0  0.100505  0  0.977419  0  0  0.109004  0  1.040784  0  0  0.111648  0  1.04081  0  0  0.095003  0.107204  0  1.040677  0
H  H37  1  0.98502086  0.80977461  0.66444404  1  0  0.10059  0  0.977765  0  0  0.108781  0  1.041614  0  0  0.111391  0  1.04175  0  0  0.094736  0.107019  0  1.041413  0
H  H38  1  0.48501569  0.85485149  0.66454048  1  0  0.100531  0  0.977412  0  0  0.109008  0  1.040795  0  0  0.11166  0  1.040812  0  0  0.095011  0.107209  0  1.040691  0
H  H39  1  0.01498097  0.19022598  0.33555600  1  0  0.100585  0  0.977772  0  0  0.108778  0  1.041619  0  0  0.111387  0  1.041756  0  0  0.094745  0.107016  0  1.041415  0
C  C40  1  0.69343511  0.38685757  0.24819432  1  0  0.081668  0  3.709501  0  0  0.043052  0  3.962988  0  0  0.050651  0  3.979661  0  0  0.03108  0.038034  0  3.951849  0
C  C41  1  0.80708741  0.13902232  0.75176620  1  0  0.08228  0  3.707034  0  0  0.044192  0  3.960473  0  0  0.051571  0  3.977492  0  0  0.031027  0.039126  0  3.949417  0
C  C42  1  0.30656385  0.61314302  0.75180561  1  0  0.081605  0  3.709608  0  0  0.043006  0  3.963082  0  0  0.050601  0  3.979763  0  0  0.03107  0.03799  0  3.951945  0
C  C43  1  0.19291003  0.86097639  0.24823335  1  0  0.082257  0  3.707075  0  0  0.044192  0  3.960518  0  0  0.051567  0  3.977541  0  0  0.030994  0.039128  0  3.94946  0
C  C44  1  0.27240030  0.28952112  0.11369860  1  0  0.542221  0  3.75208  0  0  0.499719  0  4.040124  0  0  0.527621  0  4.038754  0  0  0.259446  0.480719  0  4.040807  0
C  C45  1  0.22793735  0.17576854  0.88632460  1  0  0.54119  0  3.74991  0  0  0.498238  0  4.039347  0  0  0.526285  0  4.037753  0  0  0.259473  0.479164  0  4.040102  0
C  C46  1  0.72759854  0.71047666  0.88630190  1  0  0.542082  0  3.752026  0  0  0.49959  0  4.040113  0  0  0.527491  0  4.038744  0  0  0.259384  0.480594  0  4.040808  0
C  C47  1  0.77205891  0.82423580  0.11367537  1  0  0.541412  0  3.749787  0  0  0.498454  0  4.039226  0  0  0.526501  0  4.037626  0  0  0.25957  0.47938  0  4.03998  0
C  C48  1  0.38730362  0.46834931  0.09556502  1  0  0.749842  0  3.861826  0  0  0.668753  0  4.186049  0  0  0.704271  0  4.180218  0  0  0.340364  0.644705  0  4.189368  0
C  C49  1  0.11300052  0.37275633  0.90443713  1  0  0.747842  0  3.864691  0  0  0.666604  0  4.18935  0  0  0.702183  0  4.183482  0  0  0.340228  0.64251  0  4.192676  0
C  C50  1  0.61269821  0.53165128  0.90443555  1  0  0.74985  0  3.861862  0  0  0.668727  0  4.186099  0  0  0.704244  0  4.180271  0  0  0.340324  0.644686  0  4.189413  0
C  C51  1  0.88699834  0.62724238  0.09556034  1  0  0.747931  0  3.864783  0  0  0.666639  0  4.189474  0  0  0.702223  0  4.183597  0  0  0.340263  0.642547  0  4.192797  0
C  C52  1  0.56917073  0.17177879  0.06668727  1  0  -0.359255  0  3.626951  0  0  -0.441041  0  3.859271  0  0  -0.444646  0  3.868242  0  0  -0.238528  -0.438188  0  3.853134  0
C  C53  1  0.93112787  0.10514721  0.93325376  1  0  -0.358296  0  3.628034  0  0  -0.439726  0  3.860753  0  0  -0.443276  0  3.869731  0  0  -0.237659  -0.43692  0  3.854575  0
C  C54  1  0.43083392  0.82822087  0.93331271  1  0  -0.359299  0  3.6269  0  0  -0.441074  0  3.85927  0  0  -0.444669  0  3.868244  0  0  -0.23854  -0.43822  0  3.85313  0
C  C55  1  0.06886979  0.89485619  0.06674662  1  0  -0.358346  0  3.628052  0  0  -0.439775  0  3.860785  0  0  -0.443339  0  3.86976  0  0  -0.237696  -0.436957  0  3.854605  0
C  C56  1  0.49551623  0.28776532  0.12267127  1  0  0.178134  0  3.620219  0  0  0.1769  0  3.854201  0  0  0.179632  0  3.870082  0  0  0.09988  0.175048  0  3.843379  0
C  C57  1  0.00484410  0.16515985  0.87731099  1  0  0.179249  0  3.618127  0  0  0.177237  0  3.854777  0  0  0.179928  0  3.870537  0  0  0.099545  0.175412  0  3.844012  0
C  C58  1  0.50448417  0.71223527  0.87732872  1  0  0.178279  0  3.620094  0  0  0.176937  0  3.85423  0  0  0.179673  0  3.870105  0  0  0.099888  0.175084  0  3.843404  0
C  C59  1  0.99515204  0.83484167  0.12268954  1  0  0.179267  0  3.618142  0  0  0.177222  0  3.854842  0  0  0.179911  0  3.870604  0  0  0.099561  0.175399  0  3.844072  0
C  C60  1  0.50135000  0.20237777  0.23437765  1  0  -0.035141  0  3.681384  0  0  -0.063056  0  3.927113  0  0  -0.05967  0  3.945034  0  0  -0.065207  -0.064876  0  3.91466  0
C  C61  1  0.99887159  0.96807028  0.76553432  1  0  -0.035459  0  3.680509  0  0  -0.063232  0  3.926335  0  0  -0.059809  0  3.944281  0  0  -0.065494  -0.065055  0  3.913879  0
C  C62  1  0.49864888  0.79762094  0.76562248  1  0  -0.035175  0  3.681392  0  0  -0.063068  0  3.927115  0  0  -0.059694  0  3.945033  0  0  -0.065212  -0.064886  0  3.914662  0
C  C63  1  0.00112442  0.03192844  0.23446624  1  0  -0.035458  0  3.680528  0  0  -0.063227  0  3.926381  0  0  -0.059804  0  3.944326  0  0  -0.065493  -0.065049  0  3.913924  0
C  C64  1  0.56512512  0.29266583  0.20323880  1  0  -0.027775  0  3.696513  0  0  -0.002873  0  3.92513  0  0  -0.009504  0  3.95091  0  0  -0.006752  0.00109  0  3.908121  0
C  C65  1  0.93535241  0.08960178  0.79670159  1  0  -0.027542  0  3.693385  0  0  -0.003827  0  3.924637  0  0  -0.010454  0  3.950379  0  0  -0.006524  0.000222  0  3.907495  0
C  C66  1  0.43487382  0.70733382  0.79676310  1  0  -0.027775  0  3.69662  0  0  -0.002857  0  3.925258  0  0  -0.009488  0  3.951041  0  0  -0.006735  0.001105  0  3.908252  0
C  C67  1  0.06464646  0.91039693  0.20329801  1  0  -0.027447  0  3.693331  0  0  -0.003772  0  3.924642  0  0  -0.010398  0  3.950384  0  0  -0.00652  0.000269  0  3.907511  0
C  C68  1  0.68449609  0.31260850  0.35052166  1  0  0.121327  0  3.716565  0  0  0.091282  0  3.966141  0  0  0.098683  0  3.984007  0  0  0.037328  0.086439  0  3.954153  0
C  C69  1  0.81573198  0.96242090  0.64942668  1  0  0.122044  0  3.71828  0  0  0.092021  0  3.967307  0  0  0.099478  0  3.98507  0  0  0.036998  0.087168  0  3.955327  0
C  C70  1  0.31550565  0.68739021  0.64947751  1  0  0.121415  0  3.716573  0  0  0.091347  0  3.966155  0  0  0.098744  0  3.984029  0  0  0.037363  0.086505  0  3.954172  0
C  C71  1  0.18426984  0.03757969  0.35057229  1  0  0.12209  0  3.718277  0  0  0.092113  0  3.967281  0  0  0.099573  0  3.985037  0  0  0.037017  0.087255  0  3.955309  0
C  C72  1  0.56157487  0.21288516  0.30895913  1  0  -0.104703  0  3.727635  0  0  -0.112151  0  3.970579  0  0  -0.119083  0  3.992314  0  0  -0.085513  -0.107561  0  3.955448  0
C  C73  1  0.93858415  0.90407881  0.69094564  1  0  -0.105272  0  3.728221  0  0  -0.112764  0  3.971529  0  0  -0.119698  0  3.993202  0  0  -0.085077  -0.108175  0  3.956426  0
C  C74  1  0.43842540  0.78711262  0.69104089  1  0  -0.104744  0  3.727669  0  0  -0.112165  0  3.970605  0  0  -0.119104  0  3.992336  0  0  -0.085503  -0.107576  0  3.95548  0
C  C75  1  0.06141183  0.09591897  0.30905475  1  0  -0.105292  0  3.728241  0  0  -0.112793  0  3.971555  0  0  -0.119729  0  3.99323  0  0  -0.085088  -0.108204  0  3.956443  0
I  I76  1  0.75850123  0.62581892  0.51827789  1  0  -0.301969  0  1.292746  0  0  -0.261015  0  1.661234  0  0  -0.280953  0  1.643853  0  0  -0.149829  -0.247534  0  1.674389  0
I  I77  1  0.74126639  0.10718669  0.48156245  1  0  -0.302125  0  1.293434  0  0  -0.261036  0  1.66164  0  0  -0.281019  0  1.644361  0  0  -0.14982  -0.247514  0  1.674774  0
I  I78  1  0.24150051  0.37417979  0.48172234  1  0  -0.301951  0  1.292766  0  0  -0.260995  0  1.66125  0  0  -0.280933  0  1.643869  0  0  -0.149819  -0.247513  0  1.674393  0
I  I79  1  0.25873101  0.89281108  0.51843640  1  0  -0.302128  0  1.293451  0  0  -0.261028  0  1.661649  0  0  -0.281007  0  1.644365  0  0  -0.149811  -0.247506  0  1.674789  0
I  I80  1  0.25367692  0.55180691  0.31155386  1  0  -0.287481  0  1.299525  0  0  -0.248325  0  1.659528  0  0  -0.268102  0  1.643537  0  0  -0.16093  -0.235036  0  1.670655  0
I  I81  1  0.24655034  0.24014295  0.68842883  1  0  -0.288334  0  1.29839  0  0  -0.249298  0  1.658152  0  0  -0.26899  0  1.642055  0  0  -0.161611  -0.236026  0  1.669301  0
I  I82  1  0.74632164  0.44818523  0.68844297  1  0  -0.287459  0  1.29957  0  0  -0.248287  0  1.659551  0  0  -0.268062  0  1.643558  0  0  -0.160917  -0.235004  0  1.670677  0
I  I83  1  0.75346460  0.75986142  0.31157928  1  0  -0.288332  0  1.298394  0  0  -0.249287  0  1.658145  0  0  -0.268977  0  1.642047  0  0  -0.161601  -0.236016  0  1.669308  0
N  N84  1  0.22527224  0.39980993  0.09912159  1  0  -0.544487  0  3.252779  0  0  -0.487608  0  3.505255  0  0  -0.512642  0  3.505223  0  0  -0.396243  -0.470549  0  3.50502  0
N  N85  1  0.27505003  0.30058598  0.90089395  1  0  -0.54372  0  3.251557  0  0  -0.486568  0  3.504338  0  0  -0.511717  0  3.504255  0  0  -0.396358  -0.469384  0  3.504132  0
N  N86  1  0.77472669  0.60018972  0.90087978  1  0  -0.544488  0  3.252789  0  0  -0.48763  0  3.505303  0  0  -0.512664  0  3.505274  0  0  -0.396288  -0.470598  0  3.505091  0
N  N87  1  0.72494611  0.69941555  0.09910499  1  0  -0.543892  0  3.251516  0  0  -0.486735  0  3.50425  0  0  -0.511871  0  3.504192  0  0  -0.396383  -0.469553  0  3.504044  0
N  N88  1  0.54316486  0.40367737  0.10653712  1  0  -0.524656  0  3.241532  0  0  -0.470451  0  3.49332  0  0  -0.492934  0  3.498389  0  0  -0.414263  -0.455051  0  3.489423  0
N  N89  1  0.95716174  0.29721839  0.89346895  1  0  -0.523796  0  3.243602  0  0  -0.469507  0  3.49589  0  0  -0.49181  0  3.500839  0  0  -0.41399  -0.454167  0  3.49204  0
N  N90  1  0.45683271  0.59632416  0.89346347  1  0  -0.524668  0  3.241486  0  0  -0.47045  0  3.49332  0  0  -0.492931  0  3.498388  0  0  -0.414291  -0.455039  0  3.48941  0
N  N91  1  0.04283582  0.70278313  0.10652897  1  0  -0.524005  0  3.243731  0  0  -0.469584  0  3.495953  0  0  -0.491888  0  3.500901  0  0  -0.414008  -0.454247  0  3.492103  0
N  N92  1  0.75143153  0.39613150  0.31993128  1  0  -0.283682  0  3.274241  0  0  -0.209719  0  3.534464  0  0  -0.229829  0  3.556877  0  0  -0.318367  -0.19603  0  3.518949  0
N  N93  1  0.74896350  0.07660650  0.68003962  1  0  -0.284518  0  3.275908  0  0  -0.210117  0  3.535404  0  0  -0.230162  0  3.557759  0  0  -0.31813  -0.19645  0  3.519947  0
N  N94  1  0.24856877  0.60386721  0.68006731  1  0  -0.283633  0  3.274236  0  0  -0.209705  0  3.534532  0  0  -0.229814  0  3.556944  0  0  -0.318378  -0.196006  0  3.518988  0
N  N95  1  0.25103685  0.92339315  0.31995967  1  0  -0.2846  0  3.27591  0  0  -0.210217  0  3.535417  0  0  -0.23026  0  3.557768  0  0  -0.318148  -0.196549  0  3.519961  0
O  O96  1  0.16050680  0.20863478  0.11824746  1  0  -0.503074  0  1.928609  0  0  -0.468138  0  2.139244  0  0  -0.486708  0  2.133642  0  0  -0.274952  -0.455367  0  2.142781  0
O  O97  1  0.33984991  0.09023851  0.88176805  1  0  -0.50303  0  1.927164  0  0  -0.467665  0  2.138119  0  0  -0.486281  0  2.13242  0  0  -0.275035  -0.454876  0  2.141708  0
O  O98  1  0.83949488  0.79136299  0.88175048  1  0  -0.503009  0  1.928595  0  0  -0.468038  0  2.139196  0  0  -0.486612  0  2.133596  0  0  -0.274886  -0.455266  0  2.142734  0
O  O99  1  0.66014766  0.90976301  0.11823146  1  0  -0.503161  0  1.927228  0  0  -0.467777  0  2.138166  0  0  -0.486392  0  2.132465  0  0  -0.275116  -0.454987  0  2.141755  0
O  O100  1  0.38237844  0.57293149  0.08355319  1  0  -0.602551  0  1.968367  0  0  -0.546124  0  2.187494  0  0  -0.568055  0  2.176862  0  0  -0.295648  -0.530911  0  2.194468  0
O  O101  1  0.11779925  0.48937209  0.91650027  1  0  -0.601965  0  1.969276  0  0  -0.545036  0  2.187834  0  0  -0.567157  0  2.177277  0  0  -0.295656  -0.529764  0  2.194786  0
O  O102  1  0.61762077  0.42707380  0.91645238  1  0  -0.602556  0  1.968441  0  0  -0.546049  0  2.187508  0  0  -0.567988  0  2.176869  0  0  -0.295552  -0.53084  0  2.194481  0
O  O103  1  0.88219683  0.51062849  0.08349743  1  0  -0.601947  0  1.969309  0  0  -0.545041  0  2.18792  0  0  -0.567159  0  2.177354  0  0  -0.295676  -0.52977  0  2.194873  0
