# generated using pymatgen
data_CuH15C13SN2ClO3
_symmetry_space_group_name_H-M   'P 1'
_cell_length_a   7.62855021
_cell_length_b   10.19242072
_cell_length_c   11.18800157
_cell_angle_alpha   76.20642229
_cell_angle_beta   86.51638138
_cell_angle_gamma   76.90726215
_symmetry_Int_Tables_number   1
_chemical_formula_structural   CuH15C13SN2ClO3
_chemical_formula_sum   'Cu2 H30 C26 S2 N4 Cl2 O6'
_cell_volume   822.83562500
_cell_formula_units_Z   2
loop_
 _symmetry_equiv_pos_site_id
 _symmetry_equiv_pos_as_xyz
  1  'x, y, z'
loop_
 _atom_site_type_symbol
 _atom_site_label
 _atom_site_symmetry_multiplicity
 _atom_site_fract_x
 _atom_site_fract_y
 _atom_site_fract_z
 _atom_site_occupancy
 _atom_site_hle17_ddec_charge
 _atom_site_hle17_ddec_spin_density
 _atom_site_hle17_ddec_sum_bond_order
 _atom_site_hle17_magmom
 _atom_site_hse06_10hf_ddec_charge
 _atom_site_hse06_10hf_ddec_spin_density
 _atom_site_hse06_10hf_ddec_sum_bond_order
 _atom_site_hse06_10hf_magmom
 _atom_site_hse06_ddec_charge
 _atom_site_hse06_ddec_spin_density
 _atom_site_hse06_ddec_sum_bond_order
 _atom_site_hse06_magmom
 _atom_site_pbe_cm5_charge
 _atom_site_pbe_ddec_charge
 _atom_site_pbe_ddec_spin_density
 _atom_site_pbe_ddec_sum_bond_order
 _atom_site_pbe_magmom
Cu  Cu0  1  0.86114768  0.88431042  0.04731568  1  0.849939  -0.706735  1.939106  -0.49  0.834915  -0.802721  2.354662  -0.621  0.928095  -0.881502  2.276302  -0.709  0.741779  0.777714  -0.742476  2.409442  -0.561
Cu  Cu1  1  0.13884194  0.11569187  0.95268376  1  0.849781  0.706718  1.938995  0.49  0.834775  0.802723  2.354507  0.621  0.927895  0.881492  2.276196  0.709  0.741717  0.777535  0.742458  2.409321  0.561
H  H2  1  0.17508223  0.89564757  0.21420217  1  0.366515  0.000556  0.910235  0.0  0.345317  0.000612  0.979874  0.0  0.354978  0.000341  0.96976  0.0  0.290822  0.33866  0.000855  0.986698  0.0
H  H3  1  0.82491225  0.10435166  0.78579681  1  0.366531  -0.000555  0.91023  0.0  0.345334  -0.000612  0.979854  0.0  0.354994  -0.000341  0.969745  0.0  0.290834  0.33868  -0.000854  0.986675  0.0
H  H4  1  0.18955210  0.87026167  0.51658656  1  0.114813  -0.000785  0.948236  -0.001  0.122518  -0.000325  1.010889  0.0  0.125595  -0.000189  1.008195  0.0  0.106463  0.120022  -0.000488  1.013647  -0.001
H  H5  1  0.81047139  0.12974627  0.48341618  1  0.114839  0.000785  0.948243  0.001  0.122558  0.000325  1.010873  0.0  0.125639  0.000189  1.008172  0.0  0.106468  0.120066  0.000488  1.013631  0.001
H  H6  1  0.03983940  0.45844195  0.17403262  1  0.074663  0.000333  0.9495  0.0  0.091201  9.3e-05  1.011122  0.0  0.090824  8.7e-05  1.013696  0.0  0.087837  0.091504  9e-05  1.009414  0.0
H  H7  1  0.96016510  0.54155012  0.82596567  1  0.074657  -0.000333  0.949481  0.0  0.091198  -9.3e-05  1.011115  0.0  0.090821  -8.7e-05  1.013688  0.0  0.087862  0.091514  -9e-05  1.009395  0.0
H  H8  1  0.26633880  0.45452784  0.20118620  1  0.074061  4.3e-05  0.945385  0.0  0.089404  -5.6e-05  1.008917  0.0  0.08987  -5e-06  1.009376  0.0  0.088288  0.088864  -0.00011  1.008722  0.0
H  H9  1  0.73366356  0.54547149  0.79881415  1  0.074062  -4.2e-05  0.945273  0.0  0.089407  5.5e-05  1.008824  0.0  0.089873  5e-06  1.009282  0.0  0.088287  0.088872  0.000109  1.008633  0.0
H  H10  1  0.34904364  0.55007022  0.84240935  1  0.101155  -0.00038  0.975893  -0.001  0.106073  -0.000202  1.052059  0.0  0.109026  -0.000111  1.049424  0.0  0.092871  0.104193  -0.000283  1.053193  0.0
H  H11  1  0.65094461  0.44992789  0.15759019  1  0.101134  0.000381  0.975867  0.001  0.106016  0.000201  1.05206  0.0  0.108969  0.000111  1.049428  0.0  0.092867  0.104137  0.000283  1.053181  0.0
H  H12  1  0.25097325  0.57197865  0.02981074  1  0.069321  -0.008973  0.95111  -0.011  0.079368  -0.005585  1.020242  -0.007  0.079092  -0.003818  1.016833  -0.005  0.114322  0.079806  -0.006835  1.021329  -0.008
H  H13  1  0.74901731  0.42802052  0.97018845  1  0.069332  0.008973  0.95109  0.011  0.07939  0.005585  1.0202  0.007  0.079115  0.003818  1.016792  0.005  0.114352  0.079837  0.006835  1.021289  0.008
H  H14  1  0.98272007  0.01214574  0.64328758  1  0.121077  0.000645  0.974588  0.001  0.129419  0.000139  1.036062  0.0  0.133411  0.000103  1.033611  0.0  0.10678  0.12652  0.000157  1.038029  0.0
H  H15  1  0.01729750  0.98786419  0.35671232  1  0.121045  -0.000646  0.974701  -0.001  0.129444  -0.00014  1.036101  0.0  0.133436  -0.000103  1.033649  0.0  0.106814  0.126546  -0.000157  1.038062  0.0
H  H16  1  0.28328506  0.61464896  0.35086459  1  0.042319  1.2e-05  0.99067  0.0  0.052677  -0.000111  1.066879  0.0  0.052227  -8.8e-05  1.067598  0.0  0.083653  0.053527  -7.7e-05  1.065524  0.0
H  H17  1  0.71671744  0.38534515  0.64912977  1  0.04226  -1.2e-05  0.99069  0.0  0.052625  0.00011  1.066909  0.0  0.052171  8.8e-05  1.067623  0.0  0.08364  0.053477  7.7e-05  1.065557  0.0
H  H18  1  0.35201652  0.67253309  0.19628413  1  0.035627  -1.1e-05  0.974655  0.0  0.043265  -3.3e-05  1.053943  0.0  0.04294  -2.2e-05  1.054027  0.0  0.079869  0.04321  -2.4e-05  1.054223  0.0
H  H19  1  0.64797909  0.32746196  0.80370858  1  0.035515  1.2e-05  0.974641  0.0  0.043223  3.3e-05  1.053874  0.0  0.042897  2.2e-05  1.053944  0.0  0.079867  0.043174  2.4e-05  1.054157  0.0
H  H20  1  0.19867582  0.42828968  0.42876171  1  0.079464  9.1e-05  0.994963  0.0  0.093423  3e-05  1.073214  0.0  0.094857  2e-05  1.072983  0.0  0.073414  0.092397  3.1e-05  1.073317  0.0
H  H21  1  0.80132230  0.57171064  0.57123864  1  0.079478  -9.3e-05  0.994958  0.0  0.093431  -3.1e-05  1.07322  0.0  0.094863  -2e-05  1.072991  0.0  0.07341  0.092405  -3.1e-05  1.07332  0.0
H  H22  1  0.15555787  0.29296503  0.36883036  1  0.108133  -0.000374  0.936091  0.0  0.133214  -0.000172  0.987846  0.0  0.133982  -0.000106  0.989095  0.0  0.090325  0.13267  -0.000233  0.987046  0.0
H  H23  1  0.84444646  0.70703226  0.63117213  1  0.108151  0.000374  0.936123  0.0  0.133247  0.000172  0.987848  0.0  0.134016  0.000106  0.989096  0.0  0.090338  0.132701  0.000234  0.987042  0.0
H  H24  1  0.97357848  0.42190112  0.40088146  1  0.084679  5.9e-05  0.981616  0.0  0.102094  5e-06  1.053369  0.0  0.102604  4e-06  1.054845  0.0  0.078057  0.101567  1.2e-05  1.052732  0.0
H  H25  1  0.02642023  0.57809711  0.59911664  1  0.084724  -6e-05  0.981609  0.0  0.102156  -5e-06  1.053342  0.0  0.10267  -4e-06  1.05481  0.0  0.078051  0.101628  -1.2e-05  1.052705  0.0
H  H26  1  0.80743813  0.62530944  0.27219576  1  0.056437  0.00011  0.941973  0.0  0.066003  0.000116  1.015515  0.0  0.066254  0.000119  1.015246  0.0  0.097156  0.065371  9.8e-05  1.01652  0.0
H  H27  1  0.19255863  0.37468670  0.72780558  1  0.056395  -0.00011  0.941868  0.0  0.065962  -0.000116  1.015437  0.0  0.066216  -0.00012  1.015164  0.0  0.097132  0.065332  -9.8e-05  1.016442  0.0
H  H28  1  0.92938010  0.66943591  0.38403787  1  0.075576  -0.00186  0.927587  -0.002  0.096972  -0.001659  0.980063  -0.002  0.097055  -0.001086  0.980064  -0.001  0.109895  0.096939  -0.002099  0.979993  -0.003
H  H29  1  0.07061950  0.33055506  0.61596180  1  0.075576  0.00186  0.927501  0.002  0.096993  0.001658  0.979975  0.002  0.097047  0.001086  0.98002  0.001  0.109884  0.096963  0.002099  0.979903  0.003
H  H30  1  0.69679793  0.85153757  0.25604010  1  0.392823  0.000285  0.802654  0.001  0.388718  -0.000286  0.839815  0.0  0.396556  -5.8e-05  0.833233  0.0  0.347266  0.383028  -0.000501  0.845038  0.0
H  H31  1  0.30319993  0.14845965  0.74396721  1  0.392833  -0.000285  0.802666  -0.001  0.388668  0.000286  0.839894  0.0  0.396503  5.9e-05  0.833323  0.0  0.347269  0.382983  0.000501  0.845099  0.0
C  C32  1  0.17716423  0.83252535  0.61582913  1  -0.088168  0.011151  3.75524  0.01  -0.111155  0.001205  4.007895  0.001  -0.107825  0.001488  4.026447  0.001  -0.088545  -0.114435  0.000997  3.996744  0.0
C  C33  1  0.82284581  0.16747930  0.38417501  1  -0.088221  -0.01117  3.754971  -0.01  -0.111241  -0.001207  4.007639  -0.001  -0.107911  -0.001489  4.026184  -0.001  -0.088597  -0.114518  -0.000998  3.9965  0.0
C  C34  1  0.12764721  0.48648284  0.23375160  1  -0.139705  -0.006001  3.66423  -0.006  -0.172039  -0.003271  3.907232  -0.003  -0.174594  -0.002342  3.924144  -0.003  -0.162832  -0.170201  -0.003909  3.895822  -0.004
C  C35  1  0.87235805  0.51351548  0.76624705  1  -0.139618  0.006  3.664037  0.006  -0.171998  0.003271  3.907142  0.003  -0.174551  0.002341  3.92405  0.003  -0.16284  -0.1702  0.003911  3.895777  0.004
C  C36  1  0.26764117  0.65090604  0.79821759  1  -0.144424  0.010152  3.755158  0.01  -0.177708  0.001645  4.011311  0.002  -0.175361  0.00172  4.03335  0.002  -0.095259  -0.17874  0.001411  3.996322  0.002
C  C37  1  0.73235338  0.34909320  0.20178585  1  -0.144393  -0.010167  3.755038  -0.01  -0.177675  -0.001643  4.011228  -0.002  -0.17533  -0.001719  4.033263  -0.002  -0.095283  -0.178701  -0.001411  3.996238  -0.002
C  C38  1  0.27991334  0.70213295  0.67306605  1  0.107034  -0.01196  3.832064  -0.012  0.11541  -0.000356  4.103262  -0.001  0.113386  -0.000334  4.127021  -0.001  -0.006674  0.116693  -0.000261  4.087671  0.0
C  C39  1  0.72009200  0.29786954  0.32693344  1  0.107108  0.011976  3.831894  0.012  0.115544  0.000358  4.103002  0.001  0.113529  0.000334  4.126749  0.001  -0.006588  0.11681  0.000261  4.087435  0.0
C  C40  1  0.04173373  0.86087588  0.81459576  1  0.356826  0.005548  3.790007  0.01  0.343386  -0.001058  4.056838  0.002  0.365525  0.000178  4.074037  0.002  0.09689  0.328134  -0.00232  4.04606  0.001
C  C41  1  0.95827003  0.13912763  0.18540627  1  0.357013  -0.005554  3.790031  -0.011  0.343565  0.001063  4.056882  -0.002  0.365704  -0.000177  4.074077  -0.002  0.096975  0.328318  0.00232  4.046098  -0.001
C  C42  1  0.14855410  0.72825679  0.87112199  1  -0.090006  -0.01585  3.791677  -0.018  -0.074828  -0.004767  4.033624  -0.007  -0.09259  -0.003046  4.063654  -0.005  -0.032279  -0.063033  -0.006153  4.01353  -0.008
C  C43  1  0.85144464  0.27174146  0.12887789  1  -0.090006  0.015868  3.791594  0.018  -0.074798  0.004762  4.033524  0.007  -0.092558  0.003044  4.063551  0.005  -0.032229  -0.063008  0.006155  4.013438  0.008
C  C44  1  0.07908095  0.64594179  0.21615509  1  0.164331  -0.005823  3.53885  -0.004  0.176437  -0.005066  3.77744  -0.004  0.179098  -0.00335  3.796536  -0.003  0.065173  0.175217  -0.006233  3.764159  -0.006
C  C45  1  0.92091480  0.35405329  0.78384565  1  0.164232  0.005826  3.538917  0.004  0.176353  0.005069  3.777545  0.004  0.179011  0.003351  3.796636  0.003  0.065194  0.175136  0.006234  3.764278  0.006
C  C46  1  0.14991759  0.66870159  0.00079255  1  0.175745  0.02136  3.69673  0.022  0.134764  0.005318  3.958672  0.007  0.158073  0.006412  3.970142  0.008  0.075255  0.119378  0.004107  3.951215  0.006
C  C47  1  0.85007690  0.33129764  0.99920733  1  0.175664  -0.021372  3.696583  -0.022  0.134676  -0.005315  3.958558  -0.007  0.157987  -0.006411  3.970026  -0.008  0.075175  0.119275  -0.004108  3.951104  -0.006
C  C48  1  0.55233631  0.14420552  0.01854742  1  0.329845  0.006255  4.007682  0.003  0.331526  -0.001018  4.300833  -0.004  0.35899  0.000176  4.312036  -0.003  0.155848  0.31317  -0.001836  4.292396  -0.005
C  C49  1  0.44763339  0.85581940  0.98145334  1  0.329984  -0.006248  4.008483  -0.003  0.331665  0.001011  4.301559  0.004  0.359121  -0.000181  4.312751  0.003  0.155809  0.31331  0.001827  4.293151  0.005
C  C50  1  0.06074987  0.90979668  0.68548041  1  -0.168109  -0.023638  3.685629  -0.024  -0.190911  -0.008151  3.940173  -0.01  -0.200185  -0.005655  3.958953  -0.007  -0.102519  -0.184632  -0.009909  3.928256  -0.012
C  C51  1  0.93926302  0.09020694  0.31451935  1  -0.16817  0.023659  3.685675  0.024  -0.191039  0.00815  3.940252  0.01  -0.20031  0.005657  3.95903  0.007  -0.102568  -0.18476  0.009911  3.928334  0.012
C  C52  1  0.24100583  0.68811773  0.26332174  1  0.065831  -0.000627  3.66773  -0.001  0.006763  -0.000227  3.933552  0.0  0.013337  -0.00027  3.941029  0.0  -0.085723  0.002218  -0.000144  3.927895  0.0
C  C53  1  0.75899346  0.31187842  0.73667411  1  0.065974  0.000624  3.66746  0.001  0.006833  0.000231  3.933382  0.0  0.013431  0.00027  3.940828  0.0  -0.085757  0.002278  0.000144  3.927736  0.0
C  C54  1  0.11231438  0.40400129  0.36582164  1  -0.284391  -0.001044  3.718396  -0.001  -0.360059  -0.000597  3.965398  0.0  -0.362785  -0.000414  3.97782  0.0  -0.252248  -0.358027  -0.00079  3.957015  -0.001
C  C55  1  0.88769119  0.59599600  0.63417722  1  -0.284485  0.001052  3.718508  0.001  -0.360171  0.000599  3.965501  0.0  -0.362902  0.000415  3.977932  0.0  -0.252249  -0.358128  0.000791  3.957121  0.001
C  C56  1  0.90313421  0.68674091  0.28551021  1  0.074562  0.000868  3.559972  0.002  0.010263  -0.001239  3.822664  0.0  0.01908  -0.000761  3.826837  0.0  -0.068198  0.004387  -0.001687  3.820138  0.0
C  C57  1  0.09685894  0.31325415  0.71449155  1  0.074671  -0.000866  3.559744  -0.002  0.010336  0.001239  3.822468  0.0  0.019158  0.000761  3.82667  0.0  -0.068126  0.004461  0.001688  3.81994  0.0
S  S58  1  0.38430549  0.27683244  0.99245814  1  -0.374244  -0.0139  2.059395  -0.012  -0.371364  -0.001301  2.369074  0.0  -0.387487  -0.000153  2.356545  0.001  -0.161545  -0.3586  -0.003007  2.375245  -0.002
S  S59  1  0.61569597  0.72317830  0.00753703  1  -0.374493  0.013893  2.058674  0.012  -0.371603  0.001293  2.368321  0.0  -0.387751  0.00015  2.355795  -0.001  -0.161611  -0.358826  0.002998  2.374501  0.002
N  N60  1  0.04788755  0.71760139  0.08424010  1  -0.373502  -0.109496  3.221106  -0.13  -0.334466  -0.066966  3.534481  -0.086  -0.37379  -0.054568  3.554678  -0.074  -0.376815  -0.3117  -0.072518  3.523984  -0.09
N  N61  1  0.95210688  0.28239782  0.91575621  1  -0.373355  0.109523  3.221062  0.13  -0.334357  0.066974  3.534483  0.086  -0.373668  0.054579  3.554673  0.074  -0.376791  -0.311557  0.072533  3.523953  0.09
N  N62  1  0.67600696  0.04819186  0.03858752  1  -0.544132  -0.045484  3.05717  -0.051  -0.520796  -0.031432  3.366339  -0.036  -0.551361  -0.028968  3.366712  -0.035  -0.435291  -0.5012  -0.032391  3.367009  -0.036
N  N63  1  0.32400852  0.95179936  0.96142114  1  -0.543939  0.045437  3.058552  0.051  -0.520605  0.031424  3.367682  0.036  -0.551117  0.028961  3.367981  0.035  -0.435108  -0.501008  0.032384  3.36837  0.036
Cl  Cl64  1  0.42057628  0.60455711  0.58316565  1  -0.101609  -0.002262  1.423473  -0.002  -0.082197  -0.000317  1.67082  0.0  -0.0863  -0.000177  1.665217  0.0  0.005736  -0.079369  -0.000334  1.67459  0.0
Cl  Cl65  1  0.57942285  0.39544427  0.41683531  1  -0.101608  0.002265  1.423367  0.002  -0.082212  0.000316  1.670678  0.0  -0.086319  0.000176  1.665071  0.0  0.005741  -0.079381  0.000334  1.674455  0.0
O  O66  1  0.82565435  0.83227841  0.23819599  1  -0.507648  -0.041454  2.209347  -0.052  -0.454921  -0.042627  2.449504  -0.059  -0.481295  -0.035524  2.43773  -0.052  -0.379376  -0.437927  -0.046323  2.459255  -0.061
O  O67  1  0.17434080  0.16771875  0.76180610  1  -0.507711  0.041459  2.209442  0.052  -0.454895  0.042632  2.449658  0.059  -0.48126  0.035529  2.437875  0.052  -0.379397  -0.4379  0.046329  2.459409  0.061
O  O68  1  0.93109378  0.94092311  0.87591374  1  -0.567529  -0.121273  2.173029  -0.155  -0.551374  -0.077872  2.476832  -0.112  -0.603785  -0.057896  2.477208  -0.088  -0.319668  -0.518682  -0.089026  2.478827  -0.123
O  O69  1  0.06890807  0.05908248  0.12408972  1  -0.567544  0.121287  2.172891  0.155  -0.551396  0.077878  2.476688  0.112  -0.603811  0.057901  2.477082  0.088  -0.319706  -0.518692  0.089042  2.478665  0.123
O  O70  1  0.21083588  0.82048917  0.28872719  1  -0.537343  0.002766  2.072562  0.004  -0.491349  0.001457  2.293635  0.002  -0.507524  0.000751  2.282509  0.001  -0.420776  -0.478694  0.002328  2.300648  0.003
O  O71  1  0.78916740  0.17950705  0.71127203  1  -0.537379  -0.002765  2.072431  -0.004  -0.491369  -0.001459  2.293546  -0.002  -0.507549  -0.000751  2.282409  -0.001  -0.420789  -0.478707  -0.002327  2.300563  -0.003
