# generated using pymatgen
data_CdH10C10(BrN)2
_symmetry_space_group_name_H-M   'P 1'
_cell_length_a   3.91540964
_cell_length_b   8.52520791
_cell_length_c   18.36176302
_cell_angle_alpha   89.99996180
_cell_angle_beta   90.00089299
_cell_angle_gamma   90.00052630
_symmetry_Int_Tables_number   1
_chemical_formula_structural   CdH10C10(BrN)2
_chemical_formula_sum   'Cd2 H20 C20 Br4 N4'
_cell_volume   612.90979601
_cell_formula_units_Z   2
loop_
 _symmetry_equiv_pos_site_id
 _symmetry_equiv_pos_as_xyz
  1  'x, y, z'
loop_
 _atom_site_type_symbol
 _atom_site_label
 _atom_site_symmetry_multiplicity
 _atom_site_fract_x
 _atom_site_fract_y
 _atom_site_fract_z
 _atom_site_occupancy
 _atom_site_hle17_bader_spin_density
 _atom_site_hle17_ddec_charge
 _atom_site_hle17_ddec_spin_density
 _atom_site_hle17_ddec_sum_bond_order
 _atom_site_hle17_magmom
 _atom_site_hse06_10hf_bader_spin_density
 _atom_site_hse06_10hf_ddec_charge
 _atom_site_hse06_10hf_ddec_spin_density
 _atom_site_hse06_10hf_ddec_sum_bond_order
 _atom_site_hse06_10hf_magmom
 _atom_site_hse06_bader_spin_density
 _atom_site_hse06_ddec_charge
 _atom_site_hse06_ddec_spin_density
 _atom_site_hse06_ddec_sum_bond_order
 _atom_site_hse06_magmom
 _atom_site_pbe_bader_spin_density
 _atom_site_pbe_cm5_charge
 _atom_site_pbe_ddec_charge
 _atom_site_pbe_ddec_spin_density
 _atom_site_pbe_ddec_sum_bond_order
 _atom_site_pbe_magmom
Cd  Cd0  1  0.00000000  0.00000117  0.00000272  1  0  0.855238  0  2.011803  0  0  0.689167  0  2.462701  0  0  0.737941  0  2.424904  0  0  0.547009  0.654883  0  2.488762  0
Cd  Cd1  1  0.49998525  0.50001212  0.49999960  1  0  0.855261  0  2.011835  0  0  0.689196  0  2.462762  0  0  0.737972  0  2.424949  0  0  0.547033  0.654913  0  2.488822  0
H  H2  1  0.99999745  0.98442472  0.82747164  1  0  0.068445  0  0.966751  0  0  0.073789  0  1.040954  0  0  0.07635  0  1.038131  0  0  0.101468  0.071843  0  1.043113  0
H  H3  1  0.49999888  0.48442178  0.67252443  1  0  0.068433  0  0.966735  0  0  0.073787  0  1.040927  0  0  0.076343  0  1.038114  0  0  0.101437  0.071842  0  1.043083  0
H  H4  1  0.49999971  0.51558838  0.32747204  1  0  0.068443  0  0.966729  0  0  0.073753  0  1.040998  0  0  0.076306  0  1.038186  0  0  0.101411  0.071812  0  1.043155  0
H  H5  1  0.99999868  0.01556546  0.17253198  1  0  0.068504  0  0.96681  0  0  0.073858  0  1.041014  0  0  0.076438  0  1.038154  0  0  0.101459  0.071914  0  1.043168  0
H  H6  1  0.00000210  0.79214095  0.72225839  1  0  0.105298  0  0.969018  0  0  0.114851  0  1.030562  0  0  0.117861  0  1.029969  0  0  0.096701  0.112632  0  1.03121  0
H  H7  1  0.50000085  0.29213432  0.77773821  1  0  0.105103  0  0.969009  0  0  0.114691  0  1.030568  0  0  0.117697  0  1.029985  0  0  0.096673  0.112507  0  1.031178  0
H  H8  1  0.50000284  0.70786411  0.22225662  1  0  0.105309  0  0.968978  0  0  0.114842  0  1.030554  0  0  0.117854  0  1.029959  0  0  0.096694  0.112621  0  1.031205  0
H  H9  1  0.00000661  0.20784579  0.27774944  1  0  0.105125  0  0.968964  0  0  0.114633  0  1.03059  0  0  0.117683  0  1.029954  0  0  0.096599  0.112409  0  1.031244  0
H  H10  1  0.00001838  0.50610685  0.75023724  1  0  0.084048  0  0.969004  0  0  0.094591  0  1.033926  0  0  0.096514  0  1.033192  0  0  0.101643  0.093187  0  1.034468  0
H  H11  1  0.49999471  0.00610026  0.74975348  1  0  0.084138  0  0.968985  0  0  0.094636  0  1.033982  0  0  0.096549  0  1.033264  0  0  0.101724  0.093249  0  1.03448  0
H  H12  1  0.49999366  0.99389700  0.25023591  1  0  0.084112  0  0.96909  0  0  0.094652  0  1.033987  0  0  0.09657  0  1.03326  0  0  0.101652  0.093246  0  1.034529  0
H  H13  1  0.00001588  0.49388458  0.24977495  1  0  0.084013  0  0.969063  0  0  0.094577  0  1.03397  0  0  0.096507  0  1.033218  0  0  0.101556  0.093173  0  1.03451  0
H  H14  1  0.00001713  0.41913646  0.88158248  1  0  0.104737  0  0.979731  0  0  0.110102  0  1.049211  0  0  0.113816  0  1.047042  0  0  0.089989  0.107285  0  1.051178  0
H  H15  1  0.50001112  0.91912792  0.61840917  1  0  0.104674  0  0.979815  0  0  0.109968  0  1.049387  0  0  0.113678  0  1.047212  0  0  0.089933  0.107151  0  1.051358  0
H  H16  1  0.49997725  0.08087168  0.38158021  1  0  0.104671  0  0.979765  0  0  0.110028  0  1.049266  0  0  0.113742  0  1.047094  0  0  0.089967  0.107213  0  1.05123  0
H  H17  1  0.00001457  0.58085849  0.11843024  1  0  0.104765  0  0.979645  0  0  0.110141  0  1.04913  0  0  0.113867  0  1.046956  0  0  0.090024  0.107323  0  1.0511  0
H  H18  1  0.00000203  0.62698705  0.97885088  1  0  0.070561  0  0.961142  0  0  0.078294  0  1.030294  0  0  0.080539  0  1.027758  0  0  0.104069  0.076601  0  1.03217  0
H  H19  1  0.50001326  0.12698542  0.52114088  1  0  0.070541  0  0.96105  0  0  0.078281  0  1.030179  0  0  0.080492  0  1.027688  0  0  0.104094  0.07659  0  1.032052  0
H  H20  1  0.49997511  0.87302473  0.47885287  1  0  0.070514  0  0.961184  0  0  0.078256  0  1.030322  0  0  0.080469  0  1.027829  0  0  0.104126  0.076563  0  1.032196  0
H  H21  1  0.00000413  0.37302197  0.02115422  1  0  0.070516  0  0.961186  0  0  0.078292  0  1.030319  0  0  0.08052  0  1.027804  0  0  0.104089  0.076601  0  1.03219  0
C  C22  1  0.99999661  0.85787061  0.83614131  1  0  0.115625  0  3.731399  0  0  0.083814  0  3.982075  0  0  0.090702  0  4.001306  0  0  0.035827  0.079405  0  3.969006  0
C  C23  1  0.50000253  0.35786299  0.66384663  1  0  0.115516  0  3.73142  0  0  0.083707  0  3.982147  0  0  0.090589  0  4.001381  0  0  0.035763  0.079297  0  3.969086  0
C  C24  1  0.49999095  0.64214247  0.33614820  1  0  0.115597  0  3.731435  0  0  0.083777  0  3.98219  0  0  0.090662  0  4.001416  0  0  0.035859  0.079367  0  3.969118  0
C  C25  1  0.00000198  0.14212195  0.16385951  1  0  0.115442  0  3.731545  0  0  0.083614  0  3.982181  0  0  0.090494  0  4.001428  0  0  0.035828  0.079207  0  3.969101  0
C  C26  1  0.00000628  0.75163516  0.77858196  1  0  -0.131443  0  3.742596  0  0  -0.139292  0  3.98525  0  0  -0.146892  0  4.007556  0  0  -0.091483  -0.134393  0  3.970305  0
C  C27  1  0.49999339  0.25163212  0.72140703  1  0  -0.131169  0  3.742617  0  0  -0.139092  0  3.985341  0  0  -0.146689  0  4.007652  0  0  -0.091414  -0.134225  0  3.97038  0
C  C28  1  0.49998988  0.74838039  0.27858290  1  0  -0.131368  0  3.742464  0  0  -0.139174  0  3.985074  0  0  -0.146774  0  4.007383  0  0  -0.091432  -0.134274  0  3.970136  0
C  C29  1  0.00001009  0.24835627  0.22142368  1  0  -0.131032  0  3.742325  0  0  -0.138854  0  3.984979  0  0  -0.146488  0  4.00727  0  0  -0.091248  -0.133948  0  3.970031  0
C  C30  1  0.00001305  0.59155811  0.79437459  1  0  -0.005196  0  3.721708  0  0  -0.021115  0  3.960756  0  0  -0.018094  0  3.981052  0  0  -0.070021  -0.022739  0  3.946755  0
C  C31  1  0.49999904  0.09155861  0.70562208  1  0  -0.005181  0  3.721669  0  0  -0.021046  0  3.960737  0  0  -0.018024  0  3.981032  0  0  -0.07  -0.02267  0  3.946758  0
C  C32  1  0.49998423  0.90844803  0.29437221  1  0  -0.005428  0  3.722026  0  0  -0.021319  0  3.96104  0  0  -0.018303  0  3.981346  0  0  -0.070098  -0.022942  0  3.94704  0
C  C33  1  0.00001609  0.40842745  0.20563704  1  0  -0.005358  0  3.721976  0  0  -0.021279  0  3.960961  0  0  -0.01826  0  3.981276  0  0  -0.070128  -0.022898  0  3.946951  0
C  C34  1  0.00000752  0.54302553  0.86687472  1  0  -0.119802  0  3.725393  0  0  -0.128287  0  3.968914  0  0  -0.135679  0  3.990597  0  0  -0.087305  -0.123543  0  3.954405  0
C  C35  1  0.50001391  0.04301673  0.63311707  1  0  -0.119886  0  3.725473  0  0  -0.128362  0  3.969071  0  0  -0.13574  0  3.990733  0  0  -0.087303  -0.123625  0  3.95457  0
C  C36  1  0.49997702  0.95698052  0.36687450  1  0  -0.119641  0  3.725456  0  0  -0.128151  0  3.968977  0  0  -0.135534  0  3.990644  0  0  -0.087227  -0.123406  0  3.954463  0
C  C37  1  0.00001141  0.45696825  0.13313583  1  0  -0.119605  0  3.725641  0  0  -0.128114  0  3.969148  0  0  -0.135518  0  3.990836  0  0  -0.087141  -0.123371  0  3.95464  0
C  C38  1  0.99999524  0.65728425  0.92115933  1  0  0.13337  0  3.698151  0  0  0.102854  0  3.942951  0  0  0.110104  0  3.962103  0  0  0.043909  0.098218  0  3.929867  0
C  C39  1  0.50000791  0.15726852  0.57883414  1  0  0.133409  0  3.698525  0  0  0.102938  0  3.943331  0  0  0.110206  0  3.962444  0  0  0.043785  0.098307  0  3.93024  0
C  C40  1  0.49998046  0.84273225  0.42116124  1  0  0.133486  0  3.698405  0  0  0.102994  0  3.943234  0  0  0.110261  0  3.962343  0  0  0.043871  0.098364  0  3.930144  0
C  C41  1  0.00000079  0.34272121  0.07884694  1  0  0.133429  0  3.698318  0  0  0.102868  0  3.943131  0  0  0.110126  0  3.962265  0  0  0.043886  0.098235  0  3.930039  0
Br  Br42  1  0.50000383  0.82714692  0.07517704  1  0  -0.53923  0  1.024047  0  0  -0.482304  0  1.329992  0  0  -0.501073  0  1.308048  0  0  -0.266672  -0.468499  0  1.34561  0
Br  Br43  1  0.99997723  0.32717295  0.42481979  1  0  -0.539138  0  1.023983  0  0  -0.48227  0  1.330004  0  0  -0.501017  0  1.308047  0  0  -0.266625  -0.46849  0  1.345661  0
Br  Br44  1  0.00000092  0.67284424  0.57517831  1  0  -0.539187  0  1.024095  0  0  -0.482293  0  1.330068  0  0  -0.501037  0  1.308104  0  0  -0.266655  -0.468496  0  1.345687  0
Br  Br45  1  0.49999987  0.17283978  0.92482542  1  0  -0.539158  0  1.023977  0  0  -0.482258  0  1.329943  0  0  -0.501003  0  1.307976  0  0  -0.266649  -0.468461  0  1.34558  0
N  N46  1  0.99999866  0.81136261  0.90605618  1  0  -0.314069  0  3.297849  0  0  -0.231881  0  3.54917  0  0  -0.253121  0  3.572286  0  0  -0.331658  -0.217445  0  3.53302  0
N  N47  1  0.50000219  0.31134687  0.59393614  1  0  -0.314046  0  3.297962  0  0  -0.231824  0  3.549211  0  0  -0.253064  0  3.572335  0  0  -0.331549  -0.217377  0  3.533033  0
N  N48  1  0.49998619  0.68864921  0.40605488  1  0  -0.31418  0  3.298398  0  0  -0.232002  0  3.549717  0  0  -0.253254  0  3.57287  0  0  -0.331705  -0.217554  0  3.533538  0
N  N49  1  0.00001015  0.18863816  0.09394792  1  0  -0.314209  0  3.298135  0  0  -0.232035  0  3.549483  0  0  -0.253289  0  3.572639  0  0  -0.331766  -0.217602  0  3.533347  0
