# generated using pymatgen
data_ZnH6C11(NO2)2
_symmetry_space_group_name_H-M   'P 1'
_cell_length_a   5.21899114
_cell_length_b   9.04720732
_cell_length_c   23.65915078
_cell_angle_alpha   84.41993795
_cell_angle_beta   83.65540041
_cell_angle_gamma   73.22989243
_symmetry_Int_Tables_number   1
_chemical_formula_structural   ZnH6C11(NO2)2
_chemical_formula_sum   'Zn4 H24 C44 N8 O16'
_cell_volume   1060.54922317
_cell_formula_units_Z   4
loop_
 _symmetry_equiv_pos_site_id
 _symmetry_equiv_pos_as_xyz
  1  'x, y, z'
loop_
 _atom_site_type_symbol
 _atom_site_label
 _atom_site_symmetry_multiplicity
 _atom_site_fract_x
 _atom_site_fract_y
 _atom_site_fract_z
 _atom_site_occupancy
 _atom_site_hle17_bader_spin_density
 _atom_site_hle17_ddec_charge
 _atom_site_hle17_ddec_spin_density
 _atom_site_hle17_ddec_sum_bond_order
 _atom_site_hle17_magmom
 _atom_site_hse06_10hf_bader_spin_density
 _atom_site_hse06_10hf_ddec_charge
 _atom_site_hse06_10hf_ddec_spin_density
 _atom_site_hse06_10hf_ddec_sum_bond_order
 _atom_site_hse06_10hf_magmom
 _atom_site_hse06_bader_spin_density
 _atom_site_hse06_ddec_charge
 _atom_site_hse06_ddec_spin_density
 _atom_site_hse06_ddec_sum_bond_order
 _atom_site_hse06_magmom
 _atom_site_pbe_bader_spin_density
 _atom_site_pbe_cm5_charge
 _atom_site_pbe_ddec_charge
 _atom_site_pbe_ddec_spin_density
 _atom_site_pbe_ddec_sum_bond_order
 _atom_site_pbe_magmom
Zn  Zn0  1  0.88716848  0.66767070  0.67914429  1  0  1.095558  0  1.802845  0  0  0.911835  0  2.28701  0  0  0.9604  0  2.226964  0  0  0.706089  0.877841  0  2.328161  0
Zn  Zn1  1  0.23366448  0.83263345  0.82081717  1  0  1.095487  0  1.802859  0  0  0.910927  0  2.288226  0  0  0.959509  0  2.228116  0  0  0.705947  0.878365  0  2.326609  0
Zn  Zn2  1  0.11283460  0.33233047  0.32085584  1  0  1.095553  0  1.80284  0  0  0.911826  0  2.286993  0  0  0.960395  0  2.226947  0  0  0.706069  0.877831  0  2.328136  0
Zn  Zn3  1  0.76633197  0.16736888  0.17918322  1  0  1.095475  0  1.802844  0  0  0.910949  0  2.288196  0  0  0.959535  0  2.228083  0  0  0.705941  0.878376  0  2.32659  0
H  H4  1  0.67016574  0.16180340  0.69182823  1  0  0.112947  0  0.935105  0  0  0.125054  0  0.993044  0  0  0.128524  0  0.990858  0  0  0.11251  0.122418  0  0.995013  0
H  H5  1  0.52585346  0.33752775  0.80809409  1  0  0.112877  0  0.935836  0  0  0.124815  0  0.993934  0  0  0.128236  0  0.991831  0  0  0.112246  0.122018  0  0.9961  0
H  H6  1  0.32983456  0.83819662  0.30817141  1  0  0.11301  0  0.935157  0  0  0.125121  0  0.993085  0  0  0.128586  0  0.990898  0  0  0.112556  0.122483  0  0.995063  0
H  H7  1  0.47415564  0.66246879  0.19190624  1  0  0.112834  0  0.935852  0  0  0.124777  0  0.993949  0  0  0.128196  0  0.991847  0  0  0.112219  0.121979  0  0.996119  0
H  H8  1  0.45374584  0.42063681  0.68390685  1  0  0.105863  0  0.924186  0  0  0.117278  0  0.982793  0  0  0.120019  0  0.979108  0  0  0.145427  0.115211  0  0.985561  0
H  H9  1  0.55892175  0.07933340  0.81598162  1  0  0.105235  0  0.924425  0  0  0.117019  0  0.982827  0  0  0.119818  0  0.9791  0  0  0.145192  0.114827  0  0.985326  0
H  H10  1  0.54625822  0.57936320  0.31609288  1  0  0.10589  0  0.92416  0  0  0.117303  0  0.982775  0  0  0.120045  0  0.979086  0  0  0.145428  0.115232  0  0.985542  0
H  H11  1  0.44107696  0.92066429  0.18401888  1  0  0.105264  0  0.924366  0  0  0.117038  0  0.982785  0  0  0.11983  0  0.979058  0  0  0.1452  0.114849  0  0.985285  0
H  H12  1  0.96045836  0.57523723  0.54858497  1  0  0.115005  0  0.978613  0  0  0.123201  0  1.040594  0  0  0.126444  0  1.038544  0  0  0.1186  0.120764  0  1.042313  0
H  H13  1  0.08577020  0.92445406  0.95144095  1  0  0.115552  0  0.978131  0  0  0.123323  0  1.040549  0  0  0.126528  0  1.038554  0  0  0.119  0.120819  0  1.042335  0
H  H14  1  0.03954181  0.42476046  0.45141599  1  0  0.115009  0  0.978548  0  0  0.123202  0  1.040541  0  0  0.126446  0  1.038488  0  0  0.118602  0.120763  0  1.04226  0
H  H15  1  0.91422395  0.07554826  0.04855981  1  0  0.115534  0  0.978215  0  0  0.123359  0  1.040551  0  0  0.126564  0  1.038555  0  0  0.119027  0.120854  0  1.042336  0
H  H16  1  0.40464242  0.33114493  0.51290134  1  0  0.135954  0  0.989854  0  0  0.141202  0  1.057276  0  0  0.145103  0  1.054216  0  0  0.124436  0.138368  0  1.059499  0
H  H17  1  0.25133877  0.16789379  0.98717399  1  0  0.135776  0  0.990313  0  0  0.141427  0  1.05694  0  0  0.145345  0  1.053865  0  0  0.124735  0.138295  0  1.059696  0
H  H18  1  0.59535139  0.66885508  0.48709901  1  0  0.135967  0  0.989854  0  0  0.141235  0  1.057257  0  0  0.145136  0  1.054197  0  0  0.124446  0.1384  0  1.059485  0
H  H19  1  0.74866257  0.83210622  0.01282655  1  0  0.135747  0  0.990356  0  0  0.141458  0  1.056904  0  0  0.145376  0  1.05383  0  0  0.124742  0.138322  0  1.059671  0
H  H20  1  0.85645988  0.23834902  0.51090305  1  0  0.112048  0  0.953841  0  0  0.12225  0  1.016865  0  0  0.12544  0  1.015449  0  0  0.11117  0.119736  0  1.018404  0
H  H21  1  0.60495890  0.26224800  0.98913223  1  0  0.111764  0  0.954607  0  0  0.121602  0  1.018072  0  0  0.124685  0  1.016782  0  0  0.110918  0.119221  0  1.019294  0
H  H22  1  0.14353966  0.76164868  0.48909660  1  0  0.112107  0  0.953789  0  0  0.122302  0  1.016827  0  0  0.125499  0  1.015404  0  0  0.111193  0.119793  0  1.018366  0
H  H23  1  0.39504489  0.73775085  0.01086837  1  0  0.111761  0  0.95463  0  0  0.121603  0  1.018092  0  0  0.124686  0  1.016803  0  0  0.110928  0.119222  0  1.019314  0
H  H24  1  0.27169246  0.02120695  0.51605193  1  0  0.102438  0  0.957571  0  0  0.111146  0  1.021741  0  0  0.114236  0  1.020042  0  0  0.105745  0.108813  0  1.023222  0
H  H25  1  0.80698716  0.47995004  0.98393646  1  0  0.102952  0  0.95778  0  0  0.111632  0  1.021802  0  0  0.114723  0  1.020111  0  0  0.10603  0.109061  0  1.0237  0
H  H26  1  0.72830596  0.97879306  0.48394767  1  0  0.102486  0  0.957566  0  0  0.111152  0  1.021772  0  0  0.114239  0  1.020081  0  0  0.105778  0.10886  0  1.02321  0
H  H27  1  0.19301475  0.52004882  0.01606410  1  0  0.103009  0  0.957784  0  0  0.111699  0  1.02178  0  0  0.114791  0  1.020089  0  0  0.106048  0.10913  0  1.023679  0
C  C28  1  0.47121573  0.84338564  0.60739998  1  0  0.649605  0  3.938862  0  0  0.598728  0  4.238852  0  0  0.632958  0  4.231655  0  0  0.204808  0.575495  0  4.242811  0
C  C29  1  0.92132869  0.65695857  0.89258982  1  0  0.651479  0  3.940988  0  0  0.599988  0  4.241626  0  0  0.634077  0  4.23458  0  0  0.20534  0.5779  0  4.243132  0
C  C30  1  0.52878443  0.15661554  0.39259921  1  0  0.64968  0  3.938842  0  0  0.598788  0  4.238829  0  0  0.633019  0  4.231632  0  0  0.20487  0.575551  0  4.242788  0
C  C31  1  0.07866358  0.34304375  0.10741089  1  0  0.651278  0  3.941197  0  0  0.599808  0  4.241851  0  0  0.633897  0  4.234806  0  0  0.205167  0.577712  0  4.243361  0
C  C32  1  0.20983694  0.96975052  0.60622200  1  0  -0.077614  0  3.708366  0  0  -0.066341  0  3.943941  0  0  -0.073535  0  3.965995  0  0  -0.013295  -0.061508  0  3.928655  0
C  C33  1  0.78532657  0.53064605  0.89373552  1  0  -0.078536  0  3.712044  0  0  -0.066832  0  3.947744  0  0  -0.073967  0  3.969855  0  0  -0.013822  -0.062109  0  3.930862  0
C  C34  1  0.79016190  0.03024950  0.39377717  1  0  -0.077628  0  3.708422  0  0  -0.066311  0  3.94395  0  0  -0.073503  0  3.966004  0  0  -0.013317  -0.061476  0  3.928673  0
C  C35  1  0.21466871  0.46935396  0.10626530  1  0  -0.078381  0  3.712036  0  0  -0.066728  0  3.947782  0  0  -0.073862  0  3.96989  0  0  -0.01379  -0.061994  0  3.930891  0
C  C36  1  0.03962600  0.01170281  0.65620187  1  0  -0.037728  0  3.715606  0  0  -0.021828  0  3.948593  0  0  -0.024411  0  3.967608  0  0  -0.002777  -0.020247  0  3.935818  0
C  C37  1  0.70749266  0.48851330  0.84375901  1  0  -0.037711  0  3.715132  0  0  -0.022199  0  3.94855  0  0  -0.024857  0  3.967646  0  0  -0.002544  -0.02072  0  3.935879  0
C  C38  1  0.96037806  0.98829720  0.34379786  1  0  -0.037756  0  3.715601  0  0  -0.021886  0  3.948619  0  0  -0.024476  0  3.967643  0  0  -0.002792  -0.020307  0  3.935848  0
C  C39  1  0.29251008  0.51148556  0.15624071  1  0  -0.037768  0  3.715107  0  0  -0.0222  0  3.948532  0  0  -0.024857  0  3.967627  0  0  -0.002522  -0.020723  0  3.935865  0
C  C40  1  0.08843180  0.92049872  0.71244916  1  0  0.696355  0  3.848695  0  0  0.641842  0  4.138888  0  0  0.678124  0  4.128562  0  0  0.224033  0.61699  0  4.145348  0
C  C41  1  0.72132493  0.57965886  0.78747728  1  0  0.6961  0  3.8458  0  0  0.641184  0  4.136596  0  0  0.677549  0  4.126238  0  0  0.224218  0.616461  0  4.143128  0
C  C42  1  0.91156808  0.07950129  0.28755090  1  0  0.696346  0  3.848743  0  0  0.641829  0  4.138956  0  0  0.678115  0  4.128627  0  0  0.224017  0.616977  0  4.145418  0
C  C43  1  0.27867396  0.42034230  0.21252318  1  0  0.696242  0  3.845452  0  0  0.641262  0  4.136349  0  0  0.677626  0  4.125991  0  0  0.224262  0.616532  0  4.142898  0
C  C44  1  0.80587640  0.13419209  0.65349706  1  0  -0.148549  0  3.699195  0  0  -0.182679  0  3.953037  0  0  -0.1859  0  3.97173  0  0  -0.082417  -0.180593  0  3.940734  0
C  C45  1  0.59453846  0.36561350  0.84646327  1  0  -0.146818  0  3.697793  0  0  -0.180517  0  3.950585  0  0  -0.183687  0  3.96923  0  0  -0.082103  -0.179218  0  3.939509  0
C  C46  1  0.19412474  0.86580793  0.34650173  1  0  -0.148663  0  3.699223  0  0  -0.182793  0  3.953082  0  0  -0.186006  0  3.971767  0  0  -0.082486  -0.180705  0  3.940781  0
C  C47  1  0.40546589  0.63438420  0.15353736  1  0  -0.146765  0  3.697802  0  0  -0.18047  0  3.95059  0  0  -0.183638  0  3.969235  0  0  -0.082072  -0.179169  0  3.939514  0
C  C48  1  0.74066331  0.21544603  0.60132031  1  0  0.18787  0  3.778777  0  0  0.179429  0  4.029843  0  0  0.185661  0  4.052172  0  0  0.099769  0.175269  0  4.014665  0
C  C49  1  0.55824285  0.28441757  0.89866369  1  0  0.187092  0  3.779139  0  0  0.179652  0  4.028124  0  0  0.185836  0  4.050428  0  0  0.100177  0.1753  0  4.013794  0
C  C50  1  0.25933595  0.78455400  0.39867844  1  0  0.187947  0  3.778694  0  0  0.179508  0  4.029752  0  0  0.185749  0  4.052073  0  0  0.099772  0.175345  0  4.014586  0
C  C51  1  0.44176380  0.71558013  0.10133657  1  0  0.187071  0  3.779014  0  0  0.17963  0  4.028037  0  0  0.185811  0  4.050343  0  0  0.10018  0.175281  0  4.013702  0
C  C52  1  0.37626819  0.42917559  0.64271038  1  0  0.185766  0  3.61519  0  0  0.12375  0  3.876109  0  0  0.139018  0  3.886427  0  0  0.15429  0.113802  0  3.868738  0
C  C53  1  0.44906542  0.07070080  0.85723058  1  0  0.184811  0  3.615375  0  0  0.122295  0  3.876553  0  0  0.137392  0  3.887  0  0  0.154271  0.113767  0  3.867712  0
C  C54  1  0.62373211  0.57082443  0.35728926  1  0  0.185826  0  3.615096  0  0  0.123807  0  3.876013  0  0  0.139076  0  3.886332  0  0  0.154333  0.113865  0  3.868634  0
C  C55  1  0.55093705  0.92929689  0.14277001  1  0  0.184736  0  3.61537  0  0  0.12223  0  3.876557  0  0  0.137337  0  3.886993  0  0  0.154286  0.113696  0  3.86772  0
C  C56  1  0.13231283  0.50604572  0.57027575  1  0  0.002195  0  3.72982  0  0  -0.032899  0  3.996984  0  0  -0.031673  0  4.016451  0  0  -0.001038  -0.033603  0  3.983659  0
C  C57  1  0.21003846  0.99360990  0.92972649  1  0  0.002251  0  3.732114  0  0  -0.032361  0  3.99959  0  0  -0.031107  0  4.019067  0  0  -0.001616  -0.033552  0  3.986266  0
C  C58  1  0.86768672  0.49395198  0.42972390  1  0  0.002297  0  3.729741  0  0  -0.032803  0  3.996911  0  0  -0.031576  0  4.016378  0  0  -0.001027  -0.0335  0  3.983577  0
C  C59  1  0.78995855  0.00639127  0.07027392  1  0  0.002178  0  3.732161  0  0  -0.032473  0  3.999642  0  0  -0.031221  0  4.019122  0  0  -0.001658  -0.033663  0  3.986316  0
C  C60  1  0.34931583  0.38830806  0.55259446  1  0  -0.055669  0  3.630973  0  0  -0.095321  0  3.888264  0  0  -0.094477  0  3.907515  0  0  0.00614  -0.095321  0  3.874671  0
C  C61  1  0.29208806  0.11105649  0.94743581  1  0  -0.053938  0  3.632576  0  0  -0.093541  0  3.888969  0  0  -0.092764  0  3.908187  0  0  0.00721  -0.09393  0  3.876826  0
C  C62  1  0.65068085  0.61169080  0.44740554  1  0  -0.055774  0  3.630953  0  0  -0.095446  0  3.888232  0  0  -0.094602  0  3.907483  0  0  0.006093  -0.095451  0  3.874647  0
C  C63  1  0.70791573  0.88894236  0.05256480  1  0  -0.05391  0  3.63266  0  0  -0.093551  0  3.889047  0  0  -0.092777  0  3.908268  0  0  0.007187  -0.093941  0  3.876912  0
C  C64  1  0.90641274  0.17452837  0.55151500  1  0  -0.140497  0  3.726768  0  0  -0.163634  0  3.982153  0  0  -0.167552  0  4.001713  0  0  -0.085345  -0.161092  0  3.969288  0
C  C65  1  0.63214987  0.32585166  0.94849274  1  0  -0.139377  0  3.727414  0  0  -0.162349  0  3.982081  0  0  -0.16608  0  4.001501  0  0  -0.085151  -0.160055  0  3.969913  0
C  C66  1  0.09358840  0.82547165  0.44848380  1  0  -0.140599  0  3.726846  0  0  -0.163732  0  3.982218  0  0  -0.16766  0  4.001776  0  0  -0.085363  -0.161199  0  3.969378  0
C  C67  1  0.36785621  0.67414720  0.05150749  1  0  -0.139305  0  3.727211  0  0  -0.162287  0  3.981892  0  0  -0.166017  0  4.001311  0  0  -0.085147  -0.159997  0  3.969734  0
C  C68  1  0.13878677  0.05198028  0.55449492  1  0  -0.045497  0  3.736087  0  0  -0.067854  0  3.985588  0  0  -0.067252  0  4.005702  0  0  -0.076771  -0.068049  0  3.971996  0
C  C69  1  0.74425658  0.44867749  0.94548732  1  0  -0.046292  0  3.736191  0  0  -0.06879  0  3.985797  0  0  -0.068211  0  4.005842  0  0  -0.077211  -0.069167  0  3.972491  0
C  C70  1  0.86121508  0.94801743  0.44550436  1  0  -0.045534  0  3.736167  0  0  -0.067869  0  3.985674  0  0  -0.067266  0  4.00579  0  0  -0.076795  -0.06809  0  3.972072  0
C  C71  1  0.25574386  0.55132136  0.05451277  1  0  -0.046497  0  3.736176  0  0  -0.068989  0  3.985834  0  0  -0.068408  0  4.005871  0  0  -0.077273  -0.069372  0  3.972532  0
N  N72  1  0.50183121  0.34004546  0.59903882  1  0  -0.079243  0  3.587911  0  0  0.011082  0  3.797206  0  0  -0.003997  0  3.822756  0  0  -0.21618  0.020825  0  3.779463  0
N  N73  1  0.44221030  0.15959372  0.90095233  1  0  -0.079992  0  3.588212  0  0  0.010364  0  3.797527  0  0  -0.004587  0  3.823157  0  0  -0.217246  0.019053  0  3.780157  0
N  N74  1  0.49816819  0.65995340  0.40096038  1  0  -0.079249  0  3.587787  0  0  0.011079  0  3.797077  0  0  -0.004003  0  3.822626  0  0  -0.216151  0.020824  0  3.779337  0
N  N75  1  0.55779349  0.84040513  0.09904828  1  0  -0.079889  0  3.588237  0  0  0.01046  0  3.797568  0  0  -0.004489  0  3.823199  0  0  -0.217218  0.019149  0  3.780198  0
N  N76  1  0.15192200  0.52990416  0.62631842  1  0  -0.386487  0  3.331487  0  0  -0.307375  0  3.64049  0  0  -0.32707  0  3.650332  0  0  -0.357519  -0.293879  0  3.633294  0
N  N77  1  0.30919720  0.96990123  0.87366062  1  0  -0.386205  0  3.334152  0  0  -0.307239  0  3.643933  0  0  -0.326868  0  3.653864  0  0  -0.357166  -0.293309  0  3.634032  0
N  N78  1  0.84807741  0.47009471  0.37368078  1  0  -0.386592  0  3.331569  0  0  -0.30747  0  3.640573  0  0  -0.327169  0  3.650417  0  0  -0.357551  -0.293971  0  3.633365  0
N  N79  1  0.69080037  0.03009878  0.12633982  1  0  -0.386172  0  3.334177  0  0  -0.307218  0  3.643982  0  0  -0.326848  0  3.653909  0  0  -0.357198  -0.293285  0  3.634075  0
O  O80  1  0.57083774  0.82227168  0.65627741  1  0  -0.657748  0  2.140487  0  0  -0.582228  0  2.429109  0  0  -0.612762  0  2.413527  0  0  -0.326183  -0.56085  0  2.438857  0
O  O81  1  0.04780808  0.67859676  0.84363301  1  0  -0.659224  0  2.139975  0  0  -0.582962  0  2.428352  0  0  -0.613532  0  2.412887  0  0  -0.326986  -0.562402  0  2.437575  0
O  O82  1  0.42916298  0.17772834  0.34372180  1  0  -0.657744  0  2.140443  0  0  -0.582207  0  2.429048  0  0  -0.612743  0  2.413465  0  0  -0.326177  -0.560829  0  2.438794  0
O  O83  1  0.95218551  0.32140671  0.15636772  1  0  -0.659172  0  2.140095  0  0  -0.582925  0  2.428458  0  0  -0.613498  0  2.412997  0  0  -0.326961  -0.562366  0  2.437678  0
O  O84  1  0.57304012  0.77285800  0.56387107  1  0  -0.612549  0  1.930223  0  0  -0.566385  0  2.155569  0  0  -0.589121  0  2.147328  0  0  -0.320585  -0.550566  0  2.160728  0
O  O85  1  0.91047424  0.72691531  0.93617910  1  0  -0.61391  0  1.930925  0  0  -0.56827  0  2.157121  0  0  -0.590899  0  2.148961  0  0  -0.320296  -0.551357  0  2.160261  0
O  O86  1  0.42696033  0.22714086  0.43612902  1  0  -0.612603  0  1.930202  0  0  -0.566437  0  2.155555  0  0  -0.589172  0  2.147308  0  0  -0.320624  -0.550623  0  2.160725  0
O  O87  1  0.08950851  0.27309281  0.06382044  1  0  -0.613807  0  1.930911  0  0  -0.568141  0  2.157062  0  0  -0.59077  0  2.148904  0  0  -0.320156  -0.551227  0  2.160198  0
O  O88  1  0.11486804  0.99077074  0.75480623  1  0  -0.626994  0  1.967311  0  0  -0.562527  0  2.22309  0  0  -0.591031  0  2.207779  0  0  -0.320579  -0.542747  0  2.233321  0
O  O89  1  0.86103006  0.50946660  0.74516215  1  0  -0.626238  0  1.966783  0  0  -0.56163  0  2.222493  0  0  -0.590199  0  2.207209  0  0  -0.320513  -0.541862  0  2.232782  0
O  O90  1  0.88513357  0.00923043  0.24519342  1  0  -0.626979  0  1.967328  0  0  -0.56251  0  2.223107  0  0  -0.591014  0  2.207787  0  0  -0.320557  -0.542734  0  2.233345  0
O  O91  1  0.13897015  0.49053573  0.25483833  1  0  -0.626301  0  1.966677  0  0  -0.561676  0  2.222428  0  0  -0.590243  0  2.20714  0  0  -0.320553  -0.541909  0  2.232723  0
O  O92  1  0.08988912  0.77932825  0.71738310  1  0  -0.633091  0  2.113853  0  0  -0.55784  0  2.388157  0  0  -0.587197  0  2.372729  0  0  -0.310366  -0.537235  0  2.398292  0
O  O93  1  0.58585674  0.72068641  0.78248292  1  0  -0.633059  0  2.111894  0  0  -0.557428  0  2.386691  0  0  -0.586892  0  2.371248  0  0  -0.31059  -0.537249  0  2.396375  0
O  O94  1  0.91011118  0.22067177  0.28261654  1  0  -0.633076  0  2.113835  0  0  -0.557818  0  2.388136  0  0  -0.587176  0  2.372706  0  0  -0.310361  -0.537213  0  2.398266  0
O  O95  1  0.41413755  0.27931476  0.21751829  1  0  -0.633099  0  2.11176  0  0  -0.557486  0  2.386643  0  0  -0.586953  0  2.371203  0  0  -0.310605  -0.537283  0  2.396285  0
