# generated using pymatgen
data_CoH21C20N4O5
_symmetry_space_group_name_H-M   'P 1'
_cell_length_a   8.09968010
_cell_length_b   17.21545492
_cell_length_c   17.58716720
_cell_angle_alpha   89.99969203
_cell_angle_beta   90.00014179
_cell_angle_gamma   98.18826515
_symmetry_Int_Tables_number   1
_chemical_formula_structural   CoH21C20N4O5
_chemical_formula_sum   'Co4 H84 C80 N16 O20'
_cell_volume   2427.34826235
_cell_formula_units_Z   4
loop_
 _symmetry_equiv_pos_site_id
 _symmetry_equiv_pos_as_xyz
  1  'x, y, z'
loop_
 _atom_site_type_symbol
 _atom_site_label
 _atom_site_symmetry_multiplicity
 _atom_site_fract_x
 _atom_site_fract_y
 _atom_site_fract_z
 _atom_site_occupancy
 _atom_site_pbe_bader_charge
 _atom_site_pbe_bader_spin_density
 _atom_site_pbe_cm5_charge
 _atom_site_pbe_ddec_charge
 _atom_site_pbe_ddec_spin_density
 _atom_site_pbe_ddec_sum_bond_order
 _atom_site_pbe_magmom
Co  Co0  1  0.88906811  0.76590194  0.81014602  1  1.199159  2.553566  0.665525  0.802867  2.773288  2.586176  2.498
Co  Co1  1  0.61093209  0.73409607  0.31014558  1  1.199208  2.553569  0.665506  0.802832  2.773294  2.586152  2.498
Co  Co2  1  0.11093042  0.23410017  0.18985436  1  1.199351  2.553534  0.665515  0.802834  2.773264  2.586232  2.498
Co  Co3  1  0.38906860  0.26590076  0.68985366  1  1.19929  2.553551  0.665545  0.802881  2.773276  2.586086  2.498
H  H4  1  0.66534514  0.49036962  0.72186350  1  0.111479  0.000549  0.099699  0.110472  0.000203  1.029877  0.0
H  H5  1  0.83465645  0.00963468  0.22186449  1  0.111406  0.000549  0.09966  0.110478  0.000203  1.029858  0.0
H  H6  1  0.33465041  0.50963073  0.27813916  1  0.111505  0.000549  0.09973  0.110562  0.000203  1.029807  0.0
H  H7  1  0.16534703  0.99036744  0.77813646  1  0.111458  0.000549  0.099697  0.110542  0.000203  1.029797  0.0
H  H8  1  0.99480171  0.38198658  0.57744218  1  0.089405  3.1e-05  0.102961  0.111636  -7e-05  1.045728  0.0
H  H9  1  0.50519564  0.11801436  0.07743996  1  0.089335  3.1e-05  0.102996  0.111659  -7e-05  1.045761  0.0
H  H10  1  0.00519505  0.61801787  0.42255819  1  0.089277  3.1e-05  0.102985  0.111658  -7e-05  1.045726  0.0
H  H11  1  0.49480680  0.88198423  0.92255871  1  0.08932  3.1e-05  0.103011  0.111703  -7e-05  1.045739  0.0
H  H12  1  0.14857842  0.61543369  0.66574184  1  0.066331  0.000548  0.107165  0.125257  0.000206  1.010384  0.0
H  H13  1  0.35142865  0.88456567  0.16573975  1  0.066387  0.000547  0.107136  0.125172  0.000206  1.010501  0.0
H  H14  1  0.85141552  0.38456958  0.33426138  1  0.06666  0.000547  0.107149  0.125252  0.000206  1.010421  0.0
H  H15  1  0.64857891  0.11543353  0.83426006  1  0.066353  0.000547  0.107143  0.125236  0.000206  1.010398  0.0
H  H16  1  0.27485573  0.39294080  0.58191319  1  0.066097  0.000522  0.095991  0.056798  0.000352  1.027851  0.0
H  H17  1  0.22514555  0.10705718  0.08191128  1  0.066163  0.000522  0.095999  0.056797  0.000352  1.027901  0.0
H  H18  1  0.72513893  0.60706071  0.41809173  1  0.066593  0.000521  0.095951  0.056688  0.000352  1.027909  0.0
H  H19  1  0.77486008  0.89293966  0.91808910  1  0.065983  0.000522  0.095985  0.056813  0.000352  1.027862  0.0
H  H20  1  0.22356968  0.43139070  0.49155570  1  0.05614  8.7e-05  0.096254  0.064883  2.4e-05  0.976357  0.0
H  H21  1  0.27642873  0.06861099  0.99155250  1  0.05607  8.7e-05  0.096232  0.064864  2.4e-05  0.976369  0.0
H  H22  1  0.77642639  0.56861140  0.50844922  1  0.055638  8.7e-05  0.096205  0.064785  2.4e-05  0.976419  0.0
H  H23  1  0.72357299  0.93138937  0.00844617  1  0.055706  8.7e-05  0.096223  0.064856  2.4e-05  0.976386  0.0
H  H24  1  0.54064664  0.68879101  0.88803293  1  0.151627  0.000687  0.144299  0.114946  0.000115  0.983111  0.0
H  H25  1  0.95934079  0.81120833  0.38803476  1  0.151742  0.000687  0.144352  0.115027  0.000115  0.983063  0.0
H  H26  1  0.45934979  0.31120817  0.11196574  1  0.151592  0.000687  0.144319  0.114998  0.000115  0.983062  0.0
H  H27  1  0.04064769  0.18879318  0.61196562  1  0.151567  0.000687  0.144315  0.114973  0.000115  0.983125  0.0
H  H28  1  0.78306942  0.73086889  0.10028983  1  0.138554  0.00079  0.121697  0.123101  0.000204  1.033166  0.0
H  H29  1  0.71692345  0.76912903  0.60029290  1  0.138415  0.000791  0.121725  0.123163  0.000204  1.033035  0.0
H  H30  1  0.21692914  0.26912911  0.89970713  1  0.13848  0.00079  0.121748  0.123165  0.000204  1.033057  0.0
H  H31  1  0.28307707  0.23086721  0.39970918  1  0.138428  0.00079  0.121703  0.123157  0.000204  1.033068  0.0
H  H32  1  0.00954058  0.77558042  0.98107809  1  0.137014  0.000874  0.120411  0.118617  0.000275  1.04664  0.001
H  H33  1  0.49045130  0.72441608  0.48108211  1  0.136938  0.000875  0.120431  0.118568  0.000275  1.046767  0.001
H  H34  1  0.99045692  0.22441817  0.01891831  1  0.137024  0.000875  0.120428  0.118584  0.000275  1.046668  0.001
H  H35  1  0.50954534  0.27557957  0.51892111  1  0.136952  0.000874  0.120413  0.118603  0.000275  1.046794  0.001
H  H36  1  0.38192061  0.63606081  0.00569020  1  0.055303  0.000106  0.116721  0.094949  2e-05  0.95252  0.0
H  H37  1  0.11807067  0.86393819  0.50568925  1  0.05471  0.000106  0.116716  0.094947  2e-05  0.952532  0.0
H  H38  1  0.61807494  0.36393954  0.99430790  1  0.05513  0.000106  0.116723  0.094948  2e-05  0.952554  0.0
H  H39  1  0.88192666  0.13605981  0.49430829  1  0.054851  0.000106  0.116724  0.094941  2e-05  0.952544  0.0
H  H40  1  0.48802969  0.64212277  0.09454253  1  0.051375  0.000297  0.112707  0.089723  0.000115  0.97378  0.0
H  H41  1  0.01196598  0.85787694  0.59454320  1  0.051404  0.000297  0.112748  0.089764  0.000115  0.973759  0.0
H  H42  1  0.51196692  0.35787699  0.90545501  1  0.051363  0.000297  0.112734  0.089765  0.000115  0.973736  0.0
H  H43  1  0.98803310  0.14212282  0.40545547  1  0.051377  0.000297  0.112735  0.089757  0.000115  0.973722  0.0
H  H44  1  0.36570026  0.78098747  0.01220194  1  0.083221  3.9e-05  0.098113  0.109973  -2.8e-05  1.003908  0.0
H  H45  1  0.13429774  0.71901327  0.51220348  1  0.083253  3.9e-05  0.098113  0.10997  -2.8e-05  1.003931  0.0
H  H46  1  0.63430057  0.21901406  0.98779673  1  0.083276  3.9e-05  0.098127  0.109987  -2.8e-05  1.003911  0.0
H  H47  1  0.86570258  0.28098649  0.48779690  1  0.083264  3.9e-05  0.098113  0.10995  -2.8e-05  1.003922  0.0
H  H48  1  0.45445082  0.78383948  0.10505435  1  0.075345  6.7e-05  0.093204  0.094668  -6.8e-05  1.01611  0.0
H  H49  1  0.04554843  0.71615960  0.60505580  1  0.075648  6.7e-05  0.093217  0.09466  -6.8e-05  1.016085  0.0
H  H50  1  0.54555214  0.21616088  0.89494432  1  0.075685  6.7e-05  0.093192  0.094664  -6.8e-05  1.016079  0.0
H  H51  1  0.95445066  0.28384016  0.39494458  1  0.07567  6.7e-05  0.093218  0.094649  -6.8e-05  1.016071  0.0
H  H52  1  0.98939138  0.77909066  0.24902896  1  0.13518  0.000638  0.143697  0.12183  7.6e-05  0.98297  0.0
H  H53  1  0.51060611  0.72090766  0.74902920  1  0.135135  0.000638  0.143688  0.121827  7.6e-05  0.982927  0.0
H  H54  1  0.01060488  0.22090792  0.75096915  1  0.135151  0.000638  0.143678  0.121797  7.6e-05  0.982929  0.0
H  H55  1  0.48938961  0.27909327  0.25096947  1  0.135104  0.000638  0.143689  0.121827  7.6e-05  0.982888  0.0
H  H56  1  0.65516857  0.56815613  0.23406728  1  0.117931  0.000836  0.125751  0.12846  0.000109  0.988833  0.001
H  H57  1  0.84483346  0.93184111  0.73406793  1  0.117913  0.000836  0.125733  0.128436  0.000109  0.988905  0.001
H  H58  1  0.34483441  0.43184013  0.76592969  1  0.117909  0.000836  0.125715  0.128411  0.000109  0.988942  0.001
H  H59  1  0.15516933  0.06815866  0.26592960  1  0.117979  0.000835  0.125738  0.128444  0.000109  0.988907  0.001
H  H60  1  0.96053734  0.54510156  0.17021072  1  0.107539  0.000908  0.128618  0.131166  0.000335  0.986864  0.0
H  H61  1  0.53946531  0.95489895  0.67021148  1  0.107554  0.000908  0.128616  0.131183  0.000335  0.986821  0.0
H  H62  1  0.03947004  0.45489704  0.82978738  1  0.107514  0.000908  0.128641  0.131245  0.000335  0.986783  0.0
H  H63  1  0.46053676  0.04510258  0.32978776  1  0.107589  0.000908  0.128652  0.131241  0.000335  0.986779  0.0
H  H64  1  0.26962537  0.72189675  0.21588351  1  0.117047  2.7e-05  0.117889  0.113866  -0.000235  0.993192  0.0
H  H65  1  0.23037339  0.77810702  0.71588427  1  0.117087  2.7e-05  0.117896  0.11387  -0.000235  0.993225  0.0
H  H66  1  0.73037457  0.27810594  0.78411573  1  0.11707  2.7e-05  0.117888  0.113889  -0.000235  0.993187  0.0
H  H67  1  0.76962495  0.22189861  0.28411610  1  0.116997  2.7e-05  0.117931  0.113881  -0.000235  0.993183  0.0
H  H68  1  0.24693637  0.62826199  0.17282678  1  0.06759  0.000301  0.113476  0.096155  7.6e-05  0.971457  0.0
H  H69  1  0.25306823  0.87174143  0.67282594  1  0.067566  0.000301  0.113464  0.096105  7.6e-05  0.971485  0.0
H  H70  1  0.75306852  0.37174072  0.82717132  1  0.067748  0.000301  0.113478  0.096151  7.6e-05  0.971475  0.0
H  H71  1  0.74693611  0.12826362  0.32717159  1  0.067613  0.000301  0.113446  0.096082  7.6e-05  0.971519  0.0
H  H72  1  0.14242412  0.77770370  0.10229195  1  0.041032  3.3e-05  0.099518  0.096721  -1.9e-05  0.972921  0.0
H  H73  1  0.35757334  0.72229774  0.60229428  1  0.041102  3.3e-05  0.099475  0.09667  -1.8e-05  0.973023  0.0
H  H74  1  0.85757707  0.22229900  0.89770729  1  0.041077  3.3e-05  0.099487  0.096679  -1.9e-05  0.973055  0.0
H  H75  1  0.64242502  0.27770378  0.39770894  1  0.041243  3.3e-05  0.099503  0.096696  -1.9e-05  0.972957  0.0
H  H76  1  0.12362880  0.68592489  0.05615683  1  0.014151  1.1e-05  0.091985  0.083455  -2.5e-05  0.998887  0.0
H  H77  1  0.37636813  0.81407561  0.55615644  1  0.014158  1.1e-05  0.091963  0.083438  -2.5e-05  0.998849  0.0
H  H78  1  0.87637220  0.31407722  0.94384297  1  0.014118  1.1e-05  0.091987  0.083478  -2.5e-05  0.998862  0.0
H  H79  1  0.62363095  0.18592415  0.44384337  1  0.014146  1.1e-05  0.091968  0.083446  -2.5e-05  0.998907  0.0
H  H80  1  0.52969145  0.41415337  0.50705245  1  0.045709  5e-06  0.092483  0.091907  -5.8e-05  0.99826  0.0
H  H81  1  0.97030706  0.08584442  0.00705092  1  0.045721  5e-06  0.092472  0.091862  -5.8e-05  0.998381  0.0
H  H82  1  0.47030252  0.58584579  0.49295134  1  0.045681  5e-06  0.092476  0.091884  -5.8e-05  0.998313  0.0
H  H83  1  0.02969610  0.91415241  0.99295003  1  0.0456  5e-06  0.092486  0.09187  -5.8e-05  0.998231  0.0
H  H84  1  0.54433707  0.48218865  0.58260452  1  0.042749  3.5e-05  0.091443  0.092794  -6.2e-05  1.009117  0.0
H  H85  1  0.95566438  0.01780934  0.08260333  1  0.04279  3.5e-05  0.091372  0.092706  -6.2e-05  1.009141  0.0
H  H86  1  0.45566184  0.51781053  0.41739926  1  0.042742  3.5e-05  0.091391  0.092742  -6.2e-05  1.009146  0.0
H  H87  1  0.04434142  0.98218809  0.91739818  1  0.0426  3.5e-05  0.091369  0.092707  -6.2e-05  1.009193  0.0
C  C88  1  0.90184215  0.56052765  0.69771118  1  0.007828  0.002189  -0.027338  -0.023731  0.001093  4.040466  0.001
C  C89  1  0.59816078  0.93947330  0.19771022  1  0.008117  0.002189  -0.02734  -0.023796  0.001093  4.040523  0.001
C  C90  1  0.09815268  0.43947445  0.30228977  1  0.008208  0.002187  -0.027266  -0.023677  0.001092  4.040436  0.001
C  C91  1  0.40184554  0.06052589  0.80228902  1  0.00773  0.002188  -0.027284  -0.023727  0.001093  4.040444  0.001
C  C92  1  0.78439651  0.49267153  0.69276564  1  -0.06942  0.002106  -0.099075  -0.157652  0.001116  3.992288  0.001
C  C93  1  0.71560462  0.00733174  0.19276537  1  -0.069565  0.002106  -0.099071  -0.157709  0.001116  3.992322  0.001
C  C94  1  0.21559568  0.50732998  0.30723645  1  -0.069513  0.002106  -0.099058  -0.15774  0.001116  3.992356  0.001
C  C95  1  0.28440222  0.99266921  0.80723501  1  -0.069303  0.002107  -0.099079  -0.15775  0.001116  3.992353  0.001
C  C96  1  0.82033786  0.42878386  0.65002216  1  0.003705  0.00491  -0.022245  -0.016037  0.002484  4.007617  0.004
C  C97  1  0.67965940  0.07121963  0.15002208  1  0.003871  0.004908  -0.022246  -0.015975  0.002483  4.007886  0.004
C  C98  1  0.17965979  0.57121942  0.34997822  1  0.003886  0.00491  -0.022295  -0.01605  0.002484  4.007771  0.004
C  C99  1  0.32034232  0.92878072  0.84997716  1  0.003648  0.00491  -0.022252  -0.015984  0.002484  4.007751  0.004
C  C100  1  0.97225306  0.43258008  0.61089541  1  -0.013186  0.000318  -0.099707  -0.223087  -0.000228  3.949234  0.0
C  C101  1  0.52774987  0.06742245  0.11089405  1  -0.012826  0.000317  -0.09973  -0.223095  -0.000229  3.949342  0.0
C  C102  1  0.02774370  0.56742437  0.38910554  1  -0.013799  0.000317  -0.099699  -0.223046  -0.000229  3.949216  0.0
C  C103  1  0.47225662  0.93257732  0.88910519  1  -0.013994  0.000318  -0.099741  -0.223137  -0.000228  3.949357  0.0
C  C104  1  0.08987148  0.50035264  0.61632597  1  0.429721  0.000605  0.08046  0.253059  0.000216  4.098988  0.0
C  C105  1  0.41012833  0.99964814  0.11632277  1  0.429618  0.000604  0.080466  0.253036  0.000216  4.098835  0.0
C  C106  1  0.91012158  0.49965181  0.38367668  1  0.430769  0.000604  0.080435  0.252964  0.000216  4.098991  0.0
C  C107  1  0.58987658  0.00035046  0.88367533  1  0.430845  0.000604  0.080472  0.252989  0.000216  4.098966  0.0
C  C108  1  0.05473585  0.56379427  0.66045512  1  -0.017451  0.001453  -0.09612  -0.21186  0.000785  3.952272  0.001
C  C109  1  0.44527261  0.93620570  0.16045400  1  -0.01749  0.001453  -0.096098  -0.211751  0.000785  3.952282  0.001
C  C110  1  0.94526057  0.43620901  0.33954640  1  -0.017685  0.001453  -0.096169  -0.211914  0.000785  3.952218  0.001
C  C111  1  0.55473584  0.06379232  0.83954581  1  -0.017609  0.001454  -0.096154  -0.211876  0.000785  3.952236  0.001
C  C112  1  0.29651875  0.44445620  0.54429701  1  0.380887  0.000383  -0.068173  0.038089  0.000136  3.88313  0.0
C  C113  1  0.20348273  0.05554316  0.04429533  1  0.380926  0.000383  -0.068153  0.038097  0.000136  3.883108  0.0
C  C114  1  0.70347873  0.55554650  0.45570735  1  0.380812  0.000384  -0.068049  0.038349  0.000137  3.882844  0.0
C  C115  1  0.79652078  0.94445485  0.95570447  1  0.381431  0.000383  -0.068146  0.038061  0.000136  3.883065  0.0
C  C116  1  0.63925592  0.70665960  0.92867507  1  0.979362  0.005139  0.147939  0.099594  0.00294  3.901594  0.004
C  C117  1  0.86073486  0.79333776  0.42867688  1  0.979044  0.00514  0.147682  0.099394  0.002941  3.901473  0.004
C  C118  1  0.36074052  0.29333957  0.07132189  1  0.978973  0.005141  0.147778  0.09938  0.002941  3.90154  0.004
C  C119  1  0.13925876  0.20666023  0.57132350  1  0.979087  0.005141  0.147858  0.099518  0.002941  3.901553  0.004
C  C120  1  0.76923507  0.72903636  0.03898149  1  0.261394  0.003167  -0.001576  -0.110808  0.001586  3.915133  0.002
C  C121  1  0.73075739  0.77096131  0.53898286  1  0.261507  0.003167  -0.001688  -0.110897  0.001586  3.915266  0.002
C  C122  1  0.23076225  0.27096165  0.96101661  1  0.261342  0.003167  -0.001715  -0.110953  0.001586  3.915145  0.002
C  C123  1  0.26924100  0.22903611  0.46101751  1  0.261501  0.003167  -0.0016  -0.110851  0.001586  3.915085  0.002
C  C124  1  0.87845835  0.75157459  0.98066754  1  0.403344  0.003583  -0.001104  -0.039952  0.002242  4.012849  0.003
C  C125  1  0.62153369  0.74842192  0.48067046  1  0.403137  0.003583  -0.001051  -0.039806  0.002242  4.012881  0.003
C  C126  1  0.12154038  0.24842400  0.01932999  1  0.403264  0.003583  -0.001066  -0.039853  0.002242  4.012803  0.003
C  C127  1  0.37846189  0.25157432  0.51933220  1  0.403285  0.003583  -0.001134  -0.039956  0.002242  4.012964  0.003
C  C128  1  0.46112313  0.67581221  0.04402718  1  0.308782  0.000911  -0.045085  -0.053323  0.000587  3.892362  0.001
C  C129  1  0.03886813  0.82418600  0.54402806  1  0.309465  0.00091  -0.045141  -0.053343  0.000586  3.892573  0.001
C  C130  1  0.53887595  0.32418755  0.95597149  1  0.309062  0.00091  -0.045111  -0.053389  0.000587  3.892469  0.001
C  C131  1  0.96112673  0.17581199  0.45597175  1  0.309277  0.000911  -0.045119  -0.053325  0.000587  3.892339  0.001
C  C132  1  0.37593617  0.74668769  0.06437474  1  -0.052574  0.000413  -0.16572  -0.177012  0.000214  3.918355  0.0
C  C133  1  0.12406185  0.75331218  0.56437608  1  -0.0529  0.000413  -0.165737  -0.177028  0.000214  3.918375  0.0
C  C134  1  0.62406325  0.25331325  0.93562393  1  -0.052975  0.000413  -0.165707  -0.176993  0.000214  3.918347  0.0
C  C135  1  0.87593705  0.24668699  0.43562373  1  -0.05294  0.000413  -0.165727  -0.176942  0.000214  3.918259  0.0
C  C136  1  0.93891682  0.71859567  0.23698280  1  0.955132  0.001477  0.143868  0.087938  0.000357  3.908651  0.001
C  C137  1  0.56108310  0.78140272  0.73698279  1  0.954964  0.001477  0.14387  0.087888  0.000357  3.90863  0.001
C  C138  1  0.06108298  0.28140234  0.76301530  1  0.955058  0.001478  0.143915  0.088024  0.000358  3.908519  0.001
C  C139  1  0.43891774  0.21859880  0.26301588  1  0.955079  0.001476  0.143873  0.087932  0.000356  3.908525  0.001
C  C140  1  0.76926381  0.60865316  0.22635138  1  0.448115  0.00296  -0.00266  -0.038925  0.0019  4.008627  0.003
C  C141  1  0.73073854  0.89134529  0.72635212  1  0.44801  0.00296  -0.002645  -0.038916  0.0019  4.008599  0.003
C  C142  1  0.23074075  0.39134426  0.77364729  1  0.447977  0.00296  -0.002639  -0.03887  0.0019  4.008695  0.003
C  C143  1  0.26926178  0.10865448  0.27364655  1  0.447921  0.002959  -0.002625  -0.038854  0.0019  4.008563  0.003
C  C144  1  0.91885326  0.59664682  0.19477336  1  0.295465  0.002272  0.003723  -0.107932  0.001112  3.945646  0.001
C  C145  1  0.58115055  0.90335297  0.69477330  1  0.295502  0.002271  0.003683  -0.108  0.001112  3.94549  0.001
C  C146  1  0.08115412  0.40335178  0.80522588  1  0.295641  0.002271  0.003643  -0.108143  0.001112  3.94566  0.001
C  C147  1  0.41885169  0.09664914  0.30522537  1  0.295601  0.002272  0.00363  -0.108136  0.001112  3.945647  0.001
C  C148  1  0.19601894  0.68400915  0.17431690  1  0.275548  0.00094  -0.052369  -0.0761  0.000574  3.863328  0.001
C  C149  1  0.30398021  0.81599249  0.67431698  1  0.275577  0.00094  -0.052358  -0.076051  0.000574  3.863388  0.001
C  C150  1  0.80398172  0.31599179  0.82568234  1  0.275354  0.00094  -0.052348  -0.076099  0.000574  3.863357  0.001
C  C151  1  0.69601991  0.18401079  0.32568283  1  0.275543  0.00094  -0.052376  -0.075978  0.000574  3.863285  0.001
C  C152  1  0.20094413  0.72404752  0.09666529  1  -0.007591  0.000352  -0.160163  -0.158954  0.000183  3.938854  0.0
C  C153  1  0.29905313  0.77595336  0.59666671  1  -0.007736  0.000352  -0.160118  -0.158897  0.000183  3.939021  0.0
C  C154  1  0.79905794  0.27595401  0.90333338  1  -0.007553  0.000352  -0.160159  -0.158948  0.000183  3.938991  0.0
C  C155  1  0.70094489  0.22404699  0.40333423  1  -0.007773  0.000352  -0.160134  -0.158972  0.000183  3.938992  0.0
C  C156  1  0.69594597  0.35517568  0.64525631  1  1.559056  0.001878  0.200451  0.560358  0.001954  4.220356  0.0
C  C157  1  0.80404351  0.14482665  0.14525826  1  1.559107  0.001877  0.200523  0.560444  0.001955  4.220001  0.0
C  C158  1  0.30405346  0.64482526  0.35474350  1  1.558977  0.001878  0.200509  0.560383  0.001954  4.220205  0.0
C  C159  1  0.19595310  0.85517310  0.85474212  1  1.559117  0.001877  0.200523  0.560454  0.001955  4.21999  0.0
C  C160  1  0.86228911  0.62946513  0.74221558  1  1.530034  0.001108  0.192204  0.554534  0.000554  4.216638  -0.001
C  C161  1  0.63771453  0.87053324  0.24221446  1  1.530336  0.001107  0.192195  0.554587  0.000553  4.216521  -0.001
C  C162  1  0.13770483  0.37053815  0.25778821  1  1.529773  0.001106  0.192188  0.554514  0.000552  4.216391  -0.001
C  C163  1  0.36229285  0.12946536  0.75778364  1  1.530108  0.001107  0.192179  0.55451  0.000554  4.216542  -0.001
C  C164  1  0.48089844  0.46644916  0.52833883  1  -0.014219  0.000102  -0.170139  -0.176986  -2.1e-05  3.949507  0.0
C  C165  1  0.01910140  0.03354911  0.02833592  1  -0.043142  0.000104  -0.170088  -0.176868  -2.1e-05  3.949624  0.0
C  C166  1  0.51909817  0.53355060  0.47166610  1  -0.043033  0.000104  -0.170098  -0.176997  -2.1e-05  3.949555  0.0
C  C167  1  0.98090300  0.96644773  0.97166445  1  -0.013974  0.000101  -0.170041  -0.176863  -2.1e-05  3.949401  0.0
N  N168  1  0.79578766  0.73737263  0.91220170  1  -1.218897  0.063675  -0.36791  -0.309594  0.033292  3.694753  0.039
N  N169  1  0.70420288  0.76262423  0.41220407  1  -1.21843  0.063674  -0.367818  -0.30959  0.033292  3.694638  0.039
N  N170  1  0.20420737  0.26262595  0.08779640  1  -1.218462  0.063675  -0.36787  -0.309538  0.033292  3.69454  0.039
N  N171  1  0.29579039  0.23737259  0.58779802  1  -1.218474  0.063677  -0.367852  -0.309534  0.033294  3.694654  0.039
N  N172  1  0.61896477  0.70025007  0.00498624  1  -1.220249  0.005867  -0.242071  0.040646  0.002634  3.788896  0.004
N  N173  1  0.88102756  0.79974777  0.50498877  1  -1.220342  0.005867  -0.241904  0.040717  0.002634  3.789075  0.004
N  N174  1  0.38103503  0.29974794  0.99501243  1  -1.220206  0.005866  -0.241938  0.040802  0.002634  3.788898  0.004
N  N175  1  0.11896871  0.20025081  0.49501218  1  -1.220302  0.005868  -0.242042  0.040592  0.002635  3.788911  0.004
N  N176  1  0.78328559  0.68520562  0.25241394  1  -1.208012  0.064979  -0.366345  -0.318276  0.034022  3.677247  0.044
N  N177  1  0.71671528  0.81479152  0.75241393  1  -1.207909  0.064975  -0.366308  -0.318173  0.034021  3.677107  0.044
N  N178  1  0.21671633  0.31479122  0.74758416  1  -1.207974  0.064977  -0.3663  -0.318224  0.034023  3.677054  0.044
N  N179  1  0.28328380  0.18520824  0.24758417  1  -1.207976  0.064983  -0.366322  -0.318275  0.034025  3.6771  0.044
N  N180  1  0.02474822  0.66647108  0.20244133  1  -1.240144  0.005814  -0.240624  0.044595  0.002731  3.794265  0.005
N  N181  1  0.47525299  0.83352867  0.70244151  1  -1.239918  0.005815  -0.240613  0.044596  0.002731  3.794166  0.005
N  N182  1  0.97525546  0.33352752  0.79755734  1  -1.240047  0.005815  -0.240651  0.044579  0.002731  3.794227  0.005
N  N183  1  0.52474679  0.16647344  0.29755716  1  -1.240077  0.005814  -0.240634  0.044618  0.00273  3.794312  0.005
O  O184  1  0.98298771  0.68767470  0.75007748  1  -1.143382  0.103717  -0.335783  -0.556981  0.052957  2.338108  0.079
O  O185  1  0.51702125  0.81232481  0.25007141  1  -1.14387  0.103707  -0.33574  -0.556932  0.052952  2.33823  0.079
O  O186  1  0.01700996  0.31232447  0.24992745  1  -1.143938  0.103728  -0.335779  -0.556951  0.052961  2.338106  0.079
O  O187  1  0.48299179  0.18767204  0.74992101  1  -1.143453  0.103717  -0.335826  -0.556964  0.052955  2.33811  0.079
O  O188  1  0.71986571  0.63136999  0.76992206  1  -1.170068  0.041345  -0.330137  -0.565986  0.020289  2.114159  0.034
O  O189  1  0.78013767  0.86863117  0.26992452  1  -1.170116  0.041347  -0.330171  -0.566043  0.020291  2.114077  0.034
O  O190  1  0.28012507  0.36863093  0.23007831  1  -1.169872  0.041348  -0.330211  -0.566064  0.020291  2.114017  0.034
O  O191  1  0.21986722  0.13137154  0.73007983  1  -1.170023  0.041351  -0.330128  -0.566005  0.020292  2.11412  0.034
O  O192  1  0.24207282  0.51064522  0.58208515  1  -1.079669  0.000416  -0.185322  -0.204457  0.000189  2.537538  0.0
O  O193  1  0.25793358  0.98935341  0.08208127  1  -1.079828  0.000416  -0.185308  -0.20446  0.000189  2.537622  0.0
O  O194  1  0.75792943  0.48935690  0.41791921  1  -1.079813  0.000416  -0.185265  -0.204323  0.000189  2.537513  0.0
O  O195  1  0.74207469  0.01064403  0.91791684  1  -1.07973  0.000416  -0.185276  -0.204316  0.000189  2.537546  0.0
O  O196  1  0.55913607  0.35764517  0.68384515  1  -1.150256  0.101194  -0.337404  -0.566386  0.05166  2.374572  0.078
O  O197  1  0.94086344  0.14235698  0.18384614  1  -1.150242  0.101214  -0.337406  -0.566401  0.051669  2.37439  0.078
O  O198  1  0.44086339  0.64235166  0.31615636  1  -1.150171  0.101193  -0.337405  -0.566387  0.051661  2.374504  0.078
O  O199  1  0.05913969  0.85764397  0.81615481  1  -1.150144  0.101192  -0.337414  -0.56641  0.051661  2.374381  0.078
O  O200  1  0.72611932  0.29747579  0.60707295  1  -1.18894  0.015778  -0.331179  -0.559012  0.007612  2.098896  0.012
O  O201  1  0.77387441  0.20252909  0.10707741  1  -1.189043  0.015778  -0.331213  -0.559044  0.007612  2.098751  0.012
O  O202  1  0.27388557  0.70252691  0.39292515  1  -1.188922  0.015778  -0.331225  -0.55901  0.007613  2.098844  0.012
O  O203  1  0.22612484  0.79747126  0.89292297  1  -1.189029  0.015777  -0.331216  -0.559056  0.007612  2.098756  0.012
