# generated using pymatgen
data_Zn4H50C61N18
_symmetry_space_group_name_H-M   'P 1'
_cell_length_a   14.93636578
_cell_length_b   14.98299673
_cell_length_c   14.97868351
_cell_angle_alpha   68.63709962
_cell_angle_beta   74.01584387
_cell_angle_gamma   111.50937760
_symmetry_Int_Tables_number   1
_chemical_formula_structural   Zn4H50C61N18
_chemical_formula_sum   'Zn4 H50 C61 N18'
_cell_volume   2560.53624128
_cell_formula_units_Z   1
loop_
 _symmetry_equiv_pos_site_id
 _symmetry_equiv_pos_as_xyz
  1  'x, y, z'
loop_
 _atom_site_type_symbol
 _atom_site_label
 _atom_site_symmetry_multiplicity
 _atom_site_fract_x
 _atom_site_fract_y
 _atom_site_fract_z
 _atom_site_occupancy
 _atom_site_pbe_bader_charge
 _atom_site_pbe_bader_spin_density
 _atom_site_pbe_cm5_charge
 _atom_site_pbe_ddec_charge
 _atom_site_pbe_ddec_spin_density
 _atom_site_pbe_ddec_sum_bond_order
 _atom_site_pbe_magmom
Zn  Zn0  1  0.13170587  0.63233016  0.00065849  1  1.183691  0  0.745313  0.597985  0  2.505637  0
Zn  Zn1  1  0.85339954  0.35468991  0.00261526  1  1.18385  0  0.740442  0.603493  0  2.454436  0
Zn  Zn2  1  0.99015683  0.62839376  0.87190471  1  1.19152  0  0.74215  0.614887  0  2.425962  0
Zn  Zn3  1  0.99746783  0.36157059  0.13316529  1  1.186944  0  0.744169  0.604949  0  2.47769  0
H  H4  1  0.00179402  0.66092178  0.18623524  1  0.107817  0  0.112876  0.100899  0  1.032615  0
H  H5  1  0.02077776  0.56852556  0.39841759  1  0.025783  0  0.087125  0.093595  0  1.021038  0
H  H6  1  0.05596576  0.61485915  0.52295736  1  0.021646  0  0.088862  0.088082  0  0.991323  0
H  H7  1  0.64532712  0.32689980  0.16731053  1  0.090493  0  0.11529  0.101432  0  1.019294  0
H  H8  1  0.94525903  0.47747209  0.62220366  1  0.044417  0  0.091808  0.096098  0  0.979031  0
H  H9  1  0.03968505  0.31199285  0.50273830  1  -0.014234  0  0.086181  0.081541  0  0.998388  0
H  H10  1  0.98717004  0.31917998  0.66011306  1  -0.000317  0  0.08858  0.085805  0  0.983731  0
H  H11  1  0.21147646  0.66879516  0.35119160  1  0.034531  0  0.097136  0.076624  0  0.987739  0
H  H12  1  0.24687401  0.66374276  0.48800240  1  0.07433  0  0.11464  0.099663  0  0.949357  0
H  H13  1  0.17948194  0.38183256  0.46622773  1  0.040443  0  0.092159  0.092251  0  1.008577  0
H  H14  1  0.11836730  0.34742687  0.64374024  1  0.034284  0  0.092604  0.094686  0  0.984849  0
H  H15  1  0.97857319  0.31296417  0.82730441  1  0.061845  0  0.112844  0.09904  0  1.015161  0
H  H16  1  0.64823904  0.25049352  0.51428311  1  0.046639  0  0.095553  0.098072  0  1.004465  0
H  H17  1  0.82286618  0.67840748  0.78458240  1  0.054786  0  0.115226  0.101928  0  1.012511  0
H  H18  1  0.48119530  0.09791325  0.68127291  1  0.046827  0  0.092713  0.093053  0  1.010316  0
H  H19  1  0.30870305  0.96512785  0.45436006  1  0.041048  0  0.089259  0.091865  0  0.995456  0
H  H20  1  0.26042918  0.05840560  0.45266857  1  0.011274  0  0.08918  0.090781  0  0.993293  0
H  H21  1  0.47942902  0.12157129  0.28331749  1  0.025216  0  0.089949  0.092486  0  0.995423  0
H  H22  1  0.43181733  0.21551433  0.28076604  1  0.032908  0  0.091442  0.095561  0  0.989708  0
H  H23  1  0.34953075  0.34454800  0.87163530  1  0.031308  0  0.095136  0.096192  0  1.006454  0
H  H24  1  0.51292413  0.34055952  0.86484248  1  0.033171  0  0.092682  0.092743  0  1.010289  0
H  H25  1  0.66723223  0.71803098  0.86999601  1  0.039164  0  0.088716  0.091302  0  0.997989  0
H  H26  1  0.16106852  0.88881394  0.65243278  1  0.069178  0  0.115163  0.102329  0  1.013594  0
H  H27  1  0.72740660  0.78330363  0.72522926  1  0.034024  0  0.088438  0.090068  0  0.994659  0
H  H28  1  0.50045259  0.72233281  0.87611034  1  0.014833  0  0.088005  0.088372  0  1.003253  0
H  H29  1  0.03604886  0.31265107  0.35267646  1  0.054095  0  0.111941  0.098846  0  1.01397  0
H  H30  1  0.56009112  0.78713887  0.73147300  1  0.027542  0  0.091575  0.096298  0  0.989043  0
H  H31  1  0.70622757  0.70950909  0.15753432  1  0.068317  0  0.099151  0.099257  0  1.024511  0
H  H32  1  0.68982752  0.86172575  0.16938708  1  0.038348  0  0.098138  0.097863  0  1.006674  0
H  H33  1  0.09855324  0.06903205  0.09176900  1  0.057381  0  0.100426  0.110763  0  0.98511  0
H  H34  1  0.04436998  0.98416029  0.23590490  1  0.060003  0  0.100248  0.110567  0  0.981933  0
H  H35  1  0.11376078  0.92108929  0.06608921  1  0.094796  0  0.123159  0.112948  0  0.933396  0
H  H36  1  0.63528481  0.31561591  0.95211841  1  0.111267  0  0.113954  0.101479  0  1.005232  0
H  H37  1  0.95759311  0.10723151  0.22404430  1  0.06326  0  0.117022  0.10474  0  1.004774  0
H  H38  1  0.19841018  0.67473663  0.18110321  1  0.096994  0  0.114402  0.102561  0  1.012246  0
H  H39  1  0.82284495  0.31786986  0.35278022  1  0.093876  0  0.114771  0.101018  0  1.010332  0
H  H40  1  0.81734978  0.67638086  0.00812228  1  0.088151  0  0.116504  0.104248  0  1.004984  0
H  H41  1  0.34525497  0.68616106  0.81362113  1  0.071135  0  0.116503  0.103768  0  1.014071  0
H  H42  1  0.46716312  0.64268052  0.11388422  1  -0.008158  0  0.079342  0.101381  0  1.015137  0
H  H43  1  0.53814376  0.66821858  0.18789543  1  0.011946  0  0.080509  0.104256  0  1.029769  0
H  H44  1  0.49409260  0.54120980  0.18714977  1  0.01492  0  0.08542  0.111859  0  1.000531  0
H  H45  1  0.36752865  0.50308332  0.36344780  1  0.04207  0  0.08725  0.084334  0  0.997931  0
H  H46  1  0.29805116  0.48550981  0.28687976  1  0.013739  0  0.082927  0.072997  0  1.011573  0
H  H47  1  0.34235913  0.68497603  0.21421270  1  0.012268  0  0.081922  0.069306  0  1.018107  0
H  H48  1  0.76006396  0.08434763  0.05997044  1  0.074788  0  0.116503  0.105137  0  0.999111  0
H  H49  1  0.40054452  0.69658046  0.29930959  1  0.009676  0  0.086201  0.080294  0  0.987628  0
H  H50  1  0.34773065  0.89721715  0.82799205  1  0.078022  0  0.114947  0.102407  0  1.003732  0
H  H51  1  0.17205887  0.32228753  0.99460546  1  0.067081  0  0.111844  0.095057  0  1.0171  0
H  H52  1  0.15512095  0.67669070  0.64683940  1  0.080437  0  0.112245  0.09731  0  1.014561  0
H  H53  1  0.94665812  0.42222246  0.49271183  1  -0.00528  0  0.085148  0.083033  0  0.983929  0
C  C54  1  0.96493524  0.65843787  0.13330575  1  0.383821  0  0.005377  -0.052269  0  3.957625  0
C  C55  1  0.28740468  0.87836258  0.79979699  1  0.381202  0  0.001328  -0.066277  0  4.006357  0
C  C56  1  0.19845672  0.41071301  0.95763147  1  0.433623  0  0.007917  -0.045859  0  3.959867  0
C  C57  1  0.70401334  0.33203423  0.19772472  1  0.405241  0  0.007656  -0.046989  0  3.957841  0
C  C58  1  0.10520686  0.58714919  0.70665294  1  0.380141  0  0.000607  -0.058054  0  3.974877  0
C  C59  1  0.30307653  0.50614114  0.88064687  1  0.021349  0  -0.033097  -0.027237  0  4.07392  0
C  C60  1  0.08421456  0.49518886  0.69245217  1  0.017555  0  -0.036844  -0.052805  0  4.014155  0
C  C61  1  0.29321953  0.94256335  0.70025488  1  -0.013504  0  -0.038694  -0.032037  0  4.111663  0
C  C62  1  0.84962102  0.04668990  0.15386564  1  -0.000554  0  -0.03991  -0.038516  0  4.118975  0
C  C63  1  0.02137882  0.50189081  0.46090604  1  0.010408  0  -0.165176  -0.198516  0  3.887239  0
C  C64  1  0.02631596  0.52564857  0.55120911  1  -0.034166  0  -0.160508  -0.193708  0  3.885926  0
C  C65  1  0.68963835  0.30051468  0.30374423  1  -0.007998  0  -0.036057  -0.033556  0  4.083713  0
C  C66  1  0.10521870  0.38504130  0.49379771  1  -0.006117  0  -0.163179  -0.197087  0  3.874025  0
C  C67  1  0.22435949  0.59821010  0.38250362  1  0.011421  0  -0.073703  -0.04497  0  3.719548  0
C  C68  1  0.12118913  0.49379439  0.40817510  1  0.049939  0  -0.008221  0.105169  0  3.790639  0
C  C69  1  0.79064034  0.58873277  0.82972908  1  0.44234  0  0.003675  -0.058448  0  4.001545  0
C  C70  1  0.10314400  0.49448611  0.58884636  1  0.053917  0  -0.000515  0.114008  0  3.808416  0
C  C71  1  0.07511855  0.37833112  0.60447232  1  -0.012938  0  -0.161883  -0.191964  0  3.875327  0
C  C72  1  0.22180476  0.58226636  0.49325114  1  0.082137  0  -0.052365  -0.086008  0  3.843867  0
C  C73  1  0.48771906  0.17082749  0.40545896  1  -0.057752  0  -0.018126  0.022584  0  3.893961  0
C  C74  1  0.58596967  0.23144734  0.40340041  1  0.045918  0  -0.013152  0.034771  0  4.064274  0
C  C75  1  0.57677226  0.20411355  0.50789529  1  -0.032451  0  -0.099461  -0.142831  0  4.014356  0
C  C76  1  0.69168953  0.49924213  0.85611152  1  -0.050673  0  -0.03923  -0.032717  0  4.114847  0
C  C77  1  0.48094287  0.11642960  0.60377522  1  -0.050226  0  -0.102191  -0.144787  0  4.024022  0
C  C78  1  0.38538863  0.04791627  0.60418188  1  0.012194  0  -0.018243  0.027167  0  4.081504  0
C  C79  1  0.39228755  0.08328844  0.50108855  1  -0.010323  0  -0.020705  0.017563  0  3.906279  0
C  C80  1  0.33186096  0.04924104  0.44147442  1  -0.031617  0  -0.155874  -0.192622  0  3.904379  0
C  C81  1  0.07481678  0.40182546  0.29557548  1  0.387623  0  -0.004856  -0.079779  0  4.022936  0
C  C82  1  0.43999293  0.14833765  0.33306476  1  -0.017795  0  -0.155156  -0.194414  0  3.899027  0
C  C83  1  0.50258660  0.60460241  0.81949264  1  -0.046566  0  -0.01733  0.023335  0  3.895973  0
C  C84  1  0.40717643  0.51154095  0.84640815  1  0.023336  0  -0.010096  0.040306  0  4.054641  0
C  C85  1  0.41806340  0.41870086  0.85676647  1  -0.014424  0  -0.099085  -0.140805  0  4.014089  0
C  C86  1  0.51172456  0.41642623  0.85292109  1  -0.033544  0  -0.101702  -0.144902  0  4.024255  0
C  C87  1  0.12274565  0.49338748  0.30777692  1  0.002554  0  -0.029998  -0.028424  0  4.001924  0
C  C88  1  0.60310583  0.50684218  0.83815650  1  -0.001273  0  -0.018465  0.027356  0  4.080439  0
C  C89  1  0.59586044  0.60230792  0.81585179  1  -0.029733  0  -0.020298  0.016866  0  3.903842  0
C  C90  1  0.65209566  0.71754352  0.80223593  1  -0.063634  0  -0.156836  -0.19528  0  3.906186  0
C  C91  1  0.54640081  0.72010158  0.80628881  1  -0.001021  0  -0.155879  -0.194855  0  3.902279  0
C  C92  1  0.93636443  0.83789499  0.16832292  1  -0.01146  0  -0.013877  -0.021834  0  3.887432  0
C  C93  1  0.69558400  0.40391616  0.91399723  1  0.399508  0  -7.8e-05  -0.067127  0  4.006183  0
C  C94  1  0.86253557  0.75997669  0.15541888  1  0.048544  0  -0.00644  0.053324  0  4.060153  0
C  C95  1  0.77073579  0.77018507  0.16166649  1  -0.053555  0  -0.092818  -0.1356  0  3.98573  0
C  C96  1  0.76152927  0.85741164  0.16832167  1  -0.012569  0  -0.091484  -0.131348  0  3.996039  0
C  C97  1  0.84312560  0.94233065  0.16974755  1  0.036529  0  -0.012088  0.037962  0  4.067719  0
C  C98  1  0.28720755  0.59637898  0.86640173  1  0.406498  0  0.008293  -0.046711  0  3.951044  0
C  C99  1  0.92751376  0.92456283  0.17520906  1  -0.078208  0  -0.017822  0.0228  0  3.929166  0
C  C100  1  0.04064250  0.98410326  0.16367307  1  -0.032933  0  -0.139566  -0.218601  0  3.849554  0
C  C101  1  0.05448444  0.88897338  0.14944964  1  0.095613  0  -0.046967  -0.040694  0  3.916252  0
C  C102  1  0.15844220  0.58618336  0.20754143  1  0.378103  0  0.003093  -0.059216  0  3.990357  0
C  C103  1  0.79478683  0.32833744  0.29211946  1  0.39227  0  0.008625  -0.045032  0  3.951859  0
C  C104  1  0.86916115  0.66415757  0.04386333  1  0.411654  0  0.009349  -0.047931  0  3.95667  0
C  C105  1  0.88988167  0.69067477  0.11999089  1  -0.003153  0  -0.038003  -0.040198  0  4.092305  0
C  C106  1  0.33568029  0.63613062  0.29385034  1  -0.008132  0  -0.165538  -0.174235  0  3.924594  0
C  C107  1  0.36316709  0.54809587  0.28973558  1  -0.014551  0  -0.172486  -0.102676  0  3.951124  0
C  C108  1  0.47150833  0.60277676  0.18926974  1  -0.040838  0  -0.243995  -0.343708  0  3.972152  0
C  C109  1  0.01536088  0.40195663  0.79855046  1  0.394301  0  -0.000121  -0.060499  0  3.986994  0
C  C110  1  0.29827712  0.55107238  0.51623391  1  0.828069  0  0.174818  0.266255  0  3.979351  0
C  C111  1  0.08242651  0.82630773  0.22474748  1  0.825624  0  0.182051  0.259231  0  3.992555  0
C  C112  1  0.19262292  0.87323047  0.71001540  1  0.4239  0  0.003067  -0.06073  0  3.998254  0
C  C113  1  0.91276452  0.11963042  0.17931318  1  0.437417  0  0.004742  -0.060931  0  4.009972  0
C  C114  1  0.81071107  0.10726142  0.09711532  1  0.419198  0  0.004112  -0.06179  0  3.996481  0
N  N115  1  0.98778289  0.61828564  0.06860319  1  -0.799974  0  -0.283566  -0.179816  0  3.631357  0
N  N116  1  0.84800607  0.54982121  0.86854364  1  -0.77772  0  -0.273494  -0.175732  0  3.564974  0
N  N117  1  0.08205580  0.43745676  0.19555696  1  -0.778022  0  -0.278548  -0.180638  0  3.558264  0
N  N118  1  0.78898028  0.43462170  0.92131265  1  -0.802865  0  -0.267992  -0.175421  0  3.535635  0
N  N119  1  0.13465530  0.55239699  0.14079254  1  -0.799243  0  -0.278827  -0.177945  0  3.572124  0
N  N120  1  0.86416266  0.37010782  0.18822637  1  -0.774018  0  -0.281222  -0.17736  0  3.627286  0
N  N121  1  0.92953783  0.62225833  0.01334977  1  -0.759906  0  -0.276265  -0.171838  0  3.614441  0
N  N122  1  0.18229394  0.55678561  0.93170413  1  -0.82756  0  -0.286581  -0.185051  0  3.639454  0
N  N123  1  0.35857557  0.52542024  0.53575246  1  -1.157006  0  -0.33747  -0.402441  0  2.699226  0
N  N124  1  0.10708831  0.77839823  0.28465326  1  -1.178511  0  -0.317396  -0.395786  0  2.803427  0
N  N125  1  0.99552349  0.43635213  0.86972341  1  -0.777421  0  -0.288779  -0.184803  0  3.634303  0
N  N126  1  0.13256188  0.77643474  0.80691224  1  -0.818032  0  -0.270816  -0.176881  0  3.549161  0
N  N127  1  0.91140247  0.21495464  0.14108647  1  -0.815795  0  -0.271636  -0.1681  0  3.560035  0
N  N128  1  0.84832640  0.20791753  0.08936435  1  -0.770697  0  -0.263848  -0.16804  0  3.517157  0
N  N129  1  0.19163077  0.77962454  0.86279344  1  -0.760852  0  -0.273443  -0.172534  0  3.560085  0
N  N130  1  0.12779864  0.44269504  0.98798274  1  -0.747355  0  -0.283192  -0.18104  0  3.630096  0
N  N131  1  0.05098417  0.55034153  0.81318154  1  -0.778728  0  -0.281225  -0.178397  0  3.615287  0
N  N132  1  0.80845245  0.37250788  0.13018975  1  -0.810625  0  -0.287985  -0.189803  0  3.647201  0
