# generated using pymatgen
data_YH7C11N3O8
_symmetry_space_group_name_H-M   'P 1'
_cell_length_a   6.92752112
_cell_length_b   8.69920446
_cell_length_c   12.37514235
_cell_angle_alpha   97.68310918
_cell_angle_beta   99.76328416
_cell_angle_gamma   107.55261473
_symmetry_Int_Tables_number   1
_chemical_formula_structural   YH7C11N3O8
_chemical_formula_sum   'Y2 H14 C22 N6 O16'
_cell_volume   687.06171143
_cell_formula_units_Z   2
loop_
 _symmetry_equiv_pos_site_id
 _symmetry_equiv_pos_as_xyz
  1  'x, y, z'
loop_
 _atom_site_type_symbol
 _atom_site_label
 _atom_site_symmetry_multiplicity
 _atom_site_fract_x
 _atom_site_fract_y
 _atom_site_fract_z
 _atom_site_occupancy
 _atom_site_pbe_bader_charge
 _atom_site_pbe_bader_spin_density
 _atom_site_pbe_cm5_charge
 _atom_site_pbe_ddec_charge
 _atom_site_pbe_ddec_spin_density
 _atom_site_pbe_ddec_sum_bond_order
 _atom_site_pbe_magmom
Y  Y0  1  0.88452295  0.23804777  0.94790184  1  2.292227  0  1.264972  1.795771  0  2.367691  0
Y  Y1  1  0.11547318  0.76195068  0.05209957  1  2.292237  0  1.264924  1.795724  0  2.367792  0
H  H2  1  0.47619167  0.32553155  0.95228342  1  0.647941  0  0.305427  0.393006  0  0.940398  0
H  H3  1  0.52380153  0.67446690  0.04771610  1  0.647976  0  0.305415  0.392999  0  0.940395  0
H  H4  1  0.67506809  0.47497570  0.02442516  1  0.646858  0  0.300047  0.367807  0  0.987813  0
H  H5  1  0.32492510  0.52502274  0.97557354  1  0.646848  0  0.300025  0.367761  0  0.987863  0
H  H6  1  0.69704824  0.40078464  0.18539244  1  0.202315  0  0.145868  0.143449  0  0.993135  0
H  H7  1  0.30294796  0.59921749  0.81460528  1  0.202354  0  0.14586  0.143425  0  0.993228  0
H  H8  1  0.69302819  0.38043893  0.38365269  1  0.112506  0  0.119979  0.134114  0  0.966815  0
H  H9  1  0.30697482  0.61956198  0.61634555  1  0.112459  0  0.119966  0.134116  0  0.966824  0
H  H10  1  0.79121013  0.90337898  0.45484515  1  0.13939  0  0.12366  0.138082  0  0.979362  0
H  H11  1  0.20878651  0.09662069  0.54515480  1  0.139379  0  0.123659  0.138087  0  0.979356  0
H  H12  1  0.79143152  0.90196172  0.24961912  1  0.198921  0  0.148869  0.148564  0  0.975208  0
H  H13  1  0.20855882  0.09804041  0.75037966  1  0.198808  0  0.148873  0.148514  0  0.975271  0
H  H14  1  0.76066037  0.40401202  0.57860021  1  0.501197  0  0.338897  0.303036  0  0.897584  0
H  H15  1  0.23934015  0.59598643  0.42139838  1  0.501215  0  0.338905  0.303012  0  0.89761  0
C  C16  1  0.71864385  0.50715192  0.24940866  1  0.338578  0  0.052815  -0.018948  0  3.822219  0
C  C17  1  0.28135234  0.49285021  0.75058906  1  0.33852  0  0.052878  -0.01886  0  3.822262  0
C  C18  1  0.71891269  0.50033248  0.36033980  1  0.016196  0  -0.080579  -0.152425  0  3.981335  0
C  C19  1  0.28109083  0.49966966  0.63965860  1  0.016201  0  -0.080563  -0.152444  0  3.981296  0
C  C20  1  0.75130045  0.64400459  0.43824493  1  -0.017282  0  0.003648  0.030267  0  4.050861  0
C  C21  1  0.24870351  0.35599509  0.56175409  1  -0.017286  0  0.003605  0.030293  0  4.050837  0
C  C22  1  0.77195601  0.79059557  0.39771159  1  0.049356  0  -0.062883  -0.12232  0  3.91918  0
C  C23  1  0.22804062  0.20940410  0.60228674  1  0.049338  0  -0.062892  -0.122369  0  3.919102  0
C  C24  1  0.77220380  0.79353026  0.28676733  1  0.38715  0  0.072902  0.021436  0  3.786304  0
C  C25  1  0.22779043  0.20647064  0.71323251  1  0.387319  0  0.072874  0.021481  0  3.786252  0
C  C26  1  0.77177724  0.64985832  0.55748101  1  0.982485  0  0.204268  0.255449  0  4.07634  0
C  C27  1  0.22822966  0.35014137  0.44251909  1  0.982448  0  0.204298  0.255413  0  4.076474  0
C  C28  1  0.82218535  0.58090400  0.72395168  1  0.360826  0  0.096321  0.015253  0  3.913339  0
C  C29  1  0.17781370  0.41909445  0.27604677  1  0.360833  0  0.096303  0.015196  0  3.913381  0
C  C30  1  0.83442247  0.74655192  0.73555009  1  0.499136  0  0.099889  0.031576  0  3.932707  0
C  C31  1  0.16557951  0.25344653  0.26444944  1  0.499114  0  0.099914  0.031576  0  3.932746  0
C  C32  1  0.86819176  0.86882987  0.84016075  1  1.649672  0  0.236407  0.626947  0  4.187089  0
C  C33  1  0.13180737  0.13117227  0.15983805  1  1.649653  0  0.236393  0.626919  0  4.187057  0
C  C34  1  0.44423377  0.97911707  0.93723447  1  1.597816  0  0.214745  0.491815  0  4.210208  0
C  C35  1  0.55578946  0.02089370  0.06276499  1  1.614521  0  0.214657  0.491652  0  4.210135  0
C  C36  1  0.85715714  0.46986561  0.79958956  1  1.610356  0  0.20708  0.550329  0  4.288148  0
C  C37  1  0.14283804  0.53013407  0.20041026  1  1.610488  0  0.207083  0.550303  0  4.288266  0
N  N38  1  0.75181893  0.65359784  0.21526722  1  -0.665993  0  -0.11048  0.316897  0  3.888546  0
N  N39  1  0.24817580  0.34640429  0.78473117  1  -0.665896  0  -0.110457  0.316886  0  3.888395  0
N  N40  1  0.77978231  0.52285940  0.61080401  1  -1.265047  0  -0.372387  -0.288254  0  3.6765  0
N  N41  1  0.22022458  0.47714029  0.38919529  1  -1.264993  0  -0.372369  -0.288161  0  3.676501  0
N  N42  1  0.80300305  0.78601571  0.63214199  1  -1.128282  0  -0.321507  -0.347324  0  3.20579  0
N  N43  1  0.19700289  0.21398521  0.36785815  1  -1.128307  0  -0.321557  -0.347325  0  3.205901  0
O  O44  1  0.79025235  0.31615242  0.76099218  1  -1.173472  0  -0.335766  -0.568478  0  2.137859  0
O  O45  1  0.20974292  0.68385094  0.23901203  1  -1.173462  0  -0.335776  -0.568492  0  2.137806  0
O  O46  1  0.96105510  0.52874962  0.90019090  1  -1.219243  0  -0.369241  -0.625792  0  2.430636  0
O  O47  1  0.03894111  0.47125251  0.09981167  1  -1.219332  0  -0.369236  -0.62573  0  2.430804  0
O  O48  1  0.85645525  0.81651127  0.93093725  1  -1.207654  0  -0.371973  -0.6245  0  2.267497  0
O  O49  1  0.14353795  0.18348717  0.06906307  1  -1.207658  0  -0.371975  -0.624518  0  2.267595  0
O  O50  1  0.90161548  0.01669773  0.82976831  1  -1.187538  0  -0.358408  -0.589751  0  2.320789  0
O  O51  1  0.09838600  0.98329949  0.17023186  1  -1.187572  0  -0.358415  -0.589726  0  2.320666  0
O  O52  1  0.76353770  0.66264344  0.10947132  1  -0.684773  0  -0.22476  -0.498996  0  2.108045  0
O  O53  1  0.23645703  0.33735869  0.89052625  1  -0.684828  0  -0.224774  -0.498991  0  2.107945  0
O  O54  1  0.26155168  0.87637943  0.91072525  1  -1.204289  0  -0.356021  -0.574203  0  2.336213  0
O  O55  1  0.73844695  0.12362148  0.08927743  1  -1.204423  0  -0.356027  -0.57413  0  2.336577  0
O  O56  1  0.54321914  0.05048010  0.87111681  1  -1.182181  0  -0.344924  -0.538286  0  2.27303  0
O  O57  1  0.45677787  0.94951343  0.12888502  1  -1.181941  0  -0.344948  -0.538341  0  2.272549  0
O  O58  1  0.62799506  0.36049145  0.98123889  1  -1.305559  0  -0.626762  -0.814414  0  2.187024  0
O  O59  1  0.37199865  0.63950822  0.01876078  1  -1.305626  0  -0.626744  -0.814378  0  2.187041  0
