# generated using pymatgen
data_Ag2H22C25N4O5
_symmetry_space_group_name_H-M   'P 1'
_cell_length_a   9.23844173
_cell_length_b   10.15511222
_cell_length_c   25.73980112
_cell_angle_alpha   100.12677667
_cell_angle_beta   89.99984528
_cell_angle_gamma   90.00025826
_symmetry_Int_Tables_number   1
_chemical_formula_structural   Ag2H22C25N4O5
_chemical_formula_sum   'Ag8 H88 C100 N16 O20'
_cell_volume   2377.22100483
_cell_formula_units_Z   4
loop_
 _symmetry_equiv_pos_site_id
 _symmetry_equiv_pos_as_xyz
  1  'x, y, z'
loop_
 _atom_site_type_symbol
 _atom_site_label
 _atom_site_symmetry_multiplicity
 _atom_site_fract_x
 _atom_site_fract_y
 _atom_site_fract_z
 _atom_site_occupancy
 _atom_site_pbe_bader_charge
 _atom_site_pbe_bader_spin_density
 _atom_site_pbe_cm5_charge
 _atom_site_pbe_ddec_charge
 _atom_site_pbe_ddec_spin_density
 _atom_site_pbe_ddec_sum_bond_order
 _atom_site_pbe_magmom
Ag  Ag0  1  0.85458265  0.87034634  0.99560433  1  0.613188  0  0.449892  0.371712  0  2.017889  0
Ag  Ag1  1  0.35456994  0.62964851  0.50439391  1  0.612989  0  0.449867  0.371713  0  2.017711  0
Ag  Ag2  1  0.14542480  0.12964476  0.00439704  1  0.613209  0  0.449871  0.371695  0  2.017852  0
Ag  Ag3  1  0.64541477  0.37034616  0.49560261  1  0.613172  0  0.449891  0.371731  0  2.017941  0
Ag  Ag4  1  0.86836285  0.59540620  0.01604977  1  0.510424  0  0.446421  0.257197  0  2.093818  0
Ag  Ag5  1  0.36834950  0.90459787  0.48394681  1  0.510762  0  0.446368  0.257105  0  2.093836  0
Ag  Ag6  1  0.13164027  0.40458497  0.98395238  1  0.51068  0  0.446361  0.257096  0  2.093826  0
Ag  Ag7  1  0.63163306  0.09540773  0.51604954  1  0.510484  0  0.446409  0.257232  0  2.093853  0
H  H8  1  0.92234046  0.04562086  0.12232875  1  0.121733  0  0.113479  0.094177  0  1.005292  0
H  H9  1  0.42232411  0.45437082  0.37766898  1  0.121903  0  0.113478  0.094268  0  1.005134  0
H  H10  1  0.07767781  0.95435698  0.87766876  1  0.121956  0  0.113505  0.094294  0  1.005202  0
H  H11  1  0.57766494  0.54563115  0.62233145  1  0.121822  0  0.113471  0.094212  0  1.005238  0
H  H12  1  0.78265302  0.12706704  0.20560024  1  0.146694  0  0.114449  0.128501  0  0.995573  0
H  H13  1  0.28262460  0.37292726  0.29439861  1  0.146938  0  0.114359  0.128413  0  0.995791  0
H  H14  1  0.21736525  0.87292680  0.79439817  1  0.146872  0  0.114404  0.128481  0  0.995692  0
H  H15  1  0.71736769  0.62708233  0.70559796  1  0.146917  0  0.114394  0.128472  0  0.995799  0
H  H16  1  0.40357027  0.94446651  0.12876672  1  0.073731  0  0.107123  0.115208  0  1.029986  0
H  H17  1  0.90355005  0.55552831  0.37123949  1  0.073899  0  0.107089  0.115074  0  1.030065  0
H  H18  1  0.59643718  0.05555552  0.87123561  1  0.073915  0  0.107097  0.115208  0  1.029929  0
H  H19  1  0.09643900  0.44446653  0.62875897  1  0.074071  0  0.107166  0.115218  0  1.029995  0
H  H20  1  0.31270904  0.87911702  0.05868459  1  0.08229  0  0.112678  0.125416  0  1.010681  0
H  H21  1  0.81269341  0.62087521  0.44132213  1  0.082293  0  0.112708  0.125481  0  1.010697  0
H  H22  1  0.68729625  0.12088026  0.94131907  1  0.082344  0  0.112693  0.125439  0  1.010697  0
H  H23  1  0.18729131  0.37911366  0.55867639  1  0.082511  0  0.112705  0.12538  0  1.010844  0
H  H24  1  0.37245817  0.71368404  0.89483215  1  0.108634  0  0.113878  0.126175  0  0.986878  0
H  H25  1  0.87244937  0.78631821  0.60517197  1  0.108297  0  0.113882  0.126144  0  0.986935  0
H  H26  1  0.62754495  0.28630920  0.10517089  1  0.108341  0  0.113925  0.126191  0  0.986951  0
H  H27  1  0.12752669  0.21367462  0.39482639  1  0.108282  0  0.113889  0.126186  0  0.986893  0
H  H28  1  0.63618476  0.77206280  0.90644596  1  0.130631  0  0.114175  0.089816  0  1.025184  0
H  H29  1  0.13617556  0.72794514  0.59355583  1  0.129979  0  0.114163  0.089802  0  1.025062  0
H  H30  1  0.36381944  0.22793634  0.09355625  1  0.130226  0  0.114161  0.089768  0  1.025186  0
H  H31  1  0.86379941  0.27205176  0.40644353  1  0.13045  0  0.114147  0.089782  0  1.0251  0
H  H32  1  0.05977829  0.82023495  0.07473129  1  0.131194  0  0.110241  0.085317  0  1.053643  0
H  H33  1  0.55974880  0.67975649  0.42526651  1  0.131347  0  0.110268  0.085239  0  1.053762  0
H  H34  1  0.94026921  0.17974872  0.92526461  1  0.131165  0  0.110254  0.085224  0  1.053755  0
H  H35  1  0.44022509  0.32024024  0.57473090  1  0.13117  0  0.110226  0.085273  0  1.053701  0
H  H36  1  0.17737642  0.87800376  0.16336902  1  0.087022  0  0.10992  0.127045  0  1.019875  0
H  H37  1  0.67735700  0.62198731  0.33662969  1  0.087075  0  0.109879  0.126983  0  1.019894  0
H  H38  1  0.82266242  0.12198501  0.83662833  1  0.087326  0  0.109884  0.126951  0  1.020007  0
H  H39  1  0.32262771  0.37800670  0.66337067  1  0.087001  0  0.10989  0.127035  0  1.019874  0
H  H40  1  0.92140799  0.56434609  0.21223870  1  0.151938  0  0.110368  0.128245  0  1.050131  0
H  H41  1  0.42141748  0.93565378  0.28775771  1  0.152055  0  0.110359  0.128225  0  1.050144  0
H  H42  1  0.07859513  0.43567091  0.78776295  1  0.152553  0  0.110326  0.128161  0  1.050103  0
H  H43  1  0.57860187  0.06435678  0.71223853  1  0.15242  0  0.110336  0.128156  0  1.050056  0
H  H44  1  0.81855704  0.51825333  0.12219547  1  0.115872  0  0.115475  0.093867  0  1.005645  0
H  H45  1  0.31854759  0.98174676  0.37779887  1  0.11561  0  0.115456  0.09383  0  1.005628  0
H  H46  1  0.18146881  0.48175453  0.87780412  1  0.115346  0  0.115511  0.093948  0  1.005524  0
H  H47  1  0.68145444  0.01826570  0.62219631  1  0.115636  0  0.115457  0.093854  0  1.005711  0
H  H48  1  0.23170442  0.81724334  0.24461004  1  0.05285  0  0.096037  0.100342  0  1.018079  0
H  H49  1  0.73170534  0.68275172  0.25539130  1  0.052746  0  0.09604  0.100303  0  1.018104  0
H  H50  1  0.76830086  0.18278169  0.75539246  1  0.053023  0  0.096001  0.1003  0  1.0181  0
H  H51  1  0.26829886  0.31723856  0.74461197  1  0.052982  0  0.096023  0.100366  0  1.017961  0
H  H52  1  0.19933615  0.64703600  0.24857372  1  0.071634  0  0.099378  0.10414  0  0.993346  0
H  H53  1  0.69933649  0.85296005  0.25142608  1  0.071657  0  0.099368  0.104114  0  0.99339  0
H  H54  1  0.80068320  0.35299110  0.75142968  1  0.071587  0  0.099395  0.104165  0  0.993432  0
H  H55  1  0.30067528  0.14702896  0.74857401  1  0.071682  0  0.099382  0.104153  0  0.993405  0
H  H56  1  0.96294427  0.71444927  0.29544354  1  0.05334  0  0.09064  0.086962  0  1.014575  0
H  H57  1  0.46294716  0.78554479  0.20455649  1  0.053367  0  0.090655  0.087016  0  1.014605  0
H  H58  1  0.03706209  0.28556036  0.70455343  1  0.05323  0  0.090629  0.086899  0  1.014817  0
H  H59  1  0.53706462  0.21445325  0.79544449  1  0.053303  0  0.090629  0.08695  0  1.014567  0
H  H60  1  0.12216502  0.77043451  0.32963235  1  0.012579  0  0.085305  0.074661  0  1.022956  0
H  H61  1  0.62217100  0.72955090  0.17036752  1  0.012947  0  0.085259  0.074624  0  1.022931  0
H  H62  1  0.87783485  0.22957549  0.67036891  1  0.01298  0  0.085303  0.074645  0  1.022963  0
H  H63  1  0.37783970  0.27043317  0.82963307  1  0.012618  0  0.0853  0.074683  0  1.022933  0
H  H64  1  0.59398984  0.11569446  0.39893270  1  0.158688  0  0.119581  0.103715  0  1.014504  0
H  H65  1  0.09400121  0.38429000  0.10107040  1  0.158739  0  0.11955  0.103705  0  1.014656  0
H  H66  1  0.40599379  0.88431793  0.60106170  1  0.158575  0  0.119609  0.103755  0  1.014578  0
H  H67  1  0.90600840  0.61568842  0.89893375  1  0.158706  0  0.119573  0.103697  0  1.014587  0
H  H68  1  0.73569622  0.06204799  0.31584098  1  0.161757  0  0.111385  0.130969  0  1.030866  0
H  H69  1  0.23569977  0.43793876  0.18416049  1  0.161594  0  0.111412  0.131085  0  1.030858  0
H  H70  1  0.26430689  0.93796664  0.68415627  1  0.162101  0  0.111413  0.131028  0  1.030796  0
H  H71  1  0.76430552  0.56204551  0.81584244  1  0.161808  0  0.111413  0.131028  0  1.030825  0
H  H72  1  0.05438612  0.87643248  0.40348560  1  0.074946  0  0.103168  0.109286  0  1.024213  0
H  H73  1  0.55439565  0.62355543  0.09651704  1  0.074796  0  0.103144  0.10928  0  1.024111  0
H  H74  1  0.94558669  0.12355777  0.59651727  1  0.07509  0  0.103165  0.109269  0  1.024147  0
H  H75  1  0.44559664  0.37644668  0.90348495  1  0.075136  0  0.10318  0.109294  0  1.024179  0
H  H76  1  0.89668993  0.93374023  0.48175819  1  0.108179  0  0.107263  0.077083  0  1.031689  0
H  H77  1  0.39669323  0.56624634  0.01824444  1  0.108239  0  0.10725  0.077101  0  1.031775  0
H  H78  1  0.10326773  0.06624964  0.51824038  1  0.107867  0  0.107196  0.077046  0  1.03169  0
H  H79  1  0.60329149  0.43374993  0.98175916  1  0.108003  0  0.107232  0.077109  0  1.031684  0
H  H80  1  0.09338405  0.99640771  0.30482759  1  0.050835  0  0.104382  0.116888  0  0.955871  0
H  H81  1  0.59338273  0.50358504  0.19517538  1  0.050808  0  0.104346  0.116794  0  0.955881  0
H  H82  1  0.90660716  0.00360556  0.69517697  1  0.050215  0  0.104426  0.116837  0  0.955887  0
H  H83  1  0.40660848  0.49640624  0.80482794  1  0.050774  0  0.104366  0.116833  0  0.955888  0
H  H84  1  0.93661940  0.94404533  0.26840769  1  0.022483  0  0.098568  0.102089  0  0.983804  0
H  H85  1  0.43662137  0.55595012  0.23159589  1  0.022372  0  0.098542  0.102039  0  0.983704  0
H  H86  1  0.06338372  0.05596567  0.73159363  1  0.022452  0  0.098592  0.102114  0  0.98378  0
H  H87  1  0.56337958  0.44405112  0.76840760  1  0.022404  0  0.098586  0.102091  0  0.983734  0
H  H88  1  0.76754331  0.88683581  0.81949285  1  0.629314  0  0.266634  0.367766  0  0.97954  0
H  H89  1  0.26755612  0.61318129  0.68050575  1  0.629546  0  0.266682  0.367849  0  0.9795  0
H  H90  1  0.23247821  0.11317329  0.18050954  1  0.629475  0  0.266571  0.367716  0  0.979618  0
H  H91  1  0.73245132  0.38683887  0.31949803  1  0.629473  0  0.266677  0.367823  0  0.979481  0
H  H92  1  0.88574536  0.77793119  0.81677040  1  0.623392  0  0.2772  0.387191  0  0.942675  0
H  H93  1  0.38575866  0.72208627  0.68322604  1  0.623408  0  0.277128  0.38718  0  0.942719  0
H  H94  1  0.11426209  0.22206378  0.18322963  1  0.623464  0  0.277166  0.387215  0  0.942651  0
H  H95  1  0.61425745  0.27793126  0.31678187  1  0.623516  0  0.277151  0.387171  0  0.942677  0
C  C96  1  0.80656425  0.02456775  0.12466304  1  0.499955  0  0.047582  0.100317  0  3.944032  0
C  C97  1  0.30653962  0.47542626  0.37533349  1  0.499787  0  0.047551  0.100197  0  3.944215  0
C  C98  1  0.19345510  0.97542002  0.87533425  1  0.500033  0  0.047517  0.100157  0  3.944156  0
C  C99  1  0.69344618  0.52457151  0.62466436  1  0.499399  0  0.047649  0.100376  0  3.944016  0
C  C100  1  0.72976749  0.06903464  0.17115297  1  -0.103798  0  -0.075014  -0.137608  0  3.918478  0
C  C101  1  0.22973580  0.43096486  0.32884611  1  -0.103664  0  -0.074744  -0.13743  0  3.919021  0
C  C102  1  0.27025403  0.93096420  0.82884573  1  -0.104168  0  -0.074795  -0.137475  0  3.918783  0
C  C103  1  0.77025108  0.56904467  0.67114969  1  -0.103678  0  -0.074973  -0.137717  0  3.918949  0
C  C104  1  0.58258007  0.03787832  0.17289692  1  0.001853  0  -0.000998  0.016964  0  3.9226  0
C  C105  1  0.08255431  0.46211863  0.32710065  1  -0.002375  0  -0.001118  0.017025  0  3.922578  0
C  C106  1  0.41743604  0.96212641  0.82710094  1  -0.001989  0  -0.001124  0.016855  0  3.922448  0
C  C107  1  0.91743365  0.53788700  0.67289610  1  0.001544  0  -0.000991  0.01711  0  3.922526  0
C  C108  1  0.51836039  0.96753509  0.12717986  1  -0.05757  0  -0.076709  -0.175714  0  3.931627  0
C  C109  1  0.01833780  0.53246188  0.37282247  1  -0.057441  0  -0.076661  -0.175551  0  3.931535  0
C  C110  1  0.48165031  0.03247385  0.87282057  1  -0.057467  0  -0.076754  -0.175767  0  3.931364  0
C  C111  1  0.98164908  0.46753802  0.62717706  1  -0.05804  0  -0.076804  -0.175841  0  3.931667  0
C  C112  1  0.60111383  0.93028698  0.08132279  1  0.530627  0  0.106561  0.149093  0  4.013657  0
C  C113  1  0.10109062  0.56971458  0.41867873  1  0.53069  0  0.106655  0.149244  0  4.013817  0
C  C114  1  0.39889578  0.06971609  0.91867886  1  0.530612  0  0.106736  0.149321  0  4.01366  0
C  C115  1  0.89889193  0.43028333  0.58132068  1  0.530592  0  0.106598  0.149161  0  4.013469  0
C  C116  1  0.53399989  0.86786002  0.03014437  1  0.447336  0  0.114316  0.168602  0  3.95642  0
C  C117  1  0.03399145  0.63213785  0.46985764  1  0.447909  0  0.114194  0.16831  0  3.956507  0
C  C118  1  0.46600323  0.13214501  0.96985701  1  0.447739  0  0.114228  0.168449  0  3.956396  0
C  C119  1  0.96599651  0.36785509  0.53014188  1  0.447341  0  0.114265  0.168689  0  3.956261  0
C  C120  1  0.38433820  0.84848926  0.02523731  1  0.028006  0  -0.078178  -0.182198  0  3.922786  0
C  C121  1  0.88432433  0.65149853  0.47476732  1  0.027717  0  -0.078165  -0.1822  0  3.922849  0
C  C122  1  0.61566816  0.15150595  0.97476546  1  0.027999  0  -0.078151  -0.182201  0  3.922731  0
C  C123  1  0.11565930  0.34849327  0.52523059  1  0.027873  0  -0.078179  -0.182285  0  3.922796  0
C  C124  1  0.32401338  0.79104287  0.97682180  1  -0.108684  0  0.003247  0.027859  0  3.959895  0
C  C125  1  0.82400228  0.70894653  0.52318114  1  -0.108211  0  0.003262  0.027865  0  3.960216  0
C  C126  1  0.67599190  0.20895420  0.02317951  1  -0.10903  0  0.003179  0.027779  0  3.960061  0
C  C127  1  0.17597919  0.29104234  0.47681738  1  -0.108426  0  0.003154  0.027997  0  3.959804  0
C  C128  1  0.41553994  0.75723485  0.93338339  1  0.072081  0  -0.0811  -0.146672  0  3.946792  0
C  C129  1  0.91551957  0.74275922  0.56661994  1  0.072175  0  -0.081197  -0.146666  0  3.947033  0
C  C130  1  0.58446642  0.24276039  0.06661976  1  0.072684  0  -0.081139  -0.146635  0  3.94682  0
C  C131  1  0.08445324  0.25722959  0.43337780  1  0.072509  0  -0.081059  -0.146755  0  3.94667  0
C  C132  1  0.56190676  0.78730095  0.93990805  1  0.432235  0  0.043991  0.090987  0  3.951129  0
C  C133  1  0.06189171  0.71269735  0.56009387  1  0.433032  0  0.043983  0.090903  0  3.950812  0
C  C134  1  0.43809960  0.21269519  0.06009399  1  0.432545  0  0.044009  0.090994  0  3.950911  0
C  C135  1  0.93808327  0.28729756  0.43990538  1  0.432278  0  0.044062  0.091131  0  3.950703  0
C  C136  1  0.49425096  0.07628908  0.22363803  1  1.617975  0  0.191132  0.555509  0  4.277081  0
C  C137  1  0.99421492  0.42370259  0.27636290  1  1.621576  0  0.191063  0.555341  0  4.277022  0
C  C138  1  0.50577164  0.92372195  0.77636368  1  1.621223  0  0.191239  0.555713  0  4.276082  0
C  C139  1  0.00577196  0.57630197  0.72363301  1  1.618298  0  0.191023  0.555553  0  4.276969  0
C  C140  1  0.16309004  0.76942480  0.97190450  1  1.630328  0  0.201156  0.558502  0  4.227802  0
C  C141  1  0.66307806  0.73057212  0.52809748  1  1.63027  0  0.201287  0.558537  0  4.227974  0
C  C142  1  0.83691200  0.23057434  0.02809771  1  1.630371  0  0.201154  0.558525  0  4.227878  0
C  C143  1  0.33690233  0.26942565  0.47190037  1  1.630137  0  0.201129  0.558484  0  4.227939  0
C  C144  1  0.03334336  0.76592842  0.10640616  1  0.408269  0  0.033937  0.076086  0  3.955384  0
C  C145  1  0.53332092  0.73406505  0.39359094  1  0.408289  0  0.03395  0.076069  0  3.955484  0
C  C146  1  0.96669873  0.23406128  0.89359046  1  0.408117  0  0.0339  0.07593  0  3.955567  0
C  C147  1  0.46666163  0.26593372  0.60640698  1  0.408489  0  0.033949  0.076138  0  3.95537  0
C  C148  1  0.09832253  0.79709765  0.15564327  1  0.036225  0  -0.084401  -0.183537  0  3.922516  0
C  C149  1  0.59830847  0.70289571  0.34435546  1  0.035634  0  -0.084417  -0.183397  0  3.922579  0
C  C150  1  0.90170657  0.20289708  0.84435403  1  0.035779  0  -0.084538  -0.183323  0  3.92252  0
C  C151  1  0.40168166  0.29710126  0.65564468  1  0.036085  0  -0.084475  -0.18362  0  3.922699  0
C  C152  1  0.06338376  0.72337057  0.19500382  1  -0.029108  0  0.017775  0.177583  0  3.919095  0
C  C153  1  0.56337940  0.77662396  0.30499532  1  -0.028984  0  0.017816  0.177537  0  3.919249  0
C  C154  1  0.93663452  0.27663836  0.80499661  1  -0.028923  0  0.018032  0.177572  0  3.918889  0
C  C155  1  0.43662155  0.22337291  0.69500365  1  -0.02931  0  0.0179  0.177707  0  3.919361  0
C  C156  1  0.95503029  0.62579476  0.18360597  1  -0.041404  0  -0.081705  -0.173621  0  3.902116  0
C  C157  1  0.45502513  0.87420099  0.31639026  1  -0.041476  0  -0.081649  -0.173576  0  3.902139  0
C  C158  1  0.04498690  0.37421638  0.81639691  1  -0.042491  0  -0.081679  -0.173488  0  3.901767  0
C  C159  1  0.54497907  0.12580261  0.68360598  1  -0.04187  0  -0.081681  -0.173481  0  3.90204  0
C  C160  1  0.89536159  0.59963099  0.13343733  1  0.473467  0  0.038774  0.085643  0  3.92995  0
C  C161  1  0.39534904  0.90036488  0.36655766  1  0.473668  0  0.038798  0.085674  0  3.930193  0
C  C162  1  0.10466318  0.40037295  0.86656281  1  0.473994  0  0.03878  0.08565  0  3.930101  0
C  C163  1  0.60464759  0.09964062  0.63343752  1  0.473687  0  0.038869  0.085701  0  3.930051  0
C  C164  1  0.14613638  0.74280934  0.24595048  1  -0.069839  0  -0.158849  -0.205234  0  3.9251  0
C  C165  1  0.64613629  0.75718605  0.25405076  1  -0.070058  0  -0.15888  -0.20516  0  3.925194  0
C  C166  1  0.85387215  0.25721163  0.75405101  1  -0.069587  0  -0.158866  -0.205267  0  3.925104  0
C  C167  1  0.35387224  0.24280506  0.74595061  1  -0.070101  0  -0.158873  -0.205377  0  3.925219  0
C  C168  1  0.05489555  0.78340584  0.29569973  1  0.005647  0  -0.164194  -0.135456  0  3.936436  0
C  C169  1  0.55489829  0.71658679  0.20430007  1  0.005687  0  -0.164142  -0.135503  0  3.936425  0
C  C170  1  0.94510865  0.21660909  0.70430104  1  0.005243  0  -0.164205  -0.135344  0  3.936692  0
C  C171  1  0.44510915  0.28340625  0.79570063  1  0.006036  0  -0.164133  -0.135383  0  3.936262  0
C  C172  1  0.69612680  0.06151663  0.39766353  1  0.458975  0  0.048196  0.090014  0  3.922258  0
C  C173  1  0.19613030  0.43846730  0.10233812  1  0.458768  0  0.048111  0.089868  0  3.922396  0
C  C174  1  0.30385791  0.93849096  0.60233293  1  0.458197  0  0.048204  0.089902  0  3.922387  0
C  C175  1  0.80386849  0.56151494  0.89766430  1  0.458145  0  0.048163  0.089889  0  3.922516  0
C  C176  1  0.77753051  0.03146810  0.35160560  1  -0.075835  0  -0.076475  -0.176106  0  3.904535  0
C  C177  1  0.27753652  0.46852176  0.14839922  1  -0.075715  0  -0.076492  -0.176217  0  3.904405  0
C  C178  1  0.22245962  0.96854073  0.64839366  1  -0.076156  0  -0.076501  -0.176065  0  3.904681  0
C  C179  1  0.72246660  0.53146872  0.85160639  1  -0.075835  0  -0.076463  -0.176112  0  3.904637  0
C  C180  1  0.95297641  0.92909077  0.40002312  1  -0.028233  0  -0.089105  -0.185169  0  3.95472  0
C  C181  1  0.45297876  0.57089570  0.09998075  1  -0.028098  0  -0.089198  -0.185303  0  3.954961  0
C  C182  1  0.04699856  0.07089717  0.59997613  1  -0.028451  0  -0.089157  -0.18513  0  3.954642  0
C  C183  1  0.54701137  0.42910061  0.90002324  1  -0.028509  0  -0.089164  -0.185262  0  3.954799  0
C  C184  1  0.86581853  0.96092258  0.44421834  1  0.416814  0  0.027735  0.065897  0  3.984481  0
C  C185  1  0.36582369  0.53905911  0.05578398  1  0.417009  0  0.027726  0.065758  0  3.984759  0
C  C186  1  0.13415320  0.03906526  0.55577973  1  0.416719  0  0.027827  0.065854  0  3.984586  0
C  C187  1  0.63416860  0.46093320  0.94421979  1  0.416892  0  0.027777  0.065789  0  3.984693  0
C  C188  1  0.99997692  0.92775749  0.30292179  1  -0.006  0  -0.153511  -0.199967  0  3.925667  0
C  C189  1  0.49997786  0.57223656  0.19707984  1  -0.006091  0  -0.15343  -0.199719  0  3.925574  0
C  C190  1  0.00001754  0.07225451  0.69707958  1  -0.005491  0  -0.153556  -0.199884  0  3.925698  0
C  C191  1  0.50001984  0.42776061  0.80292264  1  -0.005966  0  -0.153521  -0.199913  0  3.925575  0
C  C192  1  0.90942017  0.96389057  0.35190597  1  0.005401  0  0.016739  0.171636  0  3.918843  0
C  C193  1  0.40942832  0.53610289  0.14809629  1  0.005479  0  0.016865  0.171736  0  3.919254  0
C  C194  1  0.09056455  0.03611126  0.64809289  1  0.006058  0  0.016763  0.171457  0  3.91932  0
C  C195  1  0.59057480  0.46389425  0.85190581  1  0.005857  0  0.016768  0.171676  0  3.918954  0
N  N196  1  0.74411758  0.95631026  0.08108433  1  -1.20435  0  -0.329464  -0.274856  0  3.510663  0
N  N197  1  0.24410047  0.54368262  0.41891535  1  -1.203774  0  -0.329619  -0.275079  0  3.510951  0
N  N198  1  0.25589419  0.04368067  0.91891509  1  -1.203961  0  -0.329591  -0.275015  0  3.510785  0
N  N199  1  0.75588425  0.45631236  0.58108468  1  -1.203888  0  -0.32948  -0.274899  0  3.510546  0
N  N200  1  0.62045429  0.83797900  0.98704769  1  -1.18253  0  -0.340303  -0.241  0  3.589423  0
N  N201  1  0.12043752  0.66202011  0.51295475  1  -1.183042  0  -0.340244  -0.240773  0  3.589288  0
N  N202  1  0.37955208  0.16202397  0.01295279  1  -1.182871  0  -0.340275  -0.240882  0  3.589305  0
N  N203  1  0.87953962  0.33797703  0.48704735  1  -1.182598  0  -0.340332  -0.241072  0  3.589395  0
N  N204  1  0.93588674  0.66611053  0.09471344  1  -1.240208  0  -0.362751  -0.190618  0  3.653724  0
N  N205  1  0.43586353  0.83388722  0.40528210  1  -1.240058  0  -0.362799  -0.190577  0  3.653729  0
N  N206  1  0.06414885  0.33388500  0.90528157  1  -1.239863  0  -0.36275  -0.190552  0  3.65388  0
N  N207  1  0.56412011  0.16611635  0.59471375  1  -1.240334  0  -0.362827  -0.190714  0  3.653788  0
N  N208  1  0.73876626  0.02623157  0.44339692  1  -1.217634  0  -0.361748  -0.191992  0  3.6597  0
N  N209  1  0.23877471  0.47375627  0.05660579  1  -1.217649  0  -0.361659  -0.191681  0  3.659877  0
N  N210  1  0.26120980  0.97376806  0.55659949  1  -1.216767  0  -0.361814  -0.191808  0  3.659844  0
N  N211  1  0.76122516  0.52623201  0.94339737  1  -1.217152  0  -0.361726  -0.191721  0  3.659797  0
O  O212  1  0.36116877  0.04300758  0.22109217  1  -1.191476  0  -0.344894  -0.598889  0  2.163682  0
O  O213  1  0.86114508  0.45700225  0.27890571  1  -1.192133  0  -0.344904  -0.598869  0  2.163467  0
O  O214  1  0.63885058  0.95701645  0.77891027  1  -1.19195  0  -0.344944  -0.599059  0  2.16314  0
O  O215  1  0.13884938  0.54300794  0.72108623  1  -1.191817  0  -0.344958  -0.599063  0  2.163444  0
O  O216  1  0.56287282  0.13221906  0.26399767  1  -1.198399  0  -0.33579  -0.584192  0  2.166898  0
O  O217  1  0.06283933  0.36776061  0.23600629  1  -1.198269  0  -0.335614  -0.584041  0  2.167032  0
O  O218  1  0.43715844  0.86779584  0.73600271  1  -1.197945  0  -0.335782  -0.584124  0  2.166571  0
O  O219  1  0.93715296  0.63223419  0.76399179  1  -1.198266  0  -0.3356  -0.584081  0  2.167047  0
O  O220  1  0.11644314  0.66038495  0.94726196  1  -1.173592  0  -0.313168  -0.549879  0  2.238401  0
O  O221  1  0.61642892  0.83960800  0.55273818  1  -1.173746  0  -0.313226  -0.549946  0  2.238624  0
O  O222  1  0.88356322  0.33961022  0.05274041  1  -1.173708  0  -0.313139  -0.549873  0  2.238537  0
O  O223  1  0.38355039  0.16038367  0.44725816  1  -1.173646  0  -0.313117  -0.549849  0  2.23846  0
O  O224  1  0.08768491  0.86908578  0.99532141  1  -1.149113  0  -0.331335  -0.500726  0  2.463812  0
O  O225  1  0.58767095  0.63090836  0.50467954  1  -1.14914  0  -0.331374  -0.500681  0  2.463713  0
O  O226  1  0.91231820  0.13091123  0.00467912  1  -1.149215  0  -0.33131  -0.50072  0  2.4636  0
O  O227  1  0.41231377  0.36908148  0.49531865  1  -1.149137  0  -0.331368  -0.500846  0  2.463886  0
O  O228  1  0.83891517  0.84990075  0.84178196  1  -1.280859  0  -0.629068  -0.805041  0  1.839673  0
O  O229  1  0.33892695  0.65011303  0.65821576  1  -1.281101  0  -0.629027  -0.805102  0  1.839735  0
O  O230  1  0.16109877  0.15009539  0.15822008  1  -1.281055  0  -0.628987  -0.80502  0  1.839706  0
O  O231  1  0.66108699  0.34990934  0.34179047  1  -1.281088  0  -0.629025  -0.805055  0  1.839733  0
