# generated using pymatgen
data_CuH12C20(NO2)2
_symmetry_space_group_name_H-M   'P 1'
_cell_length_a   9.15865615
_cell_length_b   9.15865745
_cell_length_c   10.25540650
_cell_angle_alpha   88.22973632
_cell_angle_beta   88.22988193
_cell_angle_gamma   66.95661746
_symmetry_Int_Tables_number   1
_chemical_formula_structural   CuH12C20(NO2)2
_chemical_formula_sum   'Cu2 H24 C40 N4 O8'
_cell_volume   791.05150448
_cell_formula_units_Z   2
loop_
 _symmetry_equiv_pos_site_id
 _symmetry_equiv_pos_as_xyz
  1  'x, y, z'
loop_
 _atom_site_type_symbol
 _atom_site_label
 _atom_site_symmetry_multiplicity
 _atom_site_fract_x
 _atom_site_fract_y
 _atom_site_fract_z
 _atom_site_occupancy
 _atom_site_hle17_ddec_charge
 _atom_site_hle17_ddec_spin_density
 _atom_site_hle17_ddec_sum_bond_order
 _atom_site_hle17_magmom
 _atom_site_hse06_10hf_ddec_charge
 _atom_site_hse06_10hf_ddec_spin_density
 _atom_site_hse06_10hf_ddec_sum_bond_order
 _atom_site_hse06_10hf_magmom
 _atom_site_hse06_ddec_charge
 _atom_site_hse06_ddec_spin_density
 _atom_site_hse06_ddec_sum_bond_order
 _atom_site_hse06_magmom
 _atom_site_pbe_cm5_charge
 _atom_site_pbe_ddec_charge
 _atom_site_pbe_ddec_spin_density
 _atom_site_pbe_ddec_sum_bond_order
 _atom_site_pbe_magmom
Cu  Cu0  1  0.41732100  0.31182514  0.21664096  1  0.837479  0.671965  1.775686  0.491  0.815565  0.762436  2.161506  0.604  0.904925  0.827306  2.09295  0.687  0.743004  0.761227  0.717437  2.210081  0.552
Cu  Cu1  1  0.31182582  0.41732027  0.71664043  1  0.837399  0.671933  1.775668  0.491  0.815516  0.762421  2.161468  0.604  0.904918  0.827307  2.092959  0.687  0.743  0.76122  0.717436  2.210049  0.552
H  H2  1  0.34451984  0.14236609  0.46929910  1  0.105002  0.000938  0.943024  0.002  0.11261  0.000905  1.004345  0.002  0.114828  0.000644  1.001893  0.001  0.126449  0.110351  0.001124  1.007195  0.002
H  H3  1  0.14236951  0.34451866  0.96929935  1  0.104968  0.000943  0.943053  0.002  0.11257  0.000906  1.004382  0.002  0.114788  0.000643  1.00193  0.001  0.12642  0.110312  0.001124  1.007231  0.002
H  H4  1  0.48167404  0.87502002  0.57084679  1  0.112613  0.000479  0.946459  0.0  0.123443  0.000473  1.003718  0.0  0.126185  0.000362  1.00411  0.0  0.112721  0.121533  0.000548  1.003003  0.001
H  H5  1  0.87502215  0.48167052  0.07084476  1  0.112644  0.000477  0.946442  0.0  0.123461  0.000473  1.003713  0.0  0.126202  0.000362  1.004106  0.0  0.11273  0.121548  0.000548  1.002998  0.001
H  H6  1  0.74326338  0.68994226  0.47763941  1  0.103587  0.000141  0.953301  0.0  0.115982  -3.9e-05  1.01112  0.0  0.117505  -5.6e-05  1.011586  0.0  0.110031  0.11445  1.5e-05  1.011457  0.0
H  H7  1  0.68994529  0.74325959  0.97763702  1  0.103499  0.00014  0.953289  0.0  0.115884  -3.9e-05  1.011143  0.0  0.117406  -5.7e-05  1.01161  0.0  0.109988  0.114348  1.5e-05  1.011483  0.0
H  H8  1  0.97120488  0.65238588  0.31077602  1  0.109729  0.000346  0.95966  0.0  0.119641  0.000336  1.020906  0.0  0.12238  0.000232  1.02088  0.0  0.106987  0.118479  0.000335  1.019702  0.0
H  H9  1  0.65238616  0.97120484  0.81077622  1  0.109726  0.000345  0.959658  0.0  0.119637  0.000336  1.020903  0.0  0.122377  0.000231  1.020877  0.0  0.106991  0.118478  0.000335  1.019698  0.0
H  H10  1  0.07661754  0.75712954  0.12363597  1  0.109195  0.000337  0.959592  0.0  0.119268  0.000332  1.020689  0.0  0.12198  0.000228  1.020649  0.0  0.107172  0.118136  0.000332  1.019462  0.0
H  H11  1  0.75713135  0.07661816  0.62363720  1  0.109216  0.000336  0.959594  0.0  0.119291  0.000332  1.020686  0.0  0.122005  0.000228  1.020645  0.0  0.107182  0.11816  0.000332  1.019458  0.0
H  H12  1  0.04026587  0.98500855  0.95711731  1  0.103323  0.000141  0.953049  0.0  0.115348  -3.8e-05  1.011371  0.0  0.116895  -5.7e-05  1.01182  0.0  0.109874  0.113784  1.5e-05  1.011753  0.0
H  H13  1  0.98500996  0.04027013  0.45711856  1  0.103256  0.000143  0.953028  0.0  0.115279  -3.9e-05  1.011368  0.0  0.116826  -5.7e-05  1.011815  0.0  0.109861  0.113715  1.5e-05  1.011747  0.0
H  H14  1  0.85589279  0.24672171  0.86366171  1  0.111877  0.000477  0.946989  0.0  0.122626  0.000475  1.004413  0.0  0.125352  0.000363  1.004854  0.0  0.112468  0.120739  0.00055  1.003656  0.001
H  H15  1  0.24672319  0.85589379  0.36366233  1  0.111838  0.000474  0.946969  0.0  0.122589  0.000475  1.004403  0.0  0.125315  0.000363  1.004844  0.0  0.112443  0.1207  0.00055  1.003643  0.001
H  H16  1  0.58810300  0.38413966  0.96437074  1  0.105244  0.000947  0.94347  0.002  0.113598  0.000911  1.003815  0.002  0.115849  0.000647  1.001315  0.001  0.126553  0.111296  0.001129  1.006757  0.002
H  H17  1  0.38413787  0.58810165  0.46437105  1  0.105243  0.000951  0.943523  0.002  0.113603  0.000911  1.003858  0.002  0.115856  0.000648  1.001355  0.001  0.126539  0.111296  0.001129  1.006812  0.002
H  H18  1  0.32159947  0.63129009  0.88779234  1  0.091268  -9.2e-05  0.986746  0.0  0.086771  -0.000166  1.075865  0.0  0.090614  -0.000347  1.071118  0.0  0.095387  0.08356  -6.2e-05  1.080284  0.0
H  H19  1  0.63128865  0.32159787  0.38779126  1  0.091263  -9.9e-05  0.986784  0.0  0.086768  -0.000166  1.075902  0.0  0.090616  -0.000347  1.07115  0.0  0.095378  0.08358  -6.2e-05  1.080304  0.0
H  H20  1  0.29074431  0.86178391  0.73581361  1  0.092813  -4.5e-05  0.970265  0.0  0.099002  -8e-06  1.040031  0.0  0.101947  -1.4e-05  1.039325  0.0  0.097244  0.097239  -2.9e-05  1.040097  0.0
H  H21  1  0.86178602  0.29074638  0.23581352  1  0.092792  -3.7e-05  0.970322  0.0  0.09903  -8e-06  1.040021  0.0  0.101967  -1.4e-05  1.039333  0.0  0.097247  0.097266  -2.9e-05  1.040091  0.0
H  H22  1  0.40802455  0.09750323  0.04586854  1  0.09061  -0.000111  0.987304  0.0  0.086513  -0.000185  1.075957  0.0  0.090433  -0.000364  1.071088  0.0  0.095261  0.083244  -7.9e-05  1.080455  0.0
H  H23  1  0.09750146  0.40803099  0.54586956  1  0.09063  -0.000102  0.98729  0.0  0.086493  -0.000184  1.075988  0.0  0.090409  -0.000363  1.071126  0.0  0.095251  0.083226  -7.9e-05  1.080486  0.0
H  H24  1  0.43806317  0.86735833  0.19806247  1  0.093811  -4.3e-05  0.969594  0.0  0.099422  -8e-06  1.039512  0.0  0.102485  -1.4e-05  1.038628  0.0  0.097439  0.097586  -2.9e-05  1.039699  0.0
H  H25  1  0.86735700  0.43806476  0.69806253  1  0.093809  -5.1e-05  0.969604  0.0  0.099411  -8e-06  1.03953  0.0  0.102475  -1.3e-05  1.038646  0.0  0.097445  0.097579  -2.9e-05  1.039716  0.0
C  C26  1  0.45596170  0.05956998  0.42764075  1  0.171462  -0.009637  3.626222  -0.007  0.141966  -0.003255  3.881175  -0.002  0.155748  -0.004725  3.894517  -0.003  0.06993  0.132249  -0.002188  3.872665  -0.002
C  C27  1  0.05957334  0.45595972  0.92763984  1  0.171486  -0.009708  3.626238  -0.007  0.142005  -0.003254  3.881187  -0.002  0.155787  -0.004731  3.894531  -0.003  0.069959  0.132289  -0.002187  3.87268  -0.002
C  C28  1  0.53556867  0.90851356  0.48521019  1  -0.109414  0.006938  3.700161  0.008  -0.121816  0.003785  3.950827  0.005  -0.12974  0.003389  3.969598  0.004  -0.073855  -0.11654  0.004099  3.937032  0.005
C  C29  1  0.90851731  0.53556595  0.98520918  1  -0.109534  0.006946  3.700132  0.008  -0.121926  0.003786  3.950812  0.005  -0.129851  0.003388  3.969581  0.004  -0.073865  -0.116647  0.004099  3.937013  0.005
C  C30  1  0.68030244  0.80751780  0.43437528  1  -0.024405  -0.009771  3.651666  -0.006  -0.047124  -0.004606  3.892368  -0.003  -0.041324  -0.005142  3.907402  -0.003  -0.051926  -0.050579  -0.004321  3.882182  -0.002
C  C31  1  0.80751986  0.68029937  0.93437408  1  -0.024157  -0.00979  3.651457  -0.006  -0.046882  -0.004604  3.892116  -0.003  -0.041081  -0.005139  3.907145  -0.003  -0.051878  -0.050335  -0.004321  3.881931  -0.002
C  C32  1  0.74832732  0.85892625  0.32603008  1  0.029047  0.00346  3.786894  0.004  0.046312  0.00198  4.014831  0.002  0.043596  0.001687  4.03779  0.002  0.002544  0.048011  0.002299  3.999546  0.003
C  C33  1  0.85892321  0.74832587  0.82602703  1  0.028887  0.003477  3.786947  0.004  0.046207  0.001979  4.014792  0.002  0.043491  0.001689  4.037749  0.002  0.002515  0.047908  0.002299  3.999509  0.003
C  C34  1  0.90092451  0.76886960  0.26897333  1  -0.095539  0.0006  3.720767  0.001  -0.116263  0.000367  3.969846  0.0  -0.11961  0.000301  3.993051  0.0  -0.079861  -0.113672  0.00062  3.953343  0.001
C  C35  1  0.76886969  0.90092487  0.76897276  1  -0.09547  0.000616  3.720749  0.001  -0.1162  0.000365  3.969807  0.0  -0.11955  0.000302  3.993017  0.0  -0.079852  -0.11361  0.00062  3.953309  0.001
C  C36  1  0.96022059  0.82776209  0.16543223  1  -0.09393  0.000681  3.719917  0.001  -0.114747  0.000362  3.969107  0.0  -0.118039  0.000302  3.992299  0.0  -0.079752  -0.112195  0.00062  3.952617  0.001
C  C37  1  0.82776334  0.96022028  0.66543261  1  -0.09404  0.000671  3.719954  0.001  -0.114877  0.000365  3.969165  0.0  -0.11817  0.000302  3.992356  0.0  -0.079805  -0.112323  0.00062  3.952676  0.001
C  C38  1  0.87055893  0.98036607  0.10823712  1  0.027826  0.00347  3.785805  0.004  0.045243  0.001988  4.013981  0.002  0.042486  0.00169  4.03698  0.002  0.002678  0.046968  0.002306  3.998668  0.003
C  C39  1  0.98036681  0.87056205  0.60823961  1  0.027842  0.003502  3.785824  0.004  0.04524  0.001985  4.013988  0.002  0.042483  0.001693  4.03699  0.002  0.002734  0.046966  0.002306  3.998676  0.003
C  C40  1  0.92254635  0.04819531  0.00011580  1  -0.023971  -0.00981  3.651643  -0.006  -0.046552  -0.004608  3.892575  -0.003  -0.040747  -0.005138  3.907635  -0.003  -0.051924  -0.050008  -0.004322  3.882357  -0.002
C  C41  1  0.04819709  0.92255001  0.50011811  1  -0.023801  -0.009911  3.65149  -0.006  -0.046372  -0.004603  3.892424  -0.003  -0.040567  -0.005152  3.907482  -0.003  -0.051911  -0.049828  -0.004321  3.882203  -0.002
C  C42  1  0.82187656  0.19296400  0.94911693  1  -0.107966  0.006985  3.701139  0.008  -0.120367  0.003793  3.95174  0.005  -0.128306  0.003392  3.970548  0.004  -0.073494  -0.115083  0.004106  3.937893  0.005
C  C43  1  0.19296436  0.82187879  0.44911752  1  -0.10797  0.007039  3.701107  0.008  -0.120385  0.003792  3.951735  0.005  -0.128326  0.0034  3.970545  0.004  -0.073485  -0.115099  0.004106  3.937883  0.005
C  C44  1  0.67063913  0.27277078  0.00628589  1  0.17108  -0.0097  3.627241  -0.007  0.141191  -0.003243  3.881798  -0.002  0.154942  -0.004713  3.89518  -0.003  0.06995  0.131524  -0.002171  3.87322  -0.002
C  C45  1  0.27276986  0.67064024  0.50628503  1  0.171054  -0.009781  3.627257  -0.007  0.141153  -0.003241  3.881839  -0.002  0.154898  -0.004723  3.895222  -0.003  0.069959  0.131485  -0.00217  3.873257  -0.002
C  C46  1  0.71823645  0.07033311  0.16146654  1  0.123089  -0.001907  3.776224  -0.001  0.118986  9.1e-05  4.012871  0.0  0.123428  -0.000889  4.037691  -0.001  0.114783  0.115787  0.000753  3.996368  0.001
C  C47  1  0.07033502  0.71823662  0.66146728  1  0.123049  -0.001931  3.77623  -0.001  0.119006  9.3e-05  4.012783  0.0  0.123444  -0.000893  4.0376  -0.001  0.114783  0.115807  0.000753  3.996283  0.001
C  C48  1  0.65868004  0.01119725  0.27257663  1  0.119745  -0.001865  3.77741  -0.001  0.116113  9.8e-05  4.013779  0.0  0.120521  -0.000884  4.038603  -0.001  0.113665  0.112934  0.000761  3.997267  0.001
C  C49  1  0.01119562  0.65868003  0.77257654  1  0.119833  -0.00189  3.777325  -0.001  0.116195  0.000101  4.013641  0.0  0.120606  -0.000888  4.038463  -0.001  0.113688  0.113016  0.000761  3.997133  0.001
C  C50  1  0.40103372  0.59867681  0.14228703  1  0.60354  -0.008002  3.946411  -0.008  0.56321  -0.002418  4.247052  -0.003  0.599278  -0.002907  4.242185  -0.003  0.189932  0.539032  -0.001856  4.249091  -0.003
C  C51  1  0.59867739  0.40103305  0.64228587  1  0.603441  -0.007965  3.946453  -0.008  0.563104  -0.002419  4.247109  -0.003  0.599176  -0.002908  4.242241  -0.003  0.189915  0.538931  -0.001856  4.249145  -0.003
C  C52  1  0.37959492  0.73707112  0.05182105  1  -0.064427  0.008515  3.764407  0.009  -0.039229  0.005016  3.988401  0.006  -0.045408  0.003466  4.009338  0.004  -0.0196  -0.034809  0.006308  3.973708  0.007
C  C53  1  0.73707056  0.37959701  0.55181902  1  -0.064362  0.008342  3.764328  0.009  -0.039191  0.005026  3.988346  0.006  -0.04537  0.003455  4.009283  0.004  -0.019579  -0.034782  0.006308  3.973669  0.007
C  C54  1  0.33819730  0.73494596  0.92164334  1  -0.064125  0.000306  3.729412  0.0  -0.086722  0.000329  3.985194  0.0  -0.086492  1.8e-05  4.004114  0.0  -0.087307  -0.08612  0.000843  3.972246  0.001
C  C55  1  0.73494615  0.33819370  0.42164140  1  -0.06408  0.000526  3.729385  0.0  -0.086682  0.000323  3.985203  0.0  -0.086449  3.3e-05  4.004112  0.0  -0.087278  -0.0861  0.000843  3.972245  0.001
C  C56  1  0.32324236  0.86145932  0.83718607  1  -0.079267  0.000317  3.739453  0.001  -0.102062  0.000656  3.988673  0.001  -0.103152  0.000345  4.008622  0.001  -0.088345  -0.100971  0.000753  3.974187  0.001
C  C57  1  0.86146075  0.32324429  0.33718403  1  -0.079275  9e-05  3.739464  0.001  -0.102118  0.000652  3.988683  0.001  -0.103205  0.00033  4.008627  0.001  -0.08837  -0.10103  0.000753  3.974197  0.001
C  C58  1  0.34959526  0.99191127  0.88191495  1  -0.063976  0.008509  3.763141  0.009  -0.039132  0.005038  3.987716  0.006  -0.04521  0.003467  4.008513  0.004  -0.019322  -0.034813  0.006338  3.97312  0.007
C  C59  1  0.99191159  0.34960099  0.38191584  1  -0.064002  0.008684  3.763235  0.009  -0.039139  0.005044  3.98776  0.006  -0.045218  0.00348  4.008555  0.004  -0.01934  -0.034814  0.006338  3.973151  0.007
C  C60  1  0.39110772  0.99398285  0.01209618  1  -0.063851  0.000331  3.728302  0.0  -0.086705  0.000316  3.98417  0.0  -0.086553  2.5e-05  4.003011  0.0  -0.087559  -0.08612  0.000826  3.971467  0.001
C  C61  1  0.99398202  0.39111237  0.51209630  1  -0.063842  7.7e-05  3.728382  0.0  -0.086677  0.000313  3.984226  0.0  -0.086528  6e-06  4.003076  0.0  -0.08753  -0.086094  0.000825  3.971522  0.001
C  C62  1  0.40582981  0.86757623  0.09662747  1  -0.080536  0.000281  3.738783  0.001  -0.102787  0.000651  3.988112  0.001  -0.103922  0.000327  4.008111  0.001  -0.088387  -0.101699  0.000746  3.973593  0.001
C  C63  1  0.86757571  0.40583332  0.59662648  1  -0.080594  0.000538  3.738848  0.001  -0.10282  0.000643  3.988148  0.001  -0.103955  0.000343  4.008145  0.001  -0.088431  -0.101733  0.000746  3.973636  0.001
C  C64  1  0.32819602  0.13015036  0.79122562  1  0.602236  -0.007956  3.945994  -0.008  0.562577  -0.002406  4.246047  -0.003  0.598616  -0.002899  4.241149  -0.003  0.189379  0.538439  -0.001839  4.248092  -0.003
C  C65  1  0.13014980  0.32820297  0.29122752  1  0.602212  -0.00801  3.946111  -0.008  0.562583  -0.002403  4.246106  -0.003  0.598622  -0.002902  4.241207  -0.003  0.189383  0.538437  -0.001839  4.248142  -0.003
N  N66  1  0.51497813  0.10791443  0.32230867  1  -0.338389  0.063069  3.327173  0.08  -0.29155  0.048949  3.619091  0.066  -0.321087  0.041507  3.637908  0.06  -0.340597  -0.274006  0.053738  3.608437  0.069
N  N67  1  0.10791474  0.51497838  0.82230779  1  -0.338375  0.06311  3.327142  0.08  -0.291562  0.048948  3.619074  0.066  -0.32111  0.041511  3.637919  0.06  -0.340599  -0.274029  0.053738  3.608437  0.069
N  N68  1  0.62178555  0.21394261  0.11145264  1  -0.340001  0.063384  3.328578  0.081  -0.293312  0.049201  3.620899  0.066  -0.322866  0.041708  3.639776  0.061  -0.341026  -0.275771  0.054019  3.610201  0.069
N  N69  1  0.21394319  0.62178505  0.61145177  1  -0.339983  0.063433  3.328534  0.081  -0.293312  0.049199  3.620834  0.066  -0.322862  0.041714  3.63972  0.061  -0.341035  -0.275783  0.054019  3.610152  0.069
O  O70  1  0.47460814  0.58144441  0.24621792  1  -0.606948  -0.002177  1.920023  0.0  -0.57342  -0.002042  2.152417  0.0  -0.599171  -0.003084  2.145504  -0.001  -0.324067  -0.556063  -0.000829  2.156987  0.001
O  O71  1  0.58144390  0.47460931  0.74621662  1  -0.606943  -0.002208  1.920014  0.0  -0.57339  -0.002041  2.152425  0.0  -0.599145  -0.003086  2.145515  -0.001  -0.324068  -0.556038  -0.000829  2.156994  0.001
O  O72  1  0.34136144  0.50057578  0.10233908  1  -0.575664  0.110523  2.023667  0.149  -0.555055  0.068377  2.308608  0.101  -0.599589  0.051527  2.303096  0.082  -0.331285  -0.525996  0.079045  2.312322  0.11
O  O73  1  0.50057741  0.34136085  0.60233783  1  -0.575564  0.110525  2.0237  0.149  -0.554999  0.068377  2.308607  0.101  -0.599546  0.051527  2.303117  0.082  -0.331277  -0.52595  0.079044  2.312335  0.11
O  O74  1  0.25426641  0.14721219  0.68749310  1  -0.606851  -0.002191  1.920351  0.0  -0.573813  -0.00203  2.153063  0.0  -0.599555  -0.003065  2.146137  -0.001  -0.32378  -0.556453  -0.000815  2.157617  0.001
O  O75  1  0.14720943  0.25427074  0.18749626  1  -0.606864  -0.002153  1.920358  0.0  -0.573821  -0.002029  2.153046  0.0  -0.599559  -0.003061  2.146118  -0.001  -0.323784  -0.556459  -0.000815  2.157596  0.001
O  O76  1  0.38821481  0.22815973  0.83070558  1  -0.57531  0.110237  2.021958  0.149  -0.554722  0.068193  2.306066  0.1  -0.599227  0.051373  2.300564  0.082  -0.331351  -0.525668  0.078876  2.30976  0.11
O  O77  1  0.22816419  0.38821494  0.33070759  1  -0.575235  0.110249  2.021963  0.149  -0.554679  0.06819  2.306028  0.1  -0.599171  0.051373  2.300502  0.082  -0.331333  -0.525617  0.078877  2.309711  0.11
