# generated using pymatgen
data_CuH10C14N2O3
_symmetry_space_group_name_H-M   'P 1'
_cell_length_a   6.39299602
_cell_length_b   9.90781976
_cell_length_c   18.56700000
_cell_angle_alpha   90.00000000
_cell_angle_beta   90.00000000
_cell_angle_gamma   95.86666318
_symmetry_Int_Tables_number   1
_chemical_formula_structural   CuH10C14N2O3
_chemical_formula_sum   'Cu4 H40 C56 N8 O12'
_cell_volume   1169.88630050
_cell_formula_units_Z   4
loop_
 _symmetry_equiv_pos_site_id
 _symmetry_equiv_pos_as_xyz
  1  'x, y, z'
loop_
 _atom_site_type_symbol
 _atom_site_label
 _atom_site_symmetry_multiplicity
 _atom_site_fract_x
 _atom_site_fract_y
 _atom_site_fract_z
 _atom_site_occupancy
 _atom_site_hle17_bader_spin_density
 _atom_site_hle17_ddec_charge
 _atom_site_hle17_ddec_spin_density
 _atom_site_hle17_ddec_sum_bond_order
 _atom_site_hle17_magmom
 _atom_site_hse06_10hf_bader_spin_density
 _atom_site_hse06_10hf_ddec_charge
 _atom_site_hse06_10hf_ddec_spin_density
 _atom_site_hse06_10hf_ddec_sum_bond_order
 _atom_site_hse06_10hf_magmom
 _atom_site_hse06_bader_spin_density
 _atom_site_hse06_ddec_charge
 _atom_site_hse06_ddec_spin_density
 _atom_site_hse06_ddec_sum_bond_order
 _atom_site_hse06_magmom
 _atom_site_pbe_bader_charge
 _atom_site_pbe_bader_spin_density
 _atom_site_pbe_cm5_charge
 _atom_site_pbe_ddec_charge
 _atom_site_pbe_ddec_spin_density
 _atom_site_pbe_ddec_sum_bond_order
 _atom_site_pbe_magmom
Cu  Cu0  1  0.80343200  0.51449548  0.54691226  1  0  0.84026  0  1.838037  0  0  0.779015  0  2.262339  0  0  0.811146  0  2.20891  0  1.041127  0  0.723469  0.75946  0  2.298408  0
Cu  Cu1  1  0.69656466  0.98548415  0.04691765  1  0  0.840268  0  1.838184  0  0  0.779128  0  2.262402  0  0  0.811123  0  2.209059  0  1.041146  0  0.723631  0.759632  0  2.298482  0
Cu  Cu2  1  0.19656199  0.48549669  0.45308235  1  0  0.840396  0  1.838316  0  0  0.779251  0  2.262536  0  0  0.811101  0  2.209267  0  1.041121  0  0.723694  0.759668  0  2.298651  0
Cu  Cu3  1  0.30343755  0.01449077  0.95308774  1  0  0.840404  0  1.83824  0  0  0.779226  0  2.262481  0  0  0.811109  0  2.209146  0  1.041203  0  0.723599  0.759648  0  2.298568  0
H  H4  1  0.25163710  0.75132150  0.39127915  1  0  0.125848  0  1.000788  0  0  0.133748  0  1.063744  0  0  0.138078  0  1.06127  0  0.124918  0  0.103407  0.130598  0  1.06567  0
H  H5  1  0.24835381  0.74866523  0.89127430  1  0  0.125875  0  1.000628  0  0  0.133777  0  1.063603  0  0  0.138105  0  1.061131  0  0.124908  0  0.103423  0.130637  0  1.065528  0
H  H6  1  0.74832080  0.24867980  0.60872300  1  0  0.12596  0  1.00061  0  0  0.133831  0  1.06362  0  0  0.138167  0  1.06115  0  0.124456  0  0.103401  0.130682  0  1.065546  0
H  H7  1  0.75166857  0.25130868  0.10871762  1  0  0.12592  0  1.000664  0  0  0.133772  0  1.063691  0  0  0.138117  0  1.061221  0  0.124578  0  0.103365  0.130629  0  1.065615  0
H  H8  1  0.22024015  0.97815658  0.34100016  1  0  0.079208  0  0.9931  0  0  0.089177  0  1.056598  0  0  0.090329  0  1.057867  0  0.061286  0  0.094003  0.088347  0  1.055686  0
H  H9  1  0.27976905  0.52182711  0.84100070  1  0  0.079209  0  0.993055  0  0  0.089205  0  1.056529  0  0  0.090354  0  1.057802  0  0.060642  0  0.094038  0.088389  0  1.055629  0
H  H10  1  0.77973087  0.02183864  0.65899930  1  0  0.079193  0  0.992954  0  0  0.089136  0  1.056474  0  0  0.090291  0  1.057737  0  0.061929  0  0.094015  0.088304  0  1.055565  0
H  H11  1  0.72028338  0.47814883  0.15899661  1  0  0.079131  0  0.992997  0  0  0.089063  0  1.056554  0  0  0.09022  0  1.057811  0  0.062055  0  0.093975  0.088249  0  1.055653  0
H  H12  1  0.90780666  0.10029904  0.36840524  1  0  0.096387  0  0.957882  0  0  0.107776  0  1.017623  0  0  0.11062  0  1.017072  0  0.080231  0  0.09857  0.105747  0  1.018157  0
H  H13  1  0.59220666  0.39969248  0.86840685  1  0  0.09645  0  0.957676  0  0  0.107848  0  1.017455  0  0  0.110687  0  1.01689  0  0.079857  0  0.098605  0.105831  0  1.018008  0
H  H14  1  0.09219163  0.89971039  0.63159746  1  0  0.096378  0  0.957807  0  0  0.107833  0  1.017462  0  0  0.110682  0  1.016906  0  0.080216  0  0.09861  0.105803  0  1.017998  0
H  H15  1  0.40783109  0.60028954  0.13160069  1  0  0.096405  0  0.957741  0  0  0.107865  0  1.017404  0  0  0.110716  0  1.016843  0  0.079371  0  0.098605  0.105848  0  1.017956  0
H  H16  1  0.62284853  0.98684983  0.44618247  1  0  0.076582  0  0.969986  0  0  0.087118  0  1.035663  0  0  0.089167  0  1.034367  0  0.055832  0  0.096133  0.08556  0  1.036788  0
H  H17  1  0.87714325  0.51315822  0.94618409  1  0  0.076554  0  0.969997  0  0  0.087085  0  1.035674  0  0  0.089136  0  1.034372  0  0.055793  0  0.096142  0.08552  0  1.036816  0
H  H18  1  0.37713517  0.01318597  0.55382399  1  0  0.076628  0  0.96991  0  0  0.087142  0  1.035622  0  0  0.089195  0  1.034315  0  0.055908  0  0.096155  0.085583  0  1.036748  0
H  H19  1  0.12286137  0.48683193  0.05382830  1  0  0.076627  0  0.969908  0  0  0.087137  0  1.035637  0  0  0.089192  0  1.034328  0  0.055836  0  0.096116  0.085579  0  1.03677  0
H  H20  1  0.47132231  0.81420854  0.51447137  1  0  0.083496  0  0.924453  0  0  0.098267  0  0.985873  0  0  0.099783  0  0.982617  0  0.110792  0  0.124591  0.096972  0  0.988445  0
H  H21  1  0.02868396  0.68578632  0.01446707  1  0  0.083474  0  0.924257  0  0  0.098253  0  0.985682  0  0  0.099773  0  0.982418  0  0.110935  0  0.12456  0.096946  0  0.988265  0
H  H22  1  0.52866455  0.18579784  0.48553509  1  0  0.083527  0  0.924162  0  0  0.09829  0  0.98559  0  0  0.099823  0  0.982325  0  0.111101  0  0.124538  0.096991  0  0.988164  0
H  H23  1  0.97134520  0.31420078  0.98553455  1  0  0.083507  0  0.924592  0  0  0.098286  0  0.98597  0  0  0.099797  0  0.98271  0  0.111017  0  0.124565  0.096983  0  0.988547  0
H  H24  1  0.46686373  0.28050126  0.71383476  1  0  0.105111  0  0.938766  0  0  0.118232  0  0.993218  0  0  0.121111  0  0.991756  0  0.106714  0  0.106541  0.116203  0  0.994162  0
H  H25  1  0.03312550  0.21949026  0.21383314  1  0  0.105013  0  0.938832  0  0  0.118228  0  0.99315  0  0  0.121111  0  0.991681  0  0.106548  0  0.106473  0.116165  0  0.994137  0
H  H26  1  0.53314831  0.71950613  0.28616201  1  0  0.104976  0  0.938964  0  0  0.118127  0  0.993366  0  0  0.121006  0  0.991905  0  0.106791  0  0.106521  0.116098  0  0.994307  0
H  H27  1  0.96686164  0.78050800  0.78616255  1  0  0.105182  0  0.93882  0  0  0.118343  0  0.99319  0  0  0.121225  0  0.991721  0  0.106755  0  0.106562  0.116263  0  0.994199  0
H  H28  1  0.20584665  0.19691298  0.80705176  1  0  0.095659  0  0.981573  0  0  0.100991  0  1.051031  0  0  0.104155  0  1.049913  0  0.063672  0  0.095088  0.098658  0  1.052077  0
H  H29  1  0.29413825  0.30309071  0.30704960  1  0  0.095887  0  0.981428  0  0  0.101101  0  1.051032  0  0  0.104231  0  1.049952  0  0.063522  0  0.095165  0.098776  0  1.052105  0
H  H30  1  0.79416997  0.80310354  0.19294824  1  0  0.095846  0  0.981396  0  0  0.10104  0  1.051021  0  0  0.104213  0  1.049891  0  0.0635  0  0.095158  0.098707  0  1.052065  0
H  H31  1  0.70584769  0.69691972  0.69294447  1  0  0.095828  0  0.981305  0  0  0.101084  0  1.05087  0  0  0.104233  0  1.049767  0  0.063894  0  0.095146  0.098761  0  1.051944  0
H  H32  1  0.88007374  0.31176367  0.82301341  1  0  0.079705  0  0.978857  0  0  0.088848  0  1.044155  0  0  0.091497  0  1.042561  0  0.06871  0  0.094986  0.086953  0  1.045188  0
H  H33  1  0.61992009  0.18824307  0.32302364  1  0  0.079712  0  0.978766  0  0  0.088805  0  1.044085  0  0  0.091458  0  1.042505  0  0.068571  0  0.094973  0.086919  0  1.045136  0
H  H34  1  0.11994473  0.68824474  0.17698228  1  0  0.079597  0  0.978915  0  0  0.088781  0  1.044123  0  0  0.091432  0  1.042539  0  0.068694  0  0.094974  0.086882  0  1.045154  0
H  H35  1  0.38007527  0.81177751  0.67698174  1  0  0.079723  0  0.978935  0  0  0.088845  0  1.044202  0  0  0.091501  0  1.042624  0  0.068597  0  0.095031  0.086961  0  1.045255  0
H  H36  1  0.82000221  0.51266207  0.74878710  1  0  0.113983  0  0.954354  0  0  0.125101  0  1.014523  0  0  0.127799  0  1.014552  0  0.085492  0  0.104863  0.123154  0  1.014614  0
H  H37  1  0.67998532  0.98733887  0.24880056  1  0  0.114042  0  0.954405  0  0  0.125214  0  1.01449  0  0  0.127917  0  1.014519  0  0.085508  0  0.104895  0.123271  0  1.014581  0
H  H38  1  0.17999901  0.48733619  0.25120321  1  0  0.113995  0  0.954311  0  0  0.125151  0  1.014461  0  0  0.127857  0  1.014489  0  0.085756  0  0.104891  0.123198  0  1.014549  0
H  H39  1  0.31999954  0.01267461  0.75121129  1  0  0.11409  0  0.954145  0  0  0.125133  0  1.014416  0  0  0.127838  0  1.014448  0  0.085846  0  0.104904  0.123191  0  1.014508  0
H  H40  1  0.19400265  0.63795622  0.61520224  1  0  0.348714  0  0.94437  0  0  0.314584  0  1.037274  0  0  0.325902  0  1.025526  0  0.634599  0  0.29534  0.306686  0  1.045449  0
H  H41  1  0.30601020  0.86204067  0.11520870  1  0  0.348867  0  0.944307  0  0  0.314751  0  1.037182  0  0  0.326068  0  1.025429  0  0.634699  0  0.295437  0.306852  0  1.045357  0
H  H42  1  0.80599576  0.36204407  0.38478914  1  0  0.348812  0  0.944467  0  0  0.314704  0  1.037325  0  0  0.326023  0  1.025569  0  0.634648  0  0.295424  0.306808  0  1.045496  0
H  H43  1  0.69400445  0.13795354  0.88480045  1  0  0.348724  0  0.944406  0  0  0.314586  0  1.037325  0  0  0.325901  0  1.025579  0  0.634534  0  0.295327  0.306687  0  1.045498  0
C  C44  1  0.95999179  0.73914508  0.44962029  1  0  0.326838  0  3.761178  0  0  0.31505  0  4.016839  0  0  0.329408  0  4.034187  0  0.537501  0  0.085709  0.304976  0  4.005221  0
C  C45  1  0.54000684  0.76085688  0.94961976  1  0  0.326685  0  3.761397  0  0  0.314909  0  4.017097  0  0  0.32927  0  4.034439  0  0.537398  0  0.085661  0.304867  0  4.005494  0
C  C46  1  0.03998669  0.26087754  0.55037809  1  0  0.326702  0  3.761191  0  0  0.315073  0  4.016798  0  0  0.329437  0  4.034146  0  0.53615  0  0.08569  0.305003  0  4.005177  0
C  C47  1  0.46000103  0.23912413  0.05038186  1  0  0.326994  0  3.760361  0  0  0.315231  0  4.01606  0  0  0.329591  0  4.033415  0  0.536857  0  0.085842  0.305188  0  4.004453  0
C  C48  1  0.11625163  0.80434848  0.40476221  1  0  -0.212909  0  3.730324  0  0  -0.235856  0  3.984667  0  0  -0.244954  0  4.004815  0  -0.028389  0  -0.115197  -0.229647  0  3.971187  0
C  C49  1  0.38375292  0.69564536  0.90476383  1  0  -0.212956  0  3.730187  0  0  -0.23591  0  3.984588  0  0  -0.245013  0  4.004744  0  -0.028303  0  -0.115245  -0.229694  0  3.971124  0
C  C50  1  0.88372837  0.19566399  0.59523294  1  0  -0.213133  0  3.730238  0  0  -0.236095  0  3.984557  0  0  -0.245209  0  4.004718  0  -0.02812  0  -0.115246  -0.229884  0  3.971073  0
C  C51  1  0.61628090  0.30433159  0.09523348  1  0  -0.213036  0  3.730082  0  0  -0.235964  0  3.984417  0  0  -0.245094  0  4.004595  0  -0.028495  0  -0.115184  -0.229744  0  3.970952  0
C  C52  1  0.09640541  0.93170230  0.37601820  1  0  -0.013639  0  3.763852  0  0  -0.026778  0  4.013073  0  0  -0.022747  0  4.032665  0  -0.045217  0  -0.083796  -0.02917  0  3.999532  0
C  C53  1  0.40360227  0.56829154  0.87602036  1  0  -0.013554  0  3.763749  0  0  -0.026747  0  4.013021  0  0  -0.022707  0  4.032606  0  -0.044742  0  -0.083782  -0.029126  0  3.999546  0
C  C54  1  0.90356974  0.06830915  0.62397964  1  0  -0.013772  0  3.763467  0  0  -0.026871  0  4.0127  0  0  -0.02283  0  4.032283  0  -0.045251  0  -0.083891  -0.029261  0  3.999159  0
C  C55  1  0.59645032  0.43168542  0.12398180  1  0  -0.013815  0  3.763806  0  0  -0.026922  0  4.013061  0  0  -0.022887  0  4.032654  0  -0.045721  0  -0.083931  -0.029307  0  3.999591  0
C  C56  1  0.92005238  0.99997594  0.39098885  1  0  -0.097646  0  3.791018  0  0  -0.118825  0  4.05103  0  0  -0.124912  0  4.073403  0  0.003427  0  -0.106042  -0.114938  0  4.035927  0
C  C57  1  0.57996062  0.50001790  0.89099262  1  0  -0.097882  0  3.791067  0  0  -0.119071  0  4.051113  0  0  -0.125141  0  4.073465  0  0.003999  0  -0.106159  -0.115152  0  4.036068  0
C  C58  1  0.07994969  0.00003754  0.60901061  1  0  -0.097543  0  3.791072  0  0  -0.118754  0  4.051016  0  0  -0.124838  0  4.073384  0  0.003045  0  -0.106021  -0.114865  0  4.035913  0
C  C59  1  0.42008323  0.49996311  0.10901869  1  0  -0.097195  0  3.79031  0  0  -0.1184  0  4.050228  0  0  -0.124489  0  4.072603  0  0.003955  0  -0.105736  -0.114484  0  4.035187  0
C  C60  1  0.76377827  0.93723400  0.43452039  1  0  -0.077066  0  3.762409  0  0  -0.095823  0  4.012417  0  0  -0.093556  0  4.034786  0  -0.059638  0  -0.085775  -0.09694  0  3.997374  0
C  C61  1  0.73621692  0.56276593  0.93451823  1  0  -0.076947  0  3.762589  0  0  -0.095656  0  4.01257  0  0  -0.093385  0  4.034934  0  -0.059711  0  -0.085693  -0.096765  0  3.997563  0
C  C62  1  0.23619391  0.06277847  0.56548069  1  0  -0.076956  0  3.762622  0  0  -0.095634  0  4.012663  0  0  -0.09336  0  4.035022  0  -0.059265  0  -0.085646  -0.096749  0  3.997624  0
C  C63  1  0.26380540  0.43722726  0.06548554  1  0  -0.077176  0  3.761915  0  0  -0.095925  0  4.01197  0  0  -0.093656  0  4.034338  0  -0.058956  0  -0.085761  -0.097041  0  3.996964  0
C  C64  1  0.77838182  0.80769165  0.46531696  1  0  -0.081288  0  3.795945  0  0  -0.066988  0  4.034159  0  0  -0.079236  0  4.061876  0  -0.03224  0  -0.027706  -0.059155  0  4.015961  0
C  C65  1  0.72160382  0.69230727  0.96531696  1  0  -0.081202  0  3.795622  0  0  -0.06699  0  4.033948  0  0  -0.07925  0  4.061674  0  -0.032227  0  -0.027661  -0.059136  0  4.015756  0
C  C66  1  0.22158146  0.19232387  0.53468789  1  0  -0.08124  0  3.795625  0  0  -0.06715  0  4.034056  0  0  -0.07941  0  4.061772  0  -0.032379  0  -0.027805  -0.059325  0  4.015867  0
C  C67  1  0.27839250  0.30767983  0.03468896  1  0  -0.081346  0  3.795589  0  0  -0.067067  0  4.033831  0  0  -0.079325  0  4.061549  0  -0.032426  0  -0.027672  -0.059214  0  4.015645  0
C  C68  1  0.60710033  0.75541447  0.51033123  1  0  0.122409  0  3.668237  0  0  0.080641  0  3.935179  0  0  0.097813  0  3.942964  0  0.563469  0  0.068509  0.069231  0  3.93032  0
C  C69  1  0.89288158  0.74459053  0.01033500  1  0  0.122621  0  3.66773  0  0  0.080864  0  3.934657  0  0  0.098048  0  3.942428  0  0.563712  0  0.068653  0.069461  0  3.929824  0
C  C70  1  0.39284751  0.24461220  0.48966554  1  0  0.122573  0  3.667746  0  0  0.080882  0  3.934699  0  0  0.09806  0  3.942481  0  0.564369  0  0.068712  0.069486  0  3.929842  0
C  C71  1  0.10712131  0.25539860  0.98967361  1  0  0.122415  0  3.668251  0  0  0.080668  0  3.935204  0  0  0.097857  0  3.94297  0  0.563688  0  0.068583  0.069265  0  3.930369  0
C  C72  1  0.45248949  0.49097055  0.62571390  1  0  0.476124  0  3.866201  0  0  0.433393  0  4.154711  0  0  0.462417  0  4.158156  0  1.248064  0  0.209968  0.41369  0  4.151992  0
C  C73  1  0.04749305  0.00902807  0.12572090  1  0  0.476087  0  3.865691  0  0  0.433502  0  4.154046  0  0  0.462524  0  4.157486  0  1.247409  0  0.210075  0.413811  0  4.151331  0
C  C74  1  0.54749175  0.50903988  0.37427371  1  0  0.475615  0  3.865845  0  0  0.433  0  4.154297  0  0  0.462019  0  4.157742  0  1.248381  0  0.209803  0.413293  0  4.15156  0
C  C75  1  0.95249128  0.99097222  0.87428233  1  0  0.476126  0  3.866161  0  0  0.433402  0  4.154703  0  0  0.462419  0  4.158134  0  1.247895  0  0.209974  0.413714  0  4.151986  0
C  C76  1  0.29271680  0.44303392  0.67890343  1  0  -0.176308  0  3.773202  0  0  -0.15569  0  4.004319  0  0  -0.168704  0  4.029794  0  -0.018247  0  -0.031212  -0.147157  0  3.987187  0
C  C77  1  0.20729923  0.05696877  0.17891636  1  0  -0.176353  0  3.772885  0  0  -0.155845  0  4.003987  0  0  -0.168867  0  4.02948  0  -0.019014  0  -0.031247  -0.147307  0  3.986832  0
C  C78  1  0.70730247  0.55697956  0.32108149  1  0  -0.175989  0  3.772524  0  0  -0.155462  0  4.00368  0  0  -0.16848  0  4.029165  0  -0.018799  0  -0.031175  -0.146932  0  3.986538  0
C  C79  1  0.79271438  0.94303863  0.82109280  1  0  -0.176433  0  3.773125  0  0  -0.155802  0  4.004294  0  0  -0.168823  0  4.029778  0  -0.018464  0  -0.031145  -0.147261  0  3.987138  0
C  C80  1  0.32392485  0.32980662  0.72186083  1  0  -0.041655  0  3.729719  0  0  -0.06462  0  3.976065  0  0  -0.060987  0  3.995267  0  -0.093033  0  -0.082363  -0.066867  0  3.962855  0
C  C81  1  0.17607220  0.17018490  0.22186568  1  0  -0.041561  0  3.730092  0  0  -0.064573  0  3.976383  0  0  -0.060938  0  3.995573  0  -0.093267  0  -0.082317  -0.066787  0  3.963188  0
C  C82  1  0.67609157  0.67019875  0.27813055  1  0  -0.041678  0  3.730344  0  0  -0.064625  0  3.976654  0  0  -0.060988  0  3.99585  0  -0.093382  0  -0.082406  -0.066874  0  3.963445  0
C  C83  1  0.82393118  0.82980727  0.77813594  1  0  -0.041726  0  3.729629  0  0  -0.064716  0  3.975929  0  0  -0.061079  0  3.995118  0  -0.09284  0  -0.082382  -0.066916  0  3.962747  0
C  C84  1  0.17707865  0.28271820  0.77333064  1  0  -0.106565  0  3.781527  0  0  -0.123571  0  4.042165  0  0  -0.12962  0  4.064527  0  0.025198  0  -0.107281  -0.119647  0  4.027105  0
C  C85  1  0.32289859  0.21728651  0.27333333  1  0  -0.106738  0  3.781498  0  0  -0.123705  0  4.042221  0  0  -0.129728  0  4.064596  0  0.025752  0  -0.107366  -0.119767  0  4.027212  0
C  C86  1  0.82292810  0.71729528  0.22666613  1  0  -0.106672  0  3.781477  0  0  -0.123665  0  4.042265  0  0  -0.129715  0  4.064612  0  0.025542  0  -0.107366  -0.119742  0  4.0272  0
C  C87  1  0.67707327  0.78272393  0.72666505  1  0  -0.106595  0  3.781451  0  0  -0.123593  0  4.042154  0  0  -0.129621  0  4.064517  0  0.024938  0  -0.107305  -0.119653  0  4.027143  0
C  C88  1  0.99555314  0.34879215  0.78265956  1  0  -0.029864  0  3.770539  0  0  -0.045464  0  4.021996  0  0  -0.042844  0  4.041069  0  -0.057907  0  -0.088468  -0.04682  0  4.008682  0
C  C89  1  0.50443047  0.15119937  0.28266440  1  0  -0.029828  0  3.770173  0  0  -0.045317  0  4.021602  0  0  -0.042699  0  4.040661  0  -0.057713  0  -0.088276  -0.046655  0  4.008358  0
C  C90  1  0.00445682  0.65120205  0.21733775  1  0  -0.029757  0  3.770156  0  0  -0.045271  0  4.021571  0  0  -0.042655  0  4.040649  0  -0.057986  0  -0.088402  -0.04663  0  4.008264  0
C  C91  1  0.49555780  0.84880599  0.71733506  1  0  -0.029921  0  3.770837  0  0  -0.045451  0  4.022222  0  0  -0.04284  0  4.041292  0  -0.057802  0  -0.088408  -0.046789  0  4.008978  0
C  C92  1  0.96103853  0.46128994  0.74127377  1  0  -0.189817  0  3.726851  0  0  -0.207717  0  3.97717  0  0  -0.214674  0  3.996431  0  -0.019095  0  -0.105231  -0.203163  0  3.964172  0
C  C93  1  0.53897543  0.03870564  0.24127538  1  0  -0.18996  0  3.727192  0  0  -0.207996  0  3.977482  0  0  -0.214959  0  3.996745  0  -0.019254  0  -0.105413  -0.203433  0  3.964502  0
C  C94  1  0.03898880  0.53870528  0.25872570  1  0  -0.18987  0  3.726918  0  0  -0.20794  0  3.977368  0  0  -0.214909  0  3.996638  0  -0.019618  0  -0.105359  -0.203379  0  3.964356  0
C  C95  1  0.46103096  0.96129566  0.75872785  1  0  -0.189917  0  3.726825  0  0  -0.207773  0  3.977154  0  0  -0.214744  0  3.996431  0  -0.01959  0  -0.105272  -0.20321  0  3.964177  0
C  C96  1  0.10809488  0.50909670  0.68891366  1  0  0.323475  0  3.768075  0  0  0.310389  0  4.025797  0  0  0.323889  0  4.040606  0  0.505694  0  0.087483  0.301127  0  4.015716  0
C  C97  1  0.39192435  0.99089105  0.18892067  1  0  0.323373  0  3.768487  0  0  0.310483  0  4.026004  0  0  0.323981  0  4.040814  0  0.506347  0  0.087487  0.301229  0  4.015937  0
C  C98  1  0.89193336  0.49089446  0.31107987  1  0  0.323356  0  3.768019  0  0  0.310388  0  4.025712  0  0  0.323884  0  4.040519  0  0.506412  0  0.087478  0.301125  0  4.01563  0
C  C99  1  0.60808858  0.00910214  0.81108418  1  0  0.323504  0  3.767936  0  0  0.310387  0  4.025717  0  0  0.323884  0  4.040524  0  0.505809  0  0.087405  0.301135  0  4.015648  0
N  N100  1  0.59983992  0.64330427  0.54726127  1  0  -0.179274  0  3.452153  0  0  -0.139821  0  3.785258  0  0  -0.150093  0  3.793123  0  -0.825289  0  -0.279553  -0.134068  0  3.780883  0
N  N101  1  0.90011684  0.85670986  0.04725750  1  0  -0.179676  0  3.451789  0  0  -0.140191  0  3.784928  0  0  -0.150477  0  3.792776  0  -0.825197  0  -0.279915  -0.134478  0  3.780613  0
N  N102  1  0.40009340  0.35672950  0.45273927  1  0  -0.1799  0  3.451725  0  0  -0.140476  0  3.784962  0  0  -0.150797  0  3.792808  0  -0.825556  0  -0.280046  -0.134798  0  3.780657  0
N  N103  1  0.09986171  0.14329347  0.95274142  1  0  -0.179301  0  3.451999  0  0  -0.139942  0  3.785215  0  0  -0.150232  0  3.793052  0  -0.824894  0  -0.279755  -0.134237  0  3.780894  0
N  N104  1  0.42746074  0.60468588  0.58918619  1  0  -0.411772  0  3.107898  0  0  -0.377823  0  3.404766  0  0  -0.398451  0  3.416823  0  -0.800504  0  -0.264785  -0.364016  0  3.396953  0
N  N105  1  0.07258191  0.89529172  0.08918727  1  0  -0.411839  0  3.106673  0  0  -0.377908  0  3.403379  0  0  -0.398536  0  3.41542  0  -0.800112  0  -0.264668  -0.364074  0  3.395574  0
N  N106  1  0.57257549  0.39530629  0.41080627  1  0  -0.411513  0  3.106324  0  0  -0.377514  0  3.402984  0  0  -0.398141  0  3.415024  0  -0.800852  0  -0.264545  -0.363694  0  3.395171  0
N  N107  1  0.92746626  0.10467711  0.91081435  1  0  -0.411677  0  3.10775  0  0  -0.377725  0  3.404657  0  0  -0.398354  0  3.416703  0  -0.801072  0  -0.264697  -0.363899  0  3.396862  0
O  O108  1  0.98374641  0.61412792  0.47548500  1  0  -0.575137  0  2.248884  0  0  -0.521092  0  2.572022  0  0  -0.54282  0  2.554154  0  -1.05937  0  -0.343718  -0.506227  0  2.584366  0
O  O109  1  0.51623794  0.88586288  0.97548662  1  0  -0.575023  0  2.249024  0  0  -0.520947  0  2.572099  0  0  -0.542649  0  2.554201  0  -1.059346  0  -0.343651  -0.506109  0  2.584483  0
O  O110  1  0.01623844  0.38588556  0.52450315  1  0  -0.57483  0  2.248977  0  0  -0.520881  0  2.572212  0  0  -0.542594  0  2.5543  0  -1.05879  0  -0.343688  -0.506025  0  2.584555  0
O  O111  1  0.48374562  0.11410291  0.02450908  1  0  -0.575155  0  2.248594  0  0  -0.521189  0  2.571859  0  0  -0.542857  0  2.553858  0  -1.058823  0  -0.343819  -0.506351  0  2.584236  0
O  O112  1  0.61463311  0.42373893  0.61679377  1  0  -0.571901  0  2.126573  0  0  -0.516476  0  2.408931  0  0  -0.54533  0  2.399037  0  -1.10397  0  -0.317168  -0.496666  0  2.415064  0
O  O113  1  0.88534957  0.07625665  0.11680293  1  0  -0.571789  0  2.126663  0  0  -0.516383  0  2.408895  0  0  -0.545246  0  2.399026  0  -1.103927  0  -0.317242  -0.496615  0  2.415059  0
O  O114  1  0.38533751  0.57627354  0.38320299  1  0  -0.571535  0  2.126421  0  0  -0.516202  0  2.408722  0  0  -0.545089  0  2.39885  0  -1.104244  0  -0.3171  -0.496431  0  2.414863  0
O  O115  1  0.11464944  0.92373755  0.88320730  1  0  -0.571917  0  2.12636  0  0  -0.516486  0  2.408606  0  0  -0.545336  0  2.398708  0  -1.103734  0  -0.317232  -0.496698  0  2.414751  0
O  O116  1  0.06620556  0.61681868  0.64772338  1  0  -0.529067  0  2.15762  0  0  -0.485922  0  2.403182  0  0  -0.504167  0  2.389639  0  -1.173831  0  -0.350486  -0.473058  0  2.412283  0
O  O117  1  0.43378728  0.88318023  0.14772984  1  0  -0.529102  0  2.158057  0  0  -0.486067  0  2.403584  0  0  -0.504305  0  2.39004  0  -1.174063  0  -0.350573  -0.473209  0  2.412704  0
O  O118  1  0.93377937  0.38317552  0.35227070  1  0  -0.529073  0  2.157972  0  0  -0.485968  0  2.403479  0  0  -0.5042  0  2.389926  0  -1.173979  0  -0.350514  -0.473116  0  2.412585  0
O  O119  1  0.56620395  0.11682412  0.85227931  1  0  -0.529063  0  2.157471  0  0  -0.485911  0  2.403044  0  0  -0.504141  0  2.389492  0  -1.173682  0  -0.350444  -0.473041  0  2.41215  0
