# generated using pymatgen
data_CdH42C34S2(N4O3)2
_symmetry_space_group_name_H-M   'P 1'
_cell_length_a   8.32597756
_cell_length_b   9.55581383
_cell_length_c   11.70562532
_cell_angle_alpha   98.07308138
_cell_angle_beta   98.11862847
_cell_angle_gamma   104.94879119
_symmetry_Int_Tables_number   1
_chemical_formula_structural   CdH42C34S2(N4O3)2
_chemical_formula_sum   'Cd1 H42 C34 S2 N8 O6'
_cell_volume   875.41849791
_cell_formula_units_Z   1
loop_
 _symmetry_equiv_pos_site_id
 _symmetry_equiv_pos_as_xyz
  1  'x, y, z'
loop_
 _atom_site_type_symbol
 _atom_site_label
 _atom_site_symmetry_multiplicity
 _atom_site_fract_x
 _atom_site_fract_y
 _atom_site_fract_z
 _atom_site_occupancy
 _atom_site_hle17_bader_spin_density
 _atom_site_hle17_ddec_charge
 _atom_site_hle17_ddec_spin_density
 _atom_site_hle17_ddec_sum_bond_order
 _atom_site_hle17_magmom
 _atom_site_hse06_10hf_bader_spin_density
 _atom_site_hse06_10hf_ddec_charge
 _atom_site_hse06_10hf_ddec_spin_density
 _atom_site_hse06_10hf_ddec_sum_bond_order
 _atom_site_hse06_10hf_magmom
 _atom_site_hse06_bader_spin_density
 _atom_site_hse06_ddec_charge
 _atom_site_hse06_ddec_spin_density
 _atom_site_hse06_ddec_sum_bond_order
 _atom_site_hse06_magmom
 _atom_site_pbe_bader_spin_density
 _atom_site_pbe_cm5_charge
 _atom_site_pbe_ddec_charge
 _atom_site_pbe_ddec_spin_density
 _atom_site_pbe_ddec_sum_bond_order
 _atom_site_pbe_magmom
Cd  Cd0  1  0.49999870  0.50000105  0.49999994  1  0  1.075167  0  1.785656  0  0  0.875568  0  2.235917  0  0  0.923663  0  2.193841  0  0  0.796999  0.842083  0  2.264457  0
H  H1  1  0.46373338  0.55180367  0.80695728  1  0  0.099568  0  0.98465  0  0  0.105594  0  1.054079  0  0  0.109024  0  1.0497  0  0  0.128689  0.102893  0  1.057634  0
H  H2  1  0.53627102  0.44820496  0.19304922  1  0  0.099528  0  0.984842  0  0  0.105647  0  1.054162  0  0  0.109111  0  1.049738  0  0  0.128695  0.102934  0  1.057731  0
H  H3  1  0.93050274  0.43592835  0.69778958  1  0  0.119178  0  0.978165  0  0  0.125497  0  1.044826  0  0  0.127986  0  1.044414  0  0  0.121574  0.123557  0  1.045575  0
H  H4  1  0.06950246  0.56407152  0.30221333  1  0  0.119231  0  0.97805  0  0  0.125518  0  1.044782  0  0  0.128006  0  1.044371  0  0  0.121578  0.123588  0  1.045499  0
H  H5  1  0.08503554  0.41006000  0.50270390  1  0  0.101436  0  0.974131  0  0  0.108696  0  1.041169  0  0  0.111099  0  1.04003  0  0  0.113365  0.107065  0  1.041818  0
H  H6  1  0.91497397  0.58993432  0.49730213  1  0  0.101422  0  0.973988  0  0  0.108737  0  1.04096  0  0  0.111145  0  1.039813  0  0  0.113291  0.107103  0  1.041614  0
H  H7  1  0.33464642  0.77498074  0.60029738  1  0  0.097436  0  0.950535  0  0  0.105158  0  1.0186  0  0  0.107215  0  1.016303  0  0  0.134133  0.103588  0  1.020345  0
H  H8  1  0.66534505  0.22501806  0.39969980  1  0  0.097486  0  0.950499  0  0  0.105187  0  1.018585  0  0  0.107244  0  1.016284  0  0  0.134119  0.103616  0  1.02033  0
H  H9  1  0.32316314  0.92885160  0.27892516  1  0  0.123621  0  0.994464  0  0  0.130195  0  1.061086  0  0  0.133328  0  1.059041  0  0  0.118298  0.127863  0  1.062743  0
H  H10  1  0.67683128  0.07114497  0.72107458  1  0  0.123695  0  0.994265  0  0  0.130298  0  1.060863  0  0  0.13343  0  1.058816  0  0  0.118303  0.127964  0  1.06252  0
H  H11  1  0.43104467  0.67246551  0.25951600  1  0  0.09476  0  0.975467  0  0  0.103611  0  1.039431  0  0  0.105532  0  1.038938  0  0  0.112487  0.102032  0  1.040279  0
H  H12  1  0.56895329  0.32754209  0.74048462  1  0  0.094747  0  0.975239  0  0  0.103606  0  1.039211  0  0  0.105529  0  1.038716  0  0  0.112481  0.102028  0  1.040056  0
H  H13  1  0.21251467  0.66166140  0.93369107  1  0  0.067433  0  0.930553  0  0  0.085663  0  0.992054  0  0  0.084965  0  0.993893  0  0  0.107931  0.086184  0  0.990501  0
H  H14  1  0.78748188  0.33834170  0.06631398  1  0  0.067445  0  0.930572  0  0  0.085699  0  0.992042  0  0  0.085002  0  0.993881  0  0  0.10796  0.08622  0  0.990488  0
H  H15  1  0.27054092  0.50287683  0.96561731  1  0  0.075429  0  0.911842  0  0  0.094698  0  0.96904  0  0  0.09505  0  0.968962  0  0  0.112463  0.094454  0  0.968874  0
H  H16  1  0.72946242  0.49712852  0.03438697  1  0  0.075403  0  0.911811  0  0  0.094682  0  0.969015  0  0  0.095035  0  0.968937  0  0  0.112461  0.094438  0  0.968848  0
H  H17  1  0.96439987  0.35566326  0.91099753  1  0  0.069287  0  0.935381  0  0  0.088606  0  0.995157  0  0  0.089009  0  0.996217  0  0  0.092702  0.088269  0  0.994393  0
H  H18  1  0.03560654  0.64433666  0.08900293  1  0  0.069301  0  0.935339  0  0  0.08862  0  0.995118  0  0  0.089024  0  0.996177  0  0  0.092715  0.088286  0  0.994349  0
H  H19  1  0.90888287  0.51638338  0.88158248  1  0  0.086059  0  0.967082  0  0  0.102009  0  1.029676  0  0  0.103537  0  1.02941  0  0  0.093132  0.100867  0  1.029955  0
H  H20  1  0.09111762  0.48361319  0.11841870  1  0  0.086019  0  0.967053  0  0  0.101971  0  1.029649  0  0  0.103498  0  1.029384  0  0  0.09312  0.100829  0  1.02993  0
H  H21  1  0.99100694  0.90571964  0.37998656  1  0  0.071161  0  0.937283  0  0  0.088527  0  0.998535  0  0  0.088504  0  1.000847  0  0  0.089575  0.088545  0  0.996841  0
H  H22  1  0.00898526  0.09428124  0.62001865  1  0  0.07113  0  0.937248  0  0  0.088493  0  0.99851  0  0  0.088466  0  1.000822  0  0  0.089557  0.088513  0  0.996819  0
H  H23  1  0.99918426  0.84319430  0.51529033  1  0  0.068879  0  0.958678  0  0  0.086012  0  1.023675  0  0  0.086266  0  1.024889  0  0  0.089117  0.085813  0  1.022711  0
H  H24  1  0.00081437  0.15680768  0.48471649  1  0  0.068939  0  0.95867  0  0  0.086075  0  1.023642  0  0  0.086329  0  1.024854  0  0  0.089143  0.085872  0  1.022681  0
H  H25  1  0.27442670  0.09275475  0.45709366  1  0  0.090731  0  0.934743  0  0  0.104367  0  0.998104  0  0  0.105643  0  0.997483  0  0  0.110788  0.103323  0  0.998717  0
H  H26  1  0.72556477  0.90724407  0.54290267  1  0  0.090756  0  0.934647  0  0  0.104365  0  0.99805  0  0  0.105639  0  0.997425  0  0  0.110802  0.103326  0  0.998667  0
H  H27  1  0.28196265  0.02976554  0.59275294  1  0  0.070422  0  0.935749  0  0  0.08497  0  1.001121  0  0  0.084933  0  1.002774  0  0  0.106463  0.084759  0  1.000241  0
H  H28  1  0.71804238  0.97023774  0.40724440  1  0  0.070348  0  0.935763  0  0  0.084921  0  1.001119  0  0  0.084881  0  1.002771  0  0  0.106453  0.084698  0  1.000256  0
H  H29  1  0.92944965  0.27242366  0.27976573  1  0  0.085284  0  0.979938  0  0  0.093223  0  1.049796  0  0  0.096048  0  1.048541  0  0  0.097618  0.091388  0  1.050143  0
H  H30  1  0.07054701  0.72757637  0.72022613  1  0  0.085235  0  0.979849  0  0  0.093135  0  1.049779  0  0  0.095958  0  1.048525  0  0  0.097592  0.091287  0  1.050139  0
H  H31  1  0.63652957  0.10744067  0.20291679  1  0  0.1059  0  0.972548  0  0  0.115814  0  1.036524  0  0  0.119168  0  1.03478  0  0  0.098845  0.113262  0  1.038143  0
H  H32  1  0.36346811  0.89255493  0.79707630  1  0  0.105873  0  0.972644  0  0  0.115791  0  1.036611  0  0  0.119144  0  1.034869  0  0  0.098818  0.11324  0  1.038231  0
H  H33  1  0.84132296  0.77698617  0.04081639  1  0  0.101943  0  0.966833  0  0  0.111984  0  1.028879  0  0  0.115128  0  1.027794  0  0  0.099102  0.110152  0  1.028772  0
H  H34  1  0.15868359  0.22301045  0.95918367  1  0  0.101979  0  0.966794  0  0  0.112016  0  1.028845  0  0  0.115159  0  1.027761  0  0  0.099118  0.110183  0  1.028737  0
H  H35  1  0.13327794  0.94254189  0.11582255  1  0  0.093159  0  0.959305  0  0  0.103779  0  1.020686  0  0  0.106821  0  1.018982  0  0  0.102658  0.101475  0  1.022259  0
H  H36  1  0.86672654  0.05745579  0.88417915  1  0  0.093155  0  0.959322  0  0  0.103774  0  1.020704  0  0  0.106813  0  1.019002  0  0  0.102669  0.10147  0  1.022275  0
H  H37  1  0.44657406  0.88260946  0.08956008  1  0  0.11189  0  0.946768  0  0  0.1359  0  1.002196  0  0  0.137506  0  1.001942  0  0  0.092127  0.134735  0  1.00243  0
H  H38  1  0.55342728  0.11738611  0.91043592  1  0  0.111832  0  0.946881  0  0  0.135849  0  1.002308  0  0  0.137456  0  1.002054  0  0  0.0921  0.134684  0  1.002541  0
H  H39  1  0.52321446  0.72483682  0.09248253  1  0  0.096461  0  0.956202  0  0  0.117487  0  1.021101  0  0  0.118936  0  1.020531  0  0  0.086585  0.11634  0  1.021615  0
H  H40  1  0.47678443  0.27515877  0.90751154  1  0  0.096493  0  0.956126  0  0  0.117515  0  1.021019  0  0  0.118965  0  1.020447  0  0  0.086594  0.116367  0  1.021531  0
H  H41  1  0.52863171  0.81117792  0.96845445  1  0  0.119377  0  0.958841  0  0  0.137271  0  1.027397  0  0  0.138928  0  1.027093  0  0  0.092841  0.135924  0  1.02789  0
H  H42  1  0.47137033  0.18881987  0.03154106  1  0  0.119463  0  0.958838  0  0  0.13735  0  1.027392  0  0  0.139007  0  1.027087  0  0  0.092893  0.136002  0  1.027883  0
C  C43  1  0.34017714  0.51330827  0.74974705  1  0  0.144072  0  3.665952  0  0  0.082795  0  3.93122  0  0  0.095777  0  3.944081  0  0  0.130643  0.074359  0  3.922324  0
C  C44  1  0.65982620  0.48669706  0.25025893  1  0  0.143927  0  3.666295  0  0  0.082566  0  3.931562  0  0  0.095525  0  3.944403  0  0  0.130499  0.074136  0  3.922668  0
C  C45  1  0.06248984  0.45537465  0.69082676  1  0  -0.072036  0  3.670226  0  0  -0.109948  0  3.927521  0  0  -0.108575  0  3.946005  0  0  -0.002211  -0.11076  0  3.914735  0
C  C46  1  0.93751209  0.54462624  0.30918023  1  0  -0.072122  0  3.670323  0  0  -0.110036  0  3.927629  0  0  -0.108661  0  3.946114  0  0  -0.002256  -0.110846  0  3.914858  0
C  C47  1  0.14025202  0.44323569  0.59522662  1  0  -0.007866  0  3.770217  0  0  -0.041698  0  4.038714  0  0  -0.039403  0  4.058001  0  0  -0.008517  -0.043154  0  4.025386  0
C  C48  1  0.85975575  0.55676091  0.40477441  1  0  -0.007817  0  3.770251  0  0  -0.041683  0  4.038695  0  0  -0.039389  0  4.057983  0  0  -0.008424  -0.043139  0  4.025371  0
C  C49  1  0.34257395  0.77745694  0.50900749  1  0  0.160357  0  3.654868  0  0  0.099962  0  3.922587  0  0  0.113747  0  3.935603  0  0  0.139032  0.091141  0  3.913414  0
C  C50  1  0.65741824  0.22254409  0.49098918  1  0  0.16033  0  3.654579  0  0  0.099915  0  3.922358  0  0  0.113708  0  3.935364  0  0  0.139029  0.091095  0  3.913181  0
C  C51  1  0.33727359  0.85466468  0.33933409  1  0  -0.077474  0  3.666761  0  0  -0.118169  0  3.927044  0  0  -0.117058  0  3.945956  0  0  -0.002032  -0.118776  0  3.914531  0
C  C52  1  0.66271399  0.14534848  0.66066197  1  0  -0.077496  0  3.667315  0  0  -0.118221  0  3.927563  0  0  -0.117109  0  3.946481  0  0  -0.002034  -0.118826  0  3.915044  0
C  C53  1  0.39290387  0.73052115  0.33244683  1  0  -0.009196  0  3.778123  0  0  -0.041463  0  4.045895  0  0  -0.039642  0  4.066272  0  0  -0.008969  -0.042884  0  4.032602  0
C  C54  1  0.60709604  0.26947002  0.66754763  1  0  -0.009239  0  3.778629  0  0  -0.041521  0  4.046433  0  0  -0.039704  0  4.066815  0  0  -0.008998  -0.04294  0  4.033135  0
C  C55  1  0.17728180  0.54054496  0.91103776  1  0  0.0138  0  3.631753  0  0  -0.051132  0  3.89386  0  0  -0.046294  0  3.905674  0  0  -0.048609  -0.053855  0  3.884386  0
C  C56  1  0.82271561  0.45945709  0.08896468  1  0  0.013877  0  3.631662  0  0  -0.051098  0  3.893836  0  0  -0.046268  0  3.905662  0  0  -0.048625  -0.053825  0  3.884369  0
C  C57  1  0.00133437  0.47674759  0.93511383  1  0  -0.132305  0  3.686392  0  0  -0.173331  0  3.94746  0  0  -0.17484  0  3.960394  0  0  -0.165303  -0.172099  0  3.938147  0
C  C58  1  0.99866368  0.52324900  0.06488541  1  0  -0.132225  0  3.686189  0  0  -0.173225  0  3.947243  0  0  -0.174735  0  3.96018  0  0  -0.165269  -0.171997  0  3.93794  0
C  C59  1  0.03851389  0.94089820  0.47521844  1  0  -0.126481  0  3.689166  0  0  -0.165294  0  3.944168  0  0  -0.167198  0  3.959141  0  0  -0.166477  -0.163809  0  3.933722  0
C  C60  1  0.96148181  0.05910601  0.52478667  1  0  -0.126437  0  3.689202  0  0  -0.165233  0  3.94421  0  0  -0.167125  0  3.959172  0  0  -0.166488  -0.163746  0  3.933771  0
C  C61  1  0.23137452  0.99662410  0.49807200  1  0  -0.000317  0  3.605423  0  0  -0.060426  0  3.859137  0  0  -0.056457  0  3.870308  0  0  -0.054191  -0.062953  0  3.851579  0
C  C62  1  0.76862737  0.00337695  0.50192561  1  0  -0.000187  0  3.60535  0  0  -0.060335  0  3.859129  0  0  -0.056361  0  3.870292  0  0  -0.05419  -0.062874  0  3.851597  0
C  C63  1  0.04854656  0.11708696  0.20163072  1  0  -0.12818  0  3.748622  0  0  -0.100445  0  3.989964  0  0  -0.108247  0  4.012472  0  0  -0.0262  -0.095565  0  3.975307  0
C  C64  1  0.95145376  0.88291299  0.79836660  1  0  -0.128105  0  3.748447  0  0  -0.100509  0  3.989981  0  0  -0.108322  0  4.012506  0  0  -0.026186  -0.095626  0  3.975318  0
C  C65  1  0.90939149  0.16346888  0.22741457  1  0  -0.062302  0  3.766365  0  0  -0.085513  0  4.016117  0  0  -0.083765  0  4.035474  0  0  -0.092588  -0.086628  0  4.002799  0
C  C66  1  0.09060726  0.83652999  0.77258076  1  0  -0.062083  0  3.766295  0  0  -0.085219  0  4.016075  0  0  -0.083466  0  4.035435  0  0  -0.092468  -0.086323  0  4.002763  0
C  C67  1  0.74586349  0.07059184  0.18506740  1  0  -0.152823  0  3.726112  0  0  -0.169569  0  3.969282  0  0  -0.174061  0  3.989618  0  0  -0.098149  -0.166748  0  3.955921  0
C  C68  1  0.25413627  0.92940260  0.81492917  1  0  -0.152927  0  3.726397  0  0  -0.169652  0  3.969552  0  0  -0.174144  0  3.989886  0  0  -0.098187  -0.16683  0  3.956189  0
C  C69  1  0.71925298  0.93029866  0.11742400  1  0  0.156763  0  3.742794  0  0  0.184501  0  3.972465  0  0  0.187054  0  3.996188  0  0  -0.005577  0.182874  0  3.956247  0
C  C70  1  0.28074957  0.06969689  0.88257298  1  0  0.156795  0  3.74295  0  0  0.184469  0  3.972703  0  0  0.187022  0  3.996425  0  0  -0.005605  0.182841  0  3.956482  0
C  C71  1  0.86066619  0.88413443  0.09578856  1  0  -0.130785  0  3.719999  0  0  -0.150443  0  3.967253  0  0  -0.154771  0  3.987855  0  0  -0.09554  -0.147492  0  3.952503  0
C  C72  1  0.13933794  0.11586220  0.90421041  1  0  -0.130797  0  3.720155  0  0  -0.150425  0  3.96741  0  0  -0.154751  0  3.98801  0  0  -0.095528  -0.147474  0  3.952662  0
C  C73  1  0.02414371  0.97662468  0.13674712  1  0  -0.068783  0  3.798228  0  0  -0.093002  0  4.049597  0  0  -0.091909  0  4.070107  0  0  -0.089408  -0.09392  0  4.036323  0
C  C74  1  0.97585870  0.02337413  0.86325281  1  0  -0.068908  0  3.798217  0  0  -0.093085  0  4.049632  0  0  -0.091985  0  4.070143  0  0  -0.08946  -0.094002  0  4.036355  0
C  C75  1  0.54422795  0.83243689  0.06479261  1  0  -0.340352  0  3.723149  0  0  -0.421954  0  3.957215  0  0  -0.424515  0  3.966438  0  0  -0.239906  -0.41991  0  3.950904  0
C  C76  1  0.45577495  0.16755977  0.93520369  1  0  -0.340432  0  3.723209  0  0  -0.42201  0  3.957282  0  0  -0.424574  0  3.966506  0  0  -0.239943  -0.419972  0  3.950985  0
S  S77  1  0.25650350  0.24109331  0.24422132  1  0  1.293166  0  5.665243  0  0  1.197587  0  6.186326  0  0  1.245692  0  6.162023  0  0  0.501665  1.164571  0  6.20194  0
S  S78  1  0.74349719  0.75890771  0.75577788  1  0  1.29325  0  5.66506  0  0  1.1977  0  6.186164  0  0  1.245809  0  6.161851  0  0  0.501677  1.164684  0  6.201772  0
N  N79  1  0.31292965  0.47962927  0.63293350  1  0  -0.3794  0  3.23184  0  0  -0.304272  0  3.511897  0  0  -0.323747  0  3.528842  0  0  -0.358533  -0.290891  0  3.500052  0
N  N80  1  0.68707470  0.52037164  0.36707288  1  0  -0.3792  0  3.231825  0  0  -0.304059  0  3.51188  0  0  -0.323538  0  3.528841  0  0  -0.358428  -0.290675  0  3.500027  0
N  N81  1  0.19142489  0.49956236  0.78828197  1  0  -0.06908  0  3.566367  0  0  0.027083  0  3.785007  0  0  0.011975  0  3.811981  0  0  -0.24446  0.037389  0  3.765263  0
N  N82  1  0.80857687  0.50044191  0.21172116  1  0  -0.069113  0  3.566255  0  0  0.027059  0  3.784916  0  0  0.011951  0  3.811898  0  0  -0.244434  0.037366  0  3.765176  0
N  N83  1  0.39555372  0.68359827  0.43882633  1  0  -0.390074  0  3.268419  0  0  -0.314688  0  3.551593  0  0  -0.334976  0  3.568896  0  0  -0.362659  -0.300936  0  3.539576  0
N  N84  1  0.60444090  0.31640272  0.56117314  1  0  -0.390024  0  3.26825  0  0  -0.314618  0  3.551398  0  0  -0.334909  0  3.568702  0  0  -0.362681  -0.300866  0  3.539382  0
N  N85  1  0.30619467  0.88277429  0.45198738  1  0  -0.053928  0  3.567748  0  0  0.040571  0  3.785188  0  0  0.026076  0  3.811821  0  0  -0.241707  0.050084  0  3.767027  0
N  N86  1  0.69379924  0.11722447  0.54801259  1  0  -0.054068  0  3.56769  0  0  0.040469  0  3.785133  0  0  0.025972  0  3.811763  0  0  -0.24166  0.049996  0  3.766961  0
O  O87  1  0.26463171  0.31008447  0.36737922  1  0  -0.696243  0  2.001929  0  0  -0.634068  0  2.27838  0  0  -0.655913  0  2.261561  0  0  -0.354458  -0.618817  0  2.289382  0
O  O88  1  0.73536482  0.68991878  0.63261815  1  0  -0.696314  0  2.001892  0  0  -0.634094  0  2.278294  0  0  -0.655939  0  2.261469  0  0  -0.354445  -0.618857  0  2.289331  0
O  O89  1  0.26866381  0.34860285  0.16485645  1  0  -0.676359  0  1.923801  0  0  -0.62648  0  2.166424  0  0  -0.64768  0  2.153381  0  0  -0.353355  -0.611573  0  2.174953  0
O  O90  1  0.73134223  0.65139601  0.83514129  1  0  -0.676379  0  1.923782  0  0  -0.626468  0  2.166361  0  0  -0.64766  0  2.153309  0  0  -0.353376  -0.611561  0  2.174893  0
O  O91  1  0.37449167  0.15144722  0.23258911  1  0  -0.681244  0  1.946124  0  0  -0.637552  0  2.204233  0  0  -0.657839  0  2.190682  0  0  -0.351485  -0.623272  0  2.213212  0
O  O92  1  0.62550989  0.84855264  0.76741345  1  0  -0.681292  0  1.946087  0  0  -0.63762  0  2.204233  0  0  -0.657908  0  2.190677  0  0  -0.351476  -0.62334  0  2.213212  0
