# generated using pymatgen
data_CaH8C7N2O9
_symmetry_space_group_name_H-M   'P 1'
_cell_length_a   7.91212044
_cell_length_b   11.06827566
_cell_length_c   13.40000000
_cell_angle_alpha   90.00000000
_cell_angle_beta   90.00000000
_cell_angle_gamma   98.55342346
_symmetry_Int_Tables_number   1
_chemical_formula_structural   CaH8C7N2O9
_chemical_formula_sum   'Ca4 H32 C28 N8 O36'
_cell_volume   1160.43334609
_cell_formula_units_Z   4
loop_
 _symmetry_equiv_pos_site_id
 _symmetry_equiv_pos_as_xyz
  1  'x, y, z'
loop_
 _atom_site_type_symbol
 _atom_site_label
 _atom_site_symmetry_multiplicity
 _atom_site_fract_x
 _atom_site_fract_y
 _atom_site_fract_z
 _atom_site_occupancy
 _atom_site_hle17_bader_spin_density
 _atom_site_hle17_ddec_charge
 _atom_site_hle17_ddec_spin_density
 _atom_site_hle17_ddec_sum_bond_order
 _atom_site_hle17_magmom
 _atom_site_hse06_10hf_bader_spin_density
 _atom_site_hse06_10hf_ddec_charge
 _atom_site_hse06_10hf_ddec_spin_density
 _atom_site_hse06_10hf_ddec_sum_bond_order
 _atom_site_hse06_10hf_magmom
 _atom_site_hse06_bader_spin_density
 _atom_site_hse06_ddec_charge
 _atom_site_hse06_ddec_spin_density
 _atom_site_hse06_ddec_sum_bond_order
 _atom_site_hse06_magmom
 _atom_site_pbe_bader_charge
 _atom_site_pbe_bader_spin_density
 _atom_site_pbe_cm5_charge
 _atom_site_pbe_ddec_charge
 _atom_site_pbe_ddec_spin_density
 _atom_site_pbe_ddec_sum_bond_order
 _atom_site_pbe_magmom
Ca  Ca0  1  0.80620715  0.54791474  0.21319701  1  0  1.514433  0  1.093557  0  0  1.359211  0  1.457192  0  0  1.40419  0  1.410558  0  1.648426  0  0.862076  1.325349  0  1.49033  0
Ca  Ca1  1  0.69379567  0.95208571  0.71319776  1  0  1.514415  0  1.093606  0  0  1.359163  0  1.457267  0  0  1.404155  0  1.410624  0  1.648437  0  0.862043  1.325303  0  1.490406  0
Ca  Ca2  1  0.19379444  0.45208617  0.78680299  1  0  1.514424  0  1.093591  0  0  1.359182  0  1.457248  0  0  1.404168  0  1.410608  0  1.648439  0  0.862058  1.325321  0  1.490381  0
Ca  Ca3  1  0.30620465  0.04791520  0.28680224  1  0  1.514457  0  1.093527  0  0  1.359228  0  1.45717  0  0  1.404217  0  1.410529  0  1.648427  0  0.862076  1.325369  0  1.490307  0
H  H4  1  0.51428618  0.28846057  0.54908358  1  0  0.120927  0  0.964623  0  0  0.124157  0  1.034103  0  0  0.12796  0  1.031562  0  0.151818  0  0.116074  0.121312  0  1.036147  0
H  H5  1  0.98571354  0.21153806  0.04908731  1  0  0.120962  0  0.9646  0  0  0.124209  0  1.034059  0  0  0.128011  0  1.031521  0  0.151886  0  0.116096  0.121386  0  1.036081  0
H  H6  1  0.48571357  0.71153760  0.45091567  1  0  0.120958  0  0.964569  0  0  0.124185  0  1.034053  0  0  0.127989  0  1.03151  0  0.15193  0  0.116091  0.121335  0  1.036102  0
H  H7  1  0.01428532  0.78846194  0.95091567  1  0  0.12096  0  0.964648  0  0  0.124189  0  1.03412  0  0  0.127992  0  1.031578  0  0.151901  0  0.116091  0.121343  0  1.036163  0
H  H8  1  0.67009640  0.42259919  0.68301269  1  0  0.113658  0  0.92985  0  0  0.123331  0  0.987545  0  0  0.126897  0  0.984893  0  0.092221  0  0.118615  0.120654  0  0.989653  0
H  H9  1  0.82990566  0.07739852  0.18301642  1  0  0.113619  0  0.92999  0  0  0.123287  0  0.987692  0  0  0.126852  0  0.98504  0  0.092671  0  0.118614  0.12063  0  0.989773  0
H  H10  1  0.32990752  0.57740081  0.31698582  1  0  0.113624  0  0.92991  0  0  0.123295  0  0.987611  0  0  0.126861  0  0.984959  0  0.092722  0  0.118624  0.120619  0  0.989717  0
H  H11  1  0.17009301  0.92260056  0.81698582  1  0  0.113637  0  0.929895  0  0  0.123306  0  0.9876  0  0  0.126873  0  0.984946  0  0.092182  0  0.118611  0.120631  0  0.989704  0
H  H12  1  0.87151432  0.60885395  0.62855149  1  0  0.113418  0  0.981601  0  0  0.117779  0  1.051232  0  0  0.121704  0  1.048868  0  0.131375  0  0.115137  0.114932  0  1.05303  0
H  H13  1  0.62848578  0.89114559  0.12855224  1  0  0.113398  0  0.981611  0  0  0.117798  0  1.051209  0  0  0.121728  0  1.048839  0  0.131328  0  0.115134  0.114953  0  1.053006  0
H  H14  1  0.12848764  0.39114879  0.37144627  1  0  0.11339  0  0.981601  0  0  0.117786  0  1.051201  0  0  0.121715  0  1.048832  0  0.131411  0  0.115123  0.11494  0  1.052999  0
H  H15  1  0.37151523  0.10885258  0.87144776  1  0  0.113405  0  0.981617  0  0  0.117768  0  1.051241  0  0  0.121693  0  1.048876  0  0.131431  0  0.115141  0.114922  0  1.05304  0
H  H16  1  0.53804414  0.28571233  0.20596045  1  0  0.411419  0  0.888929  0  0  0.376787  0  0.969361  0  0  0.391534  0  0.950975  0  0.651301  0  0.312889  0.366484  0  0.979561  0
H  H17  1  0.96196102  0.21428813  0.70596343  1  0  0.411433  0  0.888916  0  0  0.376796  0  0.969355  0  0  0.391544  0  0.950961  0  0.651277  0  0.312885  0.366493  0  0.979556  0
H  H18  1  0.46195997  0.71428858  0.79403881  1  0  0.411406  0  0.888957  0  0  0.376768  0  0.969394  0  0  0.391517  0  0.951  0  0.651274  0  0.312882  0.366465  0  0.979594  0
H  H19  1  0.03804202  0.78571370  0.29403881  1  0  0.411416  0  0.888924  0  0  0.376781  0  0.96936  0  0  0.391529  0  0.950981  0  0.651295  0  0.312892  0.366478  0  0.97956  0
H  H20  1  0.53663436  0.72191387  0.22686940  1  0  0.416047  0  0.886034  0  0  0.379868  0  0.959415  0  0  0.391296  0  0.942366  0  0.618946  0  0.29625  0.371708  0  0.971552  0
H  H21  1  0.96336574  0.77808567  0.72686940  1  0  0.416062  0  0.886016  0  0  0.379883  0  0.959395  0  0  0.391311  0  0.942347  0  0.618932  0  0.296259  0.371724  0  0.971531  0
H  H22  1  0.46336451  0.27808613  0.77313060  1  0  0.416069  0  0.886006  0  0  0.37989  0  0.959384  0  0  0.391317  0  0.942336  0  0.618946  0  0.296261  0.371731  0  0.97152  0
H  H23  1  0.03663312  0.22191432  0.27313060  1  0  0.416145  0  0.885902  0  0  0.379939  0  0.959335  0  0  0.391367  0  0.942284  0  0.618925  0  0.296277  0.371778  0  0.971473  0
H  H24  1  0.54287705  0.67107135  0.11904925  1  0  0.436623  0  0.852805  0  0  0.406971  0  0.91334  0  0  0.417816  0  0.897309  0  0.650272  0  0.305585  0.399237  0  0.924779  0
H  H25  1  0.95712323  0.82892911  0.61904776  1  0  0.436618  0  0.852804  0  0  0.406963  0  0.913345  0  0  0.417808  0  0.897313  0  0.650259  0  0.305576  0.399229  0  0.924784  0
H  H26  1  0.45712308  0.32892865  0.88095224  1  0  0.436598  0  0.852835  0  0  0.406943  0  0.913375  0  0  0.417787  0  0.897345  0  0.650257  0  0.305572  0.399208  0  0.924815  0
H  H27  1  0.04287437  0.17107089  0.38095149  1  0  0.436613  0  0.852826  0  0  0.406964  0  0.913354  0  0  0.41781  0  0.897323  0  0.65026  0  0.305587  0.399228  0  0.924793  0
H  H28  1  0.64085622  0.38919998  0.04181493  1  0  0.430007  0  0.870263  0  0  0.397901  0  0.934291  0  0  0.409833  0  0.916789  0  0.650631  0  0.294176  0.389372  0  0.946805  0
H  H29  1  0.85914534  0.11080139  0.54181493  1  0  0.430033  0  0.870213  0  0  0.397918  0  0.934258  0  0  0.409851  0  0.916753  0  0.650623  0  0.294178  0.389389  0  0.946773  0
H  H30  1  0.35914265  0.61080001  0.95818507  1  0  0.429996  0  0.870274  0  0  0.397913  0  0.934267  0  0  0.409842  0  0.91677  0  0.650639  0  0.294175  0.389385  0  0.946781  0
H  H31  1  0.14085770  0.88920044  0.45818507  1  0  0.429986  0  0.870286  0  0  0.397895  0  0.934291  0  0  0.409825  0  0.916792  0  0.650642  0  0.294175  0.389367  0  0.946805  0
H  H32  1  0.79083362  0.47896378  0.99369179  1  0  0.426946  0  0.866229  0  0  0.393768  0  0.933225  0  0  0.404884  0  0.916727  0  0.641391  0  0.300355  0.385809  0  0.94502  0
H  H33  1  0.70916541  0.02103759  0.49369254  1  0  0.426951  0  0.866233  0  0  0.39378  0  0.933216  0  0  0.404892  0  0.916724  0  0.641376  0  0.300342  0.385822  0  0.945011  0
H  H34  1  0.20916436  0.52103805  0.00630970  1  0  0.427008  0  0.866137  0  0  0.393853  0  0.933094  0  0  0.404965  0  0.916603  0  0.641384  0  0.300405  0.385895  0  0.944889  0
H  H35  1  0.29083599  0.97896241  0.50630896  1  0  0.426939  0  0.866231  0  0  0.39377  0  0.933212  0  0  0.404884  0  0.916718  0  0.641396  0  0.300382  0.385812  0  0.945006  0
C  C36  1  0.63464592  0.40148486  0.43082015  1  0  0.088736  0  3.779358  0  0  0.095651  0  4.022084  0  0  0.094017  0  4.042289  0  0.543233  0  0.121077  0.096572  0  4.00854  0
C  C37  1  0.86535437  0.09851651  0.93082313  1  0  0.088725  0  3.779309  0  0  0.095721  0  4.021908  0  0  0.094089  0  4.042114  0  0.54316  0  0.121094  0.096638  0  4.008372  0
C  C38  1  0.36535528  0.59851423  0.56917910  1  0  0.088568  0  3.779415  0  0  0.095524  0  4.022104  0  0  0.093889  0  4.042307  0  0.543222  0  0.121031  0.096445  0  4.008559  0
C  C39  1  0.13464342  0.90148440  0.06917910  1  0  0.088644  0  3.779309  0  0  0.095566  0  4.02201  0  0  0.093931  0  4.042213  0  0.543224  0  0.121021  0.096486  0  4.008468  0
C  C40  1  0.60455639  0.36951916  0.53085149  1  0  -0.073923  0  3.641595  0  0  -0.103798  0  3.897502  0  0  -0.105346  0  3.9161  0  -0.015844  0  -0.06143  -0.102591  0  3.885056  0
C  C41  1  0.89544441  0.13047856  0.03085672  1  0  -0.07407  0  3.64157  0  0  -0.10401  0  3.897489  0  0  -0.105556  0  3.916084  0  -0.015989  0  -0.061519  -0.102828  0  3.885045  0
C  C42  1  0.39544298  0.63047719  0.46914701  1  0  -0.07387  0  3.641634  0  0  -0.103763  0  3.897526  0  0  -0.105308  0  3.916122  0  -0.015892  0  -0.061431  -0.102554  0  3.885087  0
C  C43  1  0.10455319  0.86952144  0.96914627  1  0  -0.073881  0  3.64156  0  0  -0.103758  0  3.897451  0  0  -0.105304  0  3.916047  0  -0.016094  0  -0.061402  -0.102553  0  3.88501  0
C  C44  1  0.69027078  0.44432932  0.60411194  1  0  0.003073  0  3.654425  0  0  -0.015255  0  3.915014  0  0  -0.014357  0  3.931607  0  -0.036372  0  -0.055264  -0.015752  0  3.9037  0
C  C45  1  0.80972768  0.05566930  0.10411567  1  0  0.003158  0  3.654366  0  0  -0.015139  0  3.914948  0  0  -0.014243  0  3.931543  0  -0.036779  0  -0.055258  -0.015652  0  3.903635  0
C  C46  1  0.30973023  0.55566885  0.39588657  1  0  0.003087  0  3.654662  0  0  -0.015229  0  3.915243  0  0  -0.014332  0  3.931836  0  -0.036973  0  -0.055269  -0.015727  0  3.903925  0
C  C47  1  0.19026974  0.94432978  0.89588731  1  0  0.003041  0  3.654477  0  0  -0.015281  0  3.91506  0  0  -0.014383  0  3.93165  0  -0.036214  0  -0.055282  -0.01578  0  3.903747  0
C  C48  1  0.80061336  0.54820711  0.57438657  1  0  -0.087253  0  3.662248  0  0  -0.118887  0  3.92233  0  0  -0.121469  0  3.94155  0  -0.030826  0  -0.06403  -0.117055  0  3.909429  0
C  C49  1  0.69938528  0.95179152  0.07438881  1  0  -0.087115  0  3.662109  0  0  -0.118822  0  3.922216  0  0  -0.121406  0  3.941438  0  -0.030864  0  -0.063967  -0.116992  0  3.909323  0
C  C50  1  0.19938784  0.45179198  0.42561119  1  0  -0.087213  0  3.662299  0  0  -0.118889  0  3.922388  0  0  -0.121475  0  3.941613  0  -0.030945  0  -0.064034  -0.117058  0  3.90949  0
C  C51  1  0.30061213  0.04820757  0.92561269  1  0  -0.087243  0  3.662225  0  0  -0.118885  0  3.922313  0  0  -0.121465  0  3.941534  0  -0.030914  0  -0.06404  -0.117055  0  3.909417  0
C  C52  1  0.82254172  0.57312495  0.47261269  1  0  0.094307  0  3.754637  0  0  0.100198  0  4.002878  0  0  0.099174  0  4.022865  0  0.53709  0  0.12009  0.100703  0  3.98945  0
C  C53  1  0.67745965  0.92687459  0.97261493  1  0  0.094125  0  3.754864  0  0  0.100045  0  4.003098  0  0  0.099017  0  4.023088  0  0.537143  0  0.12009  0.10055  0  3.989667  0
C  C54  1  0.17745930  0.42687322  0.52738433  1  0  0.094272  0  3.754707  0  0  0.100167  0  4.002964  0  0  0.099141  0  4.02295  0  0.537082  0  0.120136  0.100671  0  3.989537  0
C  C55  1  0.32253903  0.07312449  0.02738582  1  0  0.094382  0  3.754578  0  0  0.10028  0  4.002815  0  0  0.09925  0  4.022802  0  0.537234  0  0.12016  0.100785  0  3.989386  0
C  C56  1  0.54664708  0.32310599  0.34991791  1  0  0.652799  0  3.801375  0  0  0.60106  0  4.092084  0  0  0.635568  0  4.082153  0  1.542191  0  0.254792  0.577437  0  4.098478  0
C  C57  1  0.95335486  0.17689721  0.84992313  1  0  0.652689  0  3.801354  0  0  0.600936  0  4.092025  0  0  0.635439  0  4.082096  0  1.541554  0  0.254682  0.577317  0  4.098422  0
C  C58  1  0.45335178  0.67689401  0.65008060  1  0  0.65282  0  3.801443  0  0  0.601065  0  4.09215  0  0  0.635576  0  4.082214  0  1.542181  0  0.254757  0.57744  0  4.098547  0
C  C59  1  0.04664565  0.82310462  0.15008060  1  0  0.652786  0  3.801426  0  0  0.601051  0  4.092113  0  0  0.635564  0  4.082173  0  1.542184  0  0.254768  0.577429  0  4.09851  0
C  C60  1  0.94108765  0.68309309  0.43572015  1  0  0.658645  0  3.85603  0  0  0.601264  0  4.157806  0  0  0.635171  0  4.149463  0  1.603071  0  0.240251  0.578193  0  4.162939  0
C  C61  1  0.55891137  0.81690736  0.93572090  1  0  0.65866  0  3.855999  0  0  0.601286  0  4.157749  0  0  0.635197  0  4.149401  0  1.603038  0  0.240232  0.578215  0  4.162881  0
C  C62  1  0.05891248  0.31690691  0.56427761  1  0  0.658665  0  3.855953  0  0  0.601286  0  4.157729  0  0  0.635199  0  4.149376  0  1.603481  0  0.24024  0.578214  0  4.162864  0
C  C63  1  0.44108604  0.18309172  0.06427836  1  0  0.658587  0  3.855913  0  0  0.601195  0  4.15771  0  0  0.635114  0  4.14935  0  1.60333  0  0.240199  0.578124  0  4.162842  0
N  N64  1  0.74215202  0.50048926  0.40163507  1  0  -0.375882  0  3.193554  0  0  -0.334473  0  3.442593  0  0  -0.346405  0  3.462966  0  -1.246313  0  -0.331917  -0.32583  0  3.428491  0
N  N65  1  0.75784865  0.99951303  0.90163806  1  0  -0.375799  0  3.193624  0  0  -0.334406  0  3.442606  0  0  -0.346337  0  3.462977  0  -1.246244  0  -0.331905  -0.325764  0  3.428506  0
N  N66  1  0.25784919  0.49950983  0.59836269  1  0  -0.375827  0  3.193664  0  0  -0.33443  0  3.442691  0  0  -0.346361  0  3.463061  0  -1.246231  0  -0.331903  -0.325788  0  3.428589  0
N  N67  1  0.24215059  0.00048880  0.09836343  1  0  -0.375877  0  3.193592  0  0  -0.334461  0  3.442606  0  0  -0.34639  0  3.462977  0  -1.246274  0  -0.331907  -0.325818  0  3.428504  0
N  N68  1  0.08880233  0.40651447  0.16340149  1  0  0.686075  0  4.155269  0  0  0.727289  0  4.43449  0  0  0.755969  0  4.439948  0  0.839048  0  0.094176  0.708028  0  4.430251  0
N  N69  1  0.41119929  0.09348690  0.66340224  1  0  0.686065  0  4.155223  0  0  0.727259  0  4.43448  0  0  0.75594  0  4.439937  0  0.838822  0  0.094185  0.707998  0  4.430243  0
N  N70  1  0.91119799  0.59348644  0.83659776  1  0  0.686022  0  4.155347  0  0  0.727231  0  4.434568  0  0  0.755913  0  4.440024  0  0.839037  0  0.094169  0.707971  0  4.430329  0
N  N71  1  0.58880015  0.90651584  0.33659925  1  0  0.686091  0  4.155221  0  0  0.727267  0  4.434475  0  0  0.75595  0  4.439931  0  0.83871  0  0.094181  0.708006  0  4.430237  0
O  O72  1  0.44108047  0.23210512  0.37009328  1  0  -0.591488  0  1.990122  0  0  -0.538875  0  2.224506  0  0  -0.562728  0  2.214899  0  -1.171142  0  -0.308513  -0.522291  0  2.230823  0
O  O73  1  0.05891647  0.26789808  0.87009925  1  0  -0.591352  0  1.990222  0  0  -0.538743  0  2.224604  0  0  -0.562598  0  2.215001  0  -1.170626  0  -0.308394  -0.522135  0  2.230862  0
O  O74  1  0.55891480  0.76789579  0.62990522  1  0  -0.591455  0  1.990156  0  0  -0.53885  0  2.224553  0  0  -0.562705  0  2.214944  0  -1.171124  0  -0.308473  -0.522264  0  2.230869  0
O  O75  1  0.94108511  0.73210283  0.12990522  1  0  -0.591464  0  1.990229  0  0  -0.53886  0  2.224609  0  0  -0.562715  0  2.214997  0  -1.171183  0  -0.308483  -0.522269  0  2.230912  0
O  O76  1  0.59220643  0.35893458  0.25858507  1  0  -0.590808  0  2.11868  0  0  -0.526934  0  2.347221  0  0  -0.553605  0  2.331121  0  -1.171499  0  -0.320009  -0.508134  0  2.356167  0
O  O77  1  0.90780018  0.14106679  0.75858955  1  0  -0.590847  0  2.118513  0  0  -0.526972  0  2.347061  0  0  -0.553639  0  2.330958  0  -1.17135  0  -0.320016  -0.508175  0  2.356008  0
O  O78  1  0.40779603  0.64106450  0.74141493  1  0  -0.590819  0  2.118695  0  0  -0.526932  0  2.347234  0  0  -0.553606  0  2.33113  0  -1.171487  0  -0.320015  -0.508134  0  2.356179  0
O  O79  1  0.09220286  0.85893504  0.24141343  1  0  -0.590805  0  2.118607  0  0  -0.526929  0  2.347147  0  0  -0.553604  0  2.331049  0  -1.171451  0  -0.32003  -0.508131  0  2.356093  0
O  O80  1  0.00524854  0.76357425  0.49597463  1  0  -0.58755  0  1.986955  0  0  -0.526482  0  2.196515  0  0  -0.550919  0  2.185859  0  -1.174322  0  -0.27671  -0.509608  0  2.203775  0
O  O81  1  0.49475288  0.73642529  0.99597463  1  0  -0.587541  0  1.986926  0  0  -0.526498  0  2.196502  0  0  -0.550936  0  2.185846  0  -1.174331  0  -0.276735  -0.509622  0  2.203763  0
O  O82  1  0.99475014  0.23642483  0.50402537  1  0  -0.587581  0  1.986951  0  0  -0.526501  0  2.19651  0  0  -0.550942  0  2.18585  0  -1.174364  0  -0.276734  -0.509626  0  2.203771  0
O  O83  1  0.50524851  0.26357471  0.00402463  1  0  -0.58753  0  1.9869  0  0  -0.526456  0  2.196473  0  0  -0.5509  0  2.185812  0  -1.174333  0  -0.276717  -0.509582  0  2.203735  0
O  O84  1  0.96867613  0.68363579  0.34072761  1  0  -0.664904  0  2.114468  0  0  -0.602153  0  2.357305  0  0  -0.631298  0  2.346402  0  -1.190193  0  -0.331751  -0.581576  0  2.363165  0
O  O85  1  0.53132668  0.81636466  0.84072836  1  0  -0.664861  0  2.114466  0  0  -0.602109  0  2.357312  0  0  -0.631257  0  2.346404  0  -1.190128  0  -0.331729  -0.581532  0  2.363172  0
O  O86  1  0.03132652  0.31636420  0.65927164  1  0  -0.664865  0  2.114367  0  0  -0.602117  0  2.357217  0  0  -0.631265  0  2.346306  0  -1.190512  0  -0.331734  -0.581542  0  2.363078  0
O  O87  1  0.46867598  0.18363534  0.15927090  1  0  -0.664893  0  2.114435  0  0  -0.602143  0  2.357283  0  0  -0.631293  0  2.346374  0  -1.19056  0  -0.331734  -0.581565  0  2.363141  0
O  O88  1  0.56252971  0.65009223  0.18930373  1  0  -0.872855  0  1.795651  0  0  -0.820187  0  1.977462  0  0  -0.840296  0  1.94324  0  -1.275191  0  -0.624933  -0.805471  0  2.001345  0
O  O89  1  0.93747058  0.84990822  0.68930299  1  0  -0.87286  0  1.795641  0  0  -0.820184  0  1.97745  0  0  -0.840296  0  1.943228  0  -1.275167  0  -0.624932  -0.805464  0  2.001321  0
O  O90  1  0.43747169  0.34990777  0.81069701  1  0  -0.872855  0  1.795665  0  0  -0.820182  0  1.977472  0  0  -0.840289  0  1.943251  0  -1.27518  0  -0.624939  -0.805464  0  2.001343  0
O  O91  1  0.06252721  0.15009269  0.31069701  1  0  -0.872943  0  1.795553  0  0  -0.820268  0  1.977374  0  0  -0.84038  0  1.943149  0  -1.275166  0  -0.624964  -0.805549  0  2.001271  0
O  O92  1  0.72908149  0.46081879  0.05700299  1  0  -0.891496  0  1.790128  0  0  -0.832985  0  1.970677  0  0  -0.854426  0  1.936339  0  -1.302818  0  -0.642189  -0.817288  0  1.994804  0
O  O93  1  0.77091842  0.03918075  0.55700299  1  0  -0.891528  0  1.790125  0  0  -0.833002  0  1.970653  0  0  -0.854457  0  1.936346  0  -1.302797  0  -0.642173  -0.817306  0  1.994781  0
O  O94  1  0.27090929  0.53918486  0.94299701  1  0  -0.891554  0  1.790098  0  0  -0.833063  0  1.9706  0  0  -0.854515  0  1.936296  0  -1.302815  0  -0.642236  -0.817369  0  1.994728  0
O  O95  1  0.22908979  0.96081559  0.44299552  1  0  -0.89149  0  1.790162  0  0  -0.832988  0  1.970673  0  0  -0.854442  0  1.936369  0  -1.302825  0  -0.642226  -0.817292  0  1.9948  0
O  O96  1  0.09121414  0.51475308  0.13021493  1  0  -0.491852  0  1.779161  0  0  -0.473726  0  1.983722  0  0  -0.4917  0  1.976184  0  -0.567326  0  -0.185106  -0.461018  0  1.988659  0
O  O97  1  0.40878747  0.98524737  0.63021493  1  0  -0.491838  0  1.77913  0  0  -0.473695  0  1.983694  0  0  -0.491669  0  1.976155  0  -0.567302  0  -0.185108  -0.460987  0  1.988633  0
O  O98  1  0.90878618  0.48524783  0.86978507  1  0  -0.491809  0  1.779175  0  0  -0.473665  0  1.983734  0  0  -0.491641  0  1.976195  0  -0.567324  0  -0.18509  -0.46096  0  1.98867  0
O  O99  1  0.59121052  0.01475445  0.36978507  1  0  -0.491909  0  1.77913  0  0  -0.473767  0  1.983711  0  0  -0.49174  0  1.976171  0  -0.567317  0  -0.185157  -0.461058  0  1.988649  0
O  O100  1  0.97439314  0.36905320  0.22976119  1  0  -0.54007  0  1.787383  0  0  -0.516812  0  1.999588  0  0  -0.536281  0  1.991874  0  -0.621979  0  -0.206762  -0.503002  0  2.00458  0
O  O101  1  0.52560696  0.13094726  0.72976119  1  0  -0.540096  0  1.787418  0  0  -0.516814  0  1.999593  0  0  -0.536285  0  1.991884  0  -0.621751  0  -0.206776  -0.503007  0  2.004588  0
O  O102  1  0.02560698  0.63094680  0.77023881  1  0  -0.540069  0  1.787417  0  0  -0.516808  0  1.999605  0  0  -0.536283  0  1.991902  0  -0.621995  0  -0.206773  -0.503001  0  2.004597  0
O  O103  1  0.47439210  0.86905365  0.27023955  1  0  -0.540062  0  1.787359  0  0  -0.516805  0  1.999573  0  0  -0.536285  0  1.991868  0  -0.621732  0  -0.206758  -0.502998  0  2.004568  0
O  O104  1  0.18980844  0.33873572  0.13350373  1  0  -0.399038  0  1.762176  0  0  -0.394674  0  1.958218  0  0  -0.40718  0  1.952589  0  -0.49716  0  -0.142906  -0.386189  0  1.962129  0
O  O105  1  0.31019027  0.16126383  0.63350522  1  0  -0.398995  0  1.762126  0  0  -0.394644  0  1.958191  0  0  -0.40715  0  1.95256  0  -0.497181  0  -0.142897  -0.386154  0  1.962094  0
O  O106  1  0.81019043  0.66126428  0.86649403  1  0  -0.399003  0  1.762178  0  0  -0.394649  0  1.958234  0  0  -0.407157  0  1.952604  0  -0.497171  0  -0.142906  -0.386161  0  1.962138  0
O  O107  1  0.68980791  0.83873891  0.36649701  1  0  -0.398982  0  1.762136  0  0  -0.394602  0  1.958182  0  0  -0.407107  0  1.952549  0  -0.497099  0  -0.142873  -0.386113  0  1.962086  0
