# generated using pymatgen
data_Zn3H20C28(N5O3)2
_symmetry_space_group_name_H-M   'P 1'
_cell_length_a   10.20822543
_cell_length_b   12.81785008
_cell_length_c   12.81782991
_cell_angle_alpha   97.42730441
_cell_angle_beta   99.14273443
_cell_angle_gamma   99.14283918
_symmetry_Int_Tables_number   1
_chemical_formula_structural   Zn3H20C28(N5O3)2
_chemical_formula_sum   'Zn6 H40 C56 N20 O12'
_cell_volume   1614.16523852
_cell_formula_units_Z   2
loop_
 _symmetry_equiv_pos_site_id
 _symmetry_equiv_pos_as_xyz
  1  'x, y, z'
loop_
 _atom_site_type_symbol
 _atom_site_label
 _atom_site_symmetry_multiplicity
 _atom_site_fract_x
 _atom_site_fract_y
 _atom_site_fract_z
 _atom_site_occupancy
 _atom_site_pbe_bader_spin_density
 _atom_site_pbe_cm5_charge
 _atom_site_pbe_ddec_charge
 _atom_site_pbe_ddec_spin_density
 _atom_site_pbe_ddec_sum_bond_order
 _atom_site_pbe_magmom
Zn  Zn0  1  0.75000066  0.43659360  0.56340675  1  0  0.670047  0.786004  0  2.408581  0
Zn  Zn1  1  0.24999855  0.56340595  0.43659186  1  0  0.670008  0.785928  0  2.408653  0
Zn  Zn2  1  0.55434895  0.50646720  0.74873837  1  0  0.712575  0.753178  0  2.446941  0
Zn  Zn3  1  0.94565043  0.25126092  0.49353427  1  0  0.712571  0.753175  0  2.446943  0
Zn  Zn4  1  0.44565123  0.49353234  0.25126192  1  0  0.712591  0.753187  0  2.44694  0
Zn  Zn5  1  0.05434857  0.74873781  0.50646653  1  0  0.712597  0.753203  0  2.446953  0
H  H6  1  0.04394403  0.95759586  0.63794319  1  0  0.12605  0.105643  0  0.968152  0
H  H7  1  0.45605721  0.36205552  0.04240644  1  0  0.126092  0.105704  0  0.968249  0
H  H8  1  0.95605596  0.04240690  0.36205517  1  0  0.126061  0.105654  0  0.968212  0
H  H9  1  0.54394297  0.63794402  0.95759385  1  0  0.126088  0.1057  0  0.968249  0
H  H10  1  0.25120912  0.86304549  0.40005321  1  0  0.118227  0.083229  0  0.999805  0
H  H11  1  0.24879150  0.59994587  0.13695438  1  0  0.118226  0.083201  0  0.9998  0
H  H12  1  0.74878831  0.13695488  0.59994527  1  0  0.118218  0.083222  0  0.999799  0
H  H13  1  0.75120671  0.40005368  0.86304565  1  0  0.118236  0.083208  0  0.99983  0
H  H14  1  0.19201824  0.14049574  0.68281972  1  0  0.113368  0.121188  0  1.021482  0
H  H15  1  0.30798240  0.31717800  0.85950503  1  0  0.113344  0.121163  0  1.02152  0
H  H16  1  0.80798411  0.85950457  0.31718174  1  0  0.113371  0.12118  0  1.021479  0
H  H17  1  0.69201761  0.68282074  0.14049357  1  0  0.113365  0.121192  0  1.021516  0
H  H18  1  0.40889652  0.03952191  0.43607126  1  0  0.112842  0.121258  0  1.012621  0
H  H19  1  0.09110678  0.56392829  0.96047893  1  0  0.112838  0.121265  0  1.012679  0
H  H20  1  0.59110366  0.96047762  0.56392902  1  0  0.112852  0.121301  0  1.012598  0
H  H21  1  0.90889440  0.43607124  0.03952071  1  0  0.112853  0.121295  0  1.012651  0
H  H22  1  0.92229816  0.62773617  0.82953151  1  0  0.092347  0.086022  0  1.075266  0
H  H23  1  0.57770081  0.17046990  0.37226336  1  0  0.092322  0.086016  0  1.075267  0
H  H24  1  0.07770106  0.37226339  0.17046631  1  0  0.092335  0.086003  0  1.075297  0
H  H25  1  0.42229758  0.82953044  0.62773758  1  0  0.092286  0.085944  0  1.075326  0
H  H26  1  0.65397392  0.68708703  0.61709064  1  0  0.103472  0.068281  0  0.967983  0
H  H27  1  0.84602597  0.38291022  0.31291294  1  0  0.103465  0.068266  0  0.968006  0
H  H28  1  0.34602448  0.31291331  0.38290952  1  0  0.103481  0.068327  0  0.967957  0
H  H29  1  0.15397304  0.61708852  0.68708631  1  0  0.103473  0.068277  0  0.967971  0
H  H30  1  0.00367699  0.74772541  0.00580076  1  0  0.091569  0.08578  0  1.004617  0
H  H31  1  0.49632128  0.99419997  0.25227387  1  0  0.091578  0.085797  0  1.004553  0
H  H32  1  0.99632320  0.25227413  0.99419875  1  0  0.091582  0.085797  0  1.004644  0
H  H33  1  0.50367792  0.00579957  0.74772551  1  0  0.09156  0.085774  0  1.004561  0
H  H34  1  0.65754049  0.84087621  0.73289470  1  0  0.093603  0.091735  0  1.044751  0
H  H35  1  0.84246039  0.26710660  0.15912451  1  0  0.093603  0.091743  0  1.044819  0
H  H36  1  0.34245888  0.15912412  0.26710715  1  0  0.093591  0.09172  0  1.044736  0
H  H37  1  0.15753683  0.73289296  0.84087461  1  0  0.093606  0.091728  0  1.044853  0
H  H38  1  0.91101070  0.91367105  0.04533716  1  0  0.096581  0.094  0  1.008809  0
H  H39  1  0.58899049  0.95466429  0.08632875  1  0  0.096576  0.093953  0  1.008778  0
H  H40  1  0.08899167  0.08632927  0.95466274  1  0  0.096563  0.09395  0  1.008745  0
H  H41  1  0.41100870  0.04533525  0.91367141  1  0  0.096568  0.093952  0  1.008796  0
H  H42  1  0.73521299  0.95891080  0.90845159  1  0  0.092372  0.083994  0  1.031559  0
H  H43  1  0.76478780  0.09155050  0.04108920  1  0  0.092384  0.084004  0  1.031574  0
H  H44  1  0.26478957  0.04109032  0.09154923  1  0  0.09237  0.084008  0  1.03155  0
H  H45  1  0.23520963  0.90844987  0.95890928  1  0  0.092364  0.083969  0  1.031602  0
C  C46  1  0.84900128  0.66513934  0.59349963  1  0  0.209058  0.564628  0  4.11026  0
C  C47  1  0.65100029  0.40650113  0.33486216  1  0  0.2091  0.564696  0  4.110229  0
C  C48  1  0.15099712  0.33486101  0.40650053  1  0  0.209111  0.564701  0  4.110331  0
C  C49  1  0.34900088  0.59349839  0.66513826  1  0  0.209109  0.564725  0  4.110257  0
C  C50  1  0.12537835  0.98040885  0.59499038  1  0  0.056537  0.102858  0  3.931606  0
C  C51  1  0.37462457  0.40500777  0.01959256  1  0  0.056546  0.102841  0  3.931464  0
C  C52  1  0.87462324  0.01959229  0.40500875  1  0  0.056565  0.102877  0  3.931491  0
C  C53  1  0.62537561  0.59499177  0.98040773  1  0  0.05652  0.102825  0  3.931521  0
C  C54  1  0.24088872  0.92722119  0.46109862  1  0  0.050644  0.098929  0  3.968144  0
C  C55  1  0.25911359  0.53890040  0.07277947  1  0  0.050632  0.098966  0  3.96811  0
C  C56  1  0.75911068  0.07277916  0.53890090  1  0  0.050651  0.098952  0  3.968089  0
C  C57  1  0.74088660  0.46109913  0.92722082  1  0  0.050648  0.099002  0  3.968106  0
C  C58  1  0.20803681  0.08037642  0.62017207  1  0  -0.070622  -0.148033  0  3.907915  0
C  C59  1  0.29196544  0.37982532  0.91962472  1  0  -0.07054  -0.147925  0  3.907665  0
C  C60  1  0.79196554  0.91962389  0.37982939  1  0  -0.070587  -0.14793  0  3.9078  0
C  C61  1  0.70803338  0.62017263  0.08037439  1  0  -0.070573  -0.147952  0  3.907695  0
C  C62  1  0.32830462  0.02479991  0.48158356  1  0  -0.07508  -0.161066  0  3.931932  0
C  C63  1  0.17169488  0.51841543  0.97520133  1  0  -0.075071  -0.161034  0  3.932072  0
C  C64  1  0.67169555  0.97519961  0.51841829  1  0  -0.07514  -0.16113  0  3.931926  0
C  C65  1  0.82830511  0.48158330  0.02479882  1  0  -0.07508  -0.161072  0  3.932029  0
C  C66  1  0.31447044  0.10272440  0.56455427  1  0  0.026254  0.094516  0  3.984055  0
C  C67  1  0.18553107  0.43544383  0.89727749  1  0  0.026173  0.094328  0  3.984139  0
C  C68  1  0.68553271  0.89727510  0.43544796  1  0  0.026279  0.094457  0  3.984074  0
C  C69  1  0.81446893  0.56455490  0.10272266  1  0  0.026207  0.094399  0  3.984077  0
C  C70  1  0.41173384  0.20231885  0.59523674  1  0  0.209193  0.206459  0  4.065148  0
C  C71  1  0.08826737  0.40476188  0.79768194  1  0  0.209236  0.206572  0  4.065044  0
C  C72  1  0.58826910  0.79767985  0.40476536  1  0  0.209217  0.206471  0  4.065237  0
C  C73  1  0.91173182  0.59523766  0.20231822  1  0  0.20921  0.206494  0  4.065124  0
C  C74  1  0.88358118  0.70155235  0.84698083  1  0  -0.100297  -0.129452  0  3.967494  0
C  C75  1  0.61641707  0.15301932  0.29844747  1  0  -0.100283  -0.129478  0  3.967522  0
C  C76  1  0.11641804  0.29844720  0.15301777  1  0  -0.100264  -0.129435  0  3.967515  0
C  C77  1  0.38358233  0.84698102  0.70155282  1  0  -0.100249  -0.129335  0  3.967405  0
C  C78  1  0.73811789  0.65605822  0.66152026  1  0  -0.00657  0.063448  0  3.970055  0
C  C79  1  0.76188239  0.33848108  0.34394325  1  0  -0.006612  0.063394  0  3.97013  0
C  C80  1  0.26188051  0.34394213  0.33847913  1  0  -0.006678  0.063211  0  3.970193  0
C  C81  1  0.23811700  0.66151926  0.65605705  1  0  -0.006687  0.06327  0  3.970057  0
C  C82  1  0.92807103  0.76838355  0.94543702  1  0  -0.098544  -0.084832  0  4.041179  0
C  C83  1  0.57193208  0.05456337  0.23161827  1  0  -0.098503  -0.084781  0  4.041114  0
C  C84  1  0.07193035  0.23161679  0.05456197  1  0  -0.098576  -0.084882  0  4.041281  0
C  C85  1  0.42806711  0.94543616  0.76838267  1  0  -0.09853  -0.084844  0  4.041171  0
C  C86  1  0.73439511  0.82095998  0.79248277  1  0  -0.097461  -0.134368  0  3.991846  0
C  C87  1  0.76560575  0.20751912  0.17904077  1  0  -0.097437  -0.134324  0  3.991861  0
C  C88  1  0.26560647  0.17904115  0.20751714  1  0  -0.097442  -0.134343  0  3.991804  0
C  C89  1  0.23439266  0.79248123  0.82095862  1  0  -0.097478  -0.134405  0  3.991946  0
C  C90  1  0.87626441  0.86181189  0.96810563  1  0  -0.102297  -0.101838  0  4.036701  0
C  C91  1  0.62374016  0.03189555  0.13819014  1  0  -0.102293  -0.101775  0  4.036601  0
C  C92  1  0.12374252  0.13819082  0.03189364  1  0  -0.102322  -0.101809  0  4.036612  0
C  C93  1  0.37626100  0.96810397  0.86181106  1  0  -0.102278  -0.101794  0  4.036627  0
C  C94  1  0.78641126  0.72788849  0.76931139  1  0  -0.017818  0.063923  0  3.95392  0
C  C95  1  0.71358747  0.23068897  0.27211157  1  0  -0.017823  0.063937  0  3.953891  0
C  C96  1  0.21358694  0.27211106  0.23068864  1  0  -0.017813  0.064015  0  3.953909  0
C  C97  1  0.28641073  0.76931058  0.72788846  1  0  -0.01781  0.063933  0  3.95388  0
C  C98  1  0.77860093  0.88752486  0.89123435  1  0  -0.099506  -0.084244  0  4.04043  0
C  C99  1  0.72140183  0.10876695  0.11247671  1  0  -0.099532  -0.084314  0  4.040441  0
C  C100  1  0.22140283  0.11247707  0.10876517  1  0  -0.099463  -0.084256  0  4.040433  0
C  C101  1  0.27859835  0.89123258  0.88752358  1  0  -0.099513  -0.084209  0  4.040359  0
N  N102  1  0.14231774  0.90447432  0.51760305  1  0  -0.339201  -0.250706  0  3.615003  0
N  N103  1  0.35768375  0.48239613  0.09552649  1  0  -0.339235  -0.250735  0  3.614862  0
N  N104  1  0.85768166  0.09552603  0.48239646  1  0  -0.339228  -0.250743  0  3.614906  0
N  N105  1  0.64231544  0.51760341  0.90447367  1  0  -0.339253  -0.250792  0  3.614867  0
N  N106  1  0.40888498  0.27857056  0.67745906  1  0  -0.200241  -0.23236  0  3.177132  0
N  N107  1  0.09111568  0.32254028  0.72142926  1  0  -0.200259  -0.232382  0  3.177083  0
N  N108  1  0.59111797  0.72142814  0.32254226  1  0  -0.200243  -0.232299  0  3.17711  0
N  N109  1  0.90888471  0.67746006  0.27857038  1  0  -0.200258  -0.232381  0  3.17719  0
N  N110  1  0.51580928  0.35243697  0.67829341  1  0  -0.123113  -0.063505  0  3.581558  0
N  N111  1  0.98419177  0.32170685  0.64756329  1  0  -0.123098  -0.063473  0  3.581523  0
N  N112  1  0.48419268  0.64756174  0.32170778  1  0  -0.123119  -0.06353  0  3.581519  0
N  N113  1  0.01580762  0.67829350  0.35243622  1  0  -0.123123  -0.063483  0  3.581603  0
N  N114  1  0.58235155  0.32289037  0.60055408  1  0  -0.090845  -0.045686  0  3.438148  0
N  N115  1  0.91764910  0.39944574  0.67710986  1  0  -0.090851  -0.045723  0  3.43814  0
N  N116  1  0.41765062  0.67710915  0.39944647  1  0  -0.090813  -0.045695  0  3.438067  0
N  N117  1  0.08235010  0.60055380  0.32288952  1  0  -0.090814  -0.045709  0  3.438117  0
N  N118  1  0.51890405  0.22852356  0.54714686  1  0  -0.193986  -0.237257  0  3.207838  0
N  N119  1  0.98109757  0.45285294  0.77147791  1  0  -0.193994  -0.237273  0  3.207809  0
N  N120  1  0.48109890  0.77147513  0.45285524  1  0  -0.194041  -0.237288  0  3.207856  0
N  N121  1  0.01890083  0.54714741  0.22852226  1  0  -0.193986  -0.23723  0  3.207809  0
O  O122  1  0.69790033  0.54818771  0.67140702  1  0  -0.396797  -0.579245  0  2.515072  0
O  O123  1  0.80209943  0.32859279  0.45181209  1  0  -0.396795  -0.579258  0  2.51518  0
O  O124  1  0.30209887  0.45181183  0.32859236  1  0  -0.396787  -0.579194  0  2.515101  0
O  O125  1  0.19789879  0.67140677  0.54818638  1  0  -0.396775  -0.579187  0  2.515088  0
O  O126  1  0.87983476  0.58172399  0.54816295  1  0  -0.296816  -0.493401  0  2.277119  0
O  O127  1  0.62016732  0.45183862  0.41827774  1  0  -0.296807  -0.493378  0  2.277138  0
O  O128  1  0.12016680  0.41827713  0.45183774  1  0  -0.296833  -0.493388  0  2.27719  0
O  O129  1  0.37983306  0.54816172  0.58172268  1  0  -0.296827  -0.493386  0  2.277178  0
O  O130  1  0.90591821  0.76028985  0.58563542  1  0  -0.330505  -0.536073  0  2.306473  0
O  O131  1  0.59408280  0.41436481  0.23971188  1  0  -0.330536  -0.536129  0  2.306479  0
O  O132  1  0.09408118  0.23971049  0.41436410  1  0  -0.330486  -0.536074  0  2.306537  0
O  O133  1  0.40591758  0.58563552  0.76028855  1  0  -0.330519  -0.536126  0  2.306486  0
