# generated using pymatgen
data_NiH12C10N2O5
_symmetry_space_group_name_H-M   'P 1'
_cell_length_a   5.92252142
_cell_length_b   9.23650574
_cell_length_c   11.99427507
_cell_angle_alpha   89.99964285
_cell_angle_beta   89.99918064
_cell_angle_gamma   97.50385090
_symmetry_Int_Tables_number   1
_chemical_formula_structural   NiH12C10N2O5
_chemical_formula_sum   'Ni2 H24 C20 N4 O10'
_cell_volume   650.50864414
_cell_formula_units_Z   2
loop_
 _symmetry_equiv_pos_site_id
 _symmetry_equiv_pos_as_xyz
  1  'x, y, z'
loop_
 _atom_site_type_symbol
 _atom_site_label
 _atom_site_symmetry_multiplicity
 _atom_site_fract_x
 _atom_site_fract_y
 _atom_site_fract_z
 _atom_site_occupancy
 _atom_site_pbe_cm5_charge
 _atom_site_pbe_ddec_charge
 _atom_site_pbe_ddec_spin_density
 _atom_site_pbe_ddec_sum_bond_order
 _atom_site_pbe_magmom
Ni  Ni0  1  0.03164729  0.47346088  0.89676075  1  0.637241  0.792563  1.771249  2.465065  1.557
Ni  Ni1  1  0.96835194  0.52654174  0.39675963  1  0.637268  0.792624  1.771266  2.465158  1.557
H  H2  1  0.67387583  0.50206235  0.76959526  1  0.324459  0.397825  0.000459  0.869804  0.001
H  H3  1  0.32613053  0.49794054  0.26959462  1  0.324399  0.397749  0.000459  0.869875  0.001
H  H4  1  0.57293257  0.47931481  0.89074013  1  0.293618  0.389107  0.000618  0.952972  0.001
H  H5  1  0.42706662  0.52068679  0.39073950  1  0.293614  0.389113  0.000618  0.95297  0.001
H  H6  1  0.85087465  0.70115694  0.95500678  1  0.289654  0.249703  -0.000294  1.00957  0.0
H  H7  1  0.14912275  0.29884506  0.45500584  1  0.289645  0.249734  -0.000294  1.009596  0.0
H  H8  1  0.22868584  0.84852589  0.02557854  1  0.105882  0.069244  0.001818  0.973694  0.002
H  H9  1  0.77130928  0.15146979  0.52557767  1  0.105861  0.069225  0.001819  0.973729  0.002
H  H10  1  0.93011307  0.75181717  0.14595290  1  0.106108  0.132825  -2.4e-05  1.012926  0.0
H  H11  1  0.06988086  0.24818158  0.64594900  1  0.106124  0.132844  -2.4e-05  1.012889  0.0
H  H12  1  0.18505098  0.70013333  0.19744187  1  0.105445  0.131553  -0.000261  1.012928  0.0
H  H13  1  0.81494346  0.29986706  0.69744166  1  0.105433  0.131522  -0.000261  1.012913  0.0
H  H14  1  0.93703389  0.75933530  0.76423616  1  0.1158  0.10614  -9e-05  0.95035  0.0
H  H15  1  0.06297771  0.24066765  0.26423526  1  0.115794  0.106099  -9e-05  0.950318  0.0
H  H16  1  0.22821778  0.77522102  0.79347673  1  0.110912  0.099584  0.000179  0.976245  0.001
H  H17  1  0.77178930  0.22478053  0.29347343  1  0.110911  0.099579  0.000179  0.976263  0.001
H  H18  1  0.36088081  0.28815809  0.79840394  1  0.117786  0.091814  0.000961  1.03017  0.001
H  H19  1  0.63912443  0.71184340  0.29840592  1  0.117793  0.091808  0.000961  1.030145  0.001
H  H20  1  0.37974364  0.02393581  0.76613495  1  0.108573  0.118108  0.000564  0.992378  0.0
H  H21  1  0.62026407  0.97606494  0.26613496  1  0.108557  0.118067  0.000564  0.992436  0.0
H  H22  1  0.75043690  0.93200697  0.95123395  1  0.104673  0.123104  0.00058  1.041549  0.0
H  H23  1  0.24956884  0.06799397  0.45122923  1  0.104678  0.123094  0.00058  1.041578  0.0
H  H24  1  0.76044599  0.20188817  0.97641101  1  0.121717  0.099708  0.000541  0.987439  0.001
H  H25  1  0.23955749  0.79811359  0.47640954  1  0.121714  0.099724  0.000541  0.98744  0.001
C  C26  1  0.39210173  0.65968048  0.99823578  1  0.209618  0.567446  -0.000625  4.146076  0.0
C  C27  1  0.60788028  0.34031012  0.49823642  1  0.209514  0.567326  -0.000623  4.146662  0.0
C  C28  1  0.17516035  0.72989708  0.01881495  1  -0.004271  0.020273  -0.000761  3.871026  -0.002
C  C29  1  0.82483521  0.27009976  0.51881314  1  -0.004279  0.020252  -0.000762  3.871136  -0.002
C  C30  1  0.06108151  0.68069075  0.12931485  1  -0.167124  -0.363173  -0.000248  3.899614  0.001
C  C31  1  0.93890934  0.31930710  0.62931201  1  -0.167111  -0.363151  -0.000248  3.8996  0.001
C  C32  1  0.93729878  0.52504744  0.13922604  1  0.208233  0.640754  0.000433  4.11786  0.001
C  C33  1  0.06269220  0.47495248  0.63921943  1  0.208225  0.640784  0.000433  4.117744  0.001
C  C34  1  0.06388163  0.79403203  0.82924599  1  -0.062602  -0.077313  -0.000415  3.921479  -0.001
C  C35  1  0.93612432  0.20596913  0.32924413  1  -0.062597  -0.077232  -0.000415  3.921455  -0.001
C  C36  1  0.22909728  0.20577853  0.83088760  1  0.048115  0.099433  -0.005357  3.948165  -0.003
C  C37  1  0.77090739  0.79422479  0.33088909  1  0.0481  0.099462  -0.005358  3.948067  -0.003
C  C38  1  0.23774477  0.05776636  0.81307776  1  -0.086979  -0.189164  0.003329  3.959734  0.005
C  C39  1  0.76226169  0.94223498  0.31307860  1  -0.086939  -0.189028  0.003329  3.959783  0.005
C  C40  1  0.06316035  0.95464128  0.85352719  1  0.003851  0.127713  -0.003849  3.96249  -0.001
C  C41  1  0.93684508  0.04536071  0.35352526  1  0.003846  0.127616  -0.003851  3.962555  -0.001
C  C42  1  0.88853658  0.00692135  0.91460237  1  -0.091597  -0.189867  0.00331  3.933969  0.004
C  C43  1  0.11146840  0.99307889  0.41460086  1  -0.09159  -0.189837  0.00331  3.934093  0.004
C  C44  1  0.89247296  0.15662163  0.92947909  1  0.047885  0.098502  -0.005237  3.939837  -0.003
C  C45  1  0.10752840  0.84337955  0.42947750  1  0.047891  0.098479  -0.005237  3.939869  -0.003
N  N46  1  0.01434789  0.69652099  0.92560570  1  -0.484536  -0.35974  0.042838  3.530653  0.066
N  N47  1  0.98564785  0.30347695  0.42560386  1  -0.484506  -0.359777  0.042835  3.53078  0.066
N  N48  1  0.05789812  0.25531744  0.88700486  1  -0.331669  -0.233362  0.03648  3.589066  0.057
N  N49  1  0.94210435  0.74468310  0.38700621  1  -0.3317  -0.233415  0.036478  3.588955  0.057
O  O50  1  0.36297786  0.53256608  0.95138467  1  -0.306403  -0.533597  0.039727  2.361847  0.066
O  O51  1  0.63702662  0.46743704  0.45138616  1  -0.306393  -0.533675  0.039734  2.361677  0.066
O  O52  1  0.58030626  0.72637255  0.02758856  1  -0.31798  -0.537945  0.004352  2.174695  0.006
O  O53  1  0.41970342  0.27362858  0.52758290  1  -0.317855  -0.537722  0.004352  2.175475  0.006
O  O54  1  0.91183110  0.43956129  0.05575985  1  -0.315824  -0.54434  0.047618  2.332967  0.079
O  O55  1  0.08815992  0.56043516  0.55575349  1  -0.315847  -0.544413  0.047612  2.333021  0.079
O  O56  1  0.85331669  0.48609387  0.23419674  1  -0.331992  -0.585038  0.033342  2.344679  0.054
O  O57  1  0.14667109  0.51390394  0.73418936  1  -0.331991  -0.585038  0.033345  2.344525  0.054
O  O58  1  0.69036208  0.44637234  0.83735849  1  -0.558598  -0.741868  0.028761  2.182508  0.046
O  O59  1  0.30964598  0.55363201  0.33735854  1  -0.558556  -0.741805  0.028756  2.182527  0.046
