# generated using pymatgen
data_SnH17C11N5O3
_symmetry_space_group_name_H-M   'P 1'
_cell_length_a   9.69219953
_cell_length_b   11.97848370
_cell_length_c   12.93600000
_cell_angle_alpha   103.66316740
_cell_angle_beta   90.00000000
_cell_angle_gamma   90.00000000
_symmetry_Int_Tables_number   1
_chemical_formula_structural   SnH17C11N5O3
_chemical_formula_sum   'Sn4 H68 C44 N20 O12'
_cell_volume   1459.34147471
_cell_formula_units_Z   4
loop_
 _symmetry_equiv_pos_site_id
 _symmetry_equiv_pos_as_xyz
  1  'x, y, z'
loop_
 _atom_site_type_symbol
 _atom_site_label
 _atom_site_symmetry_multiplicity
 _atom_site_fract_x
 _atom_site_fract_y
 _atom_site_fract_z
 _atom_site_occupancy
 _atom_site_pbe_bader_charge
 _atom_site_pbe_bader_spin_density
 _atom_site_pbe_cm5_charge
 _atom_site_pbe_ddec_charge
 _atom_site_pbe_ddec_spin_density
 _atom_site_pbe_ddec_sum_bond_order
 _atom_site_pbe_magmom
Sn  Sn0  1  0.16752750  0.95263660  0.18871569  1  1.684559  0  0.515213  1.203803  0  3.381963  0
Sn  Sn1  1  0.66752753  0.04736283  0.31128418  1  1.684524  0  0.515219  1.203815  0  3.381994  0
Sn  Sn2  1  0.83247254  0.04736283  0.81128418  1  1.684515  0  0.515211  1.203846  0  3.381922  0
Sn  Sn3  1  0.33247355  0.95263660  0.68871647  1  1.684606  0  0.515189  1.203793  0  3.381959  0
H  H4  1  0.15992242  0.15924472  0.39642314  1  0.090086  0  0.109517  0.130803  0  1.01317  0
H  H5  1  0.65992244  0.84075643  0.10357711  1  0.089856  0  0.10951  0.130803  0  1.013167  0
H  H6  1  0.84007763  0.84075643  0.60357788  1  0.089943  0  0.109508  0.130797  0  1.013172  0
H  H7  1  0.34007760  0.15924386  0.89642295  1  0.090084  0  0.109511  0.130795  0  1.013156  0
H  H8  1  0.13828750  0.08277155  0.49597793  1  0.087531  0  0.111856  0.140581  0  0.996874  0
H  H9  1  0.63828752  0.91722874  0.00402214  1  0.087533  0  0.111865  0.140605  0  0.996818  0
H  H10  1  0.86171255  0.91722874  0.50402291  1  0.087531  0  0.111868  0.1406  0  0.996842  0
H  H11  1  0.36171150  0.08277155  0.99597793  1  0.087523  0  0.111841  0.140553  0  0.996867  0
H  H12  1  0.98414090  0.23458383  0.59923780  1  0.071735  0  0.115441  0.093529  0  0.989005  0
H  H13  1  0.48413985  0.76541646  0.90076303  1  0.071726  0  0.115441  0.093526  0  0.989001  0
H  H14  1  0.01586018  0.76541646  0.40076226  1  0.071724  0  0.115437  0.093514  0  0.989007  0
H  H15  1  0.51585917  0.23458469  0.09923799  1  0.071734  0  0.115445  0.09352  0  0.989022  0
H  H16  1  0.14020141  0.29692238  0.56800139  1  0.100537  0  0.116647  0.104977  0  0.971911  0
H  H17  1  0.64020040  0.70307877  0.93199886  1  0.100562  0  0.116646  0.10499  0  0.97189  0
H  H18  1  0.85979864  0.70307877  0.43199886  1  0.100548  0  0.116642  0.104978  0  0.971888  0
H  H19  1  0.35979862  0.29692238  0.06800139  1  0.100547  0  0.116646  0.104976  0  0.97192  0
H  H20  1  0.76723864  0.31481919  0.55243001  1  0.134789  0  0.139355  0.104763  0  0.985709  0
H  H21  1  0.26723759  0.68518110  0.94757005  1  0.134632  0  0.139345  0.104762  0  0.985701  0
H  H22  1  0.23276141  0.68518110  0.44757005  1  0.134641  0  0.139358  0.104769  0  0.985699  0
H  H23  1  0.73276143  0.31482004  0.05243020  1  0.134793  0  0.139358  0.104774  0  0.985714  0
H  H24  1  0.92289268  0.58534354  0.14786702  1  0.516633  0  0.297364  0.318147  0  0.992674  0
H  H25  1  0.42289266  0.41465589  0.35213208  1  0.516633  0  0.297361  0.318131  0  0.992675  0
H  H26  1  0.07710737  0.41465589  0.85213208  1  0.516635  0  0.297365  0.318141  0  0.992665  0
H  H27  1  0.57710739  0.58534354  0.64786780  1  0.516634  0  0.297359  0.318132  0  0.992682  0
H  H28  1  0.10444998  0.56218276  0.12993931  1  0.538343  0  0.290532  0.298441  0  1.026556  0
H  H29  1  0.60445000  0.43781667  0.37006057  1  0.538343  0  0.290533  0.298436  0  1.026556  0
H  H30  1  0.89555111  0.43781753  0.87006076  1  0.53835  0  0.290539  0.298445  0  1.026571  0
H  H31  1  0.39555005  0.56218276  0.62993931  1  0.538345  0  0.290534  0.298439  0  1.026555  0
H  H32  1  0.18834631  0.84754795  0.35122681  1  0.042573  0  0.080921  0.162025  0  1.079749  0
H  H33  1  0.68834633  0.15245148  0.14877384  1  0.042575  0  0.080917  0.162026  0  1.079751  0
H  H34  1  0.81165477  0.15245062  0.64877365  1  0.042572  0  0.080914  0.162016  0  1.079767  0
H  H35  1  0.31165372  0.84754709  0.85122739  1  0.042547  0  0.080907  0.162019  0  1.079775  0
H  H36  1  0.33892720  0.93274057  0.35149820  1  0.01969  0  0.085302  0.166001  0  1.064556  0
H  H37  1  0.83892722  0.06725972  0.14850186  1  0.019682  0  0.085298  0.166004  0  1.064548  0
H  H38  1  0.66107285  0.06725972  0.64850186  1  0.019683  0  0.085298  0.166005  0  1.06455  0
H  H39  1  0.16107283  0.93273971  0.85149802  1  0.01969  0  0.085301  0.166032  0  1.064535  0
H  H40  1  0.32454862  0.79679924  0.25797522  1  0.048336  0  0.080957  0.165475  0  1.061772  0
H  H41  1  0.82454865  0.20320019  0.24202388  1  0.048348  0  0.080942  0.165441  0  1.061833  0
H  H42  1  0.67545246  0.20320019  0.74202388  1  0.048353  0  0.080946  0.165449  0  1.061825  0
H  H43  1  0.17545140  0.79679838  0.75797581  1  0.04833  0  0.080972  0.165498  0  1.061755  0
H  H44  1  0.07490972  0.81953731  0.00171107  1  0.05503  0  0.084978  0.173294  0  1.043914  0
H  H45  1  0.57490975  0.18046212  0.49828880  1  0.055034  0  0.084981  0.17329  0  1.043921  0
H  H46  1  0.92509032  0.18046126  0.99828861  1  0.05504  0  0.084981  0.173287  0  1.04393  0
H  H47  1  0.42509030  0.81953817  0.50171126  1  0.055036  0  0.084972  0.173276  0  1.043873  0
H  H48  1  0.93500345  0.90166451  0.07073374  1  0.030185  0  0.083009  0.162672  0  1.063308  0
H  H49  1  0.43500446  0.09833578  0.42926555  1  0.030192  0  0.083007  0.162669  0  1.063336  0
H  H50  1  0.06499660  0.09833492  0.92926536  1  0.030183  0  0.083011  0.162672  0  1.063287  0
H  H51  1  0.56499662  0.90166451  0.57073374  1  0.030176  0  0.083011  0.162662  0  1.063312  0
H  H52  1  0.99030565  0.77553717  0.10882011  1  0.066827  0  0.089917  0.187323  0  1.035536  0
H  H53  1  0.49030666  0.22446312  0.39117996  1  0.066815  0  0.089898  0.187287  0  1.035516  0
H  H54  1  0.00969336  0.22446226  0.89117977  1  0.066835  0  0.089904  0.187285  0  1.035524  0
H  H55  1  0.50969545  0.77553631  0.60881915  1  0.066754  0  0.089912  0.187304  0  1.035556  0
H  H56  1  0.17942986  0.13151760  0.09629611  1  0.027199  0  0.084153  0.166718  0  1.060138  0
H  H57  1  0.67942988  0.86848183  0.40370454  1  0.027193  0  0.084144  0.166705  0  1.060154  0
H  H58  1  0.82056916  0.86848183  0.90370454  1  0.027192  0  0.084146  0.16671  0  1.060152  0
H  H59  1  0.32057223  0.13151588  0.59629650  1  0.027216  0  0.084146  0.166705  0  1.060156  0
H  H60  1  0.27337138  0.16918587  0.21902196  1  0.078836  0  0.088042  0.180676  0  1.044935  0
H  H61  1  0.77337141  0.83081356  0.28097792  1  0.078827  0  0.088034  0.180663  0  1.044949  0
H  H62  1  0.72662866  0.83081356  0.78097792  1  0.078835  0  0.088036  0.180666  0  1.044967  0
H  H63  1  0.22663070  0.16918501  0.71902177  1  0.078881  0  0.088035  0.180628  0  1.044979  0
H  H64  1  0.08861043  0.17632534  0.21836727  1  0.044775  0  0.081226  0.163194  0  1.067162  0
H  H65  1  0.58861046  0.82367495  0.28163279  1  0.044785  0  0.081234  0.163211  0  1.067143  0
H  H66  1  0.91138858  0.82367495  0.78163279  1  0.044784  0  0.081236  0.163202  0  1.067162  0
H  H67  1  0.41139165  0.17632362  0.71836690  1  0.044801  0  0.081206  0.163174  0  1.067142  0
H  H68  1  0.22312066  0.47105433  0.24605897  1  0.543689  0  0.298323  0.269551  0  1.019297  0
H  H69  1  0.72312069  0.52894510  0.25394091  1  0.543689  0  0.298316  0.269549  0  1.019298  0
H  H70  1  0.77688042  0.52894510  0.75394091  1  0.543687  0  0.298319  0.269531  0  1.019312  0
H  H71  1  0.27687936  0.47105433  0.74605819  1  0.543689  0  0.298321  0.269557  0  1.019286  0
C  C72  1  0.96491204  0.07398595  0.39386145  1  1.547709  0  0.230937  0.632667  0  4.109673  0
C  C73  1  0.46491305  0.92601433  0.10613784  1  1.547693  0  0.230944  0.632644  0  4.109688  0
C  C74  1  0.03508801  0.92601433  0.60613861  1  1.547709  0  0.23095  0.632655  0  4.109673  0
C  C75  1  0.53508494  0.07398681  0.89386164  1  1.54767  0  0.231083  0.632839  0  4.109506  0
C  C76  1  0.13941727  0.38987048  0.35703623  1  1.303555  0  0.221053  0.467174  0  4.213199  0
C  C77  1  0.63941729  0.61012981  0.14296383  1  1.303559  0  0.221082  0.467279  0  4.213086  0
C  C78  1  0.86058175  0.61013153  0.64296575  1  1.303586  0  0.221046  0.467305  0  4.212991  0
C  C79  1  0.36058275  0.38987048  0.85703623  1  1.30355  0  0.221042  0.467148  0  4.213234  0
C  C80  1  0.08530262  0.14025079  0.45395229  1  -0.05974  0  -0.160239  -0.3449  0  3.901374  0
C  C81  1  0.58530264  0.85974864  0.04604759  1  -0.059522  0  -0.160235  -0.344906  0  3.901336  0
C  C82  1  0.91469743  0.85974864  0.54604759  1  -0.059612  0  -0.160243  -0.344918  0  3.901321  0
C  C83  1  0.41469741  0.14025165  0.95395248  1  -0.059746  0  -0.160226  -0.344856  0  3.901309  0
C  C84  1  0.00830049  0.37613622  0.40189857  1  0.341683  0  0.058092  -0.165558  0  4.012996  0
C  C85  1  0.50830051  0.62386407  0.09810227  1  0.341766  0  0.058073  -0.165565  0  4.013  0
C  C86  1  0.99169853  0.62386407  0.59810227  1  0.341715  0  0.058085  -0.165579  0  4.012944  0
C  C87  1  0.49169953  0.37613622  0.90189857  1  0.341736  0  0.058088  -0.165544  0  4.012997  0
C  C88  1  0.00738738  0.49518937  0.24631791  1  1.603952  0  0.347453  0.588386  0  4.108093  0
C  C89  1  0.50738741  0.50481006  0.25368197  1  1.603909  0  0.34746  0.588412  0  4.10805  0
C  C90  1  0.99261266  0.50481092  0.75368216  1  1.60395  0  0.34744  0.58835  0  4.108044  0
C  C91  1  0.49261367  0.49518937  0.74631791  1  1.603909  0  0.347431  0.588403  0  4.108064  0
C  C92  1  0.04641568  0.25152183  0.53390816  1  0.307522  0  -0.047183  -0.027155  0  3.875974  0
C  C93  1  0.54641570  0.74847846  0.96609190  1  0.307509  0  -0.04719  -0.027132  0  3.875947  0
C  C94  1  0.95358437  0.74847932  0.46609209  1  0.307527  0  -0.047182  -0.027104  0  3.87595  0
C  C95  1  0.45358435  0.25152269  0.03390835  1  0.307533  0  -0.047182  -0.027148  0  3.876001  0
C  C96  1  0.82748090  0.34632310  0.49454888  1  0.972165  0  0.156645  0.131538  0  3.953792  0
C  C97  1  0.32748088  0.65367719  0.00545119  1  0.97232  0  0.156654  0.131564  0  3.953815  0
C  C98  1  0.17251812  0.65367719  0.50545119  1  0.972322  0  0.156648  0.131566  0  3.953826  0
C  C99  1  0.67251917  0.34632396  0.99454907  1  0.972167  0  0.156641  0.131519  0  3.953801  0
C  C100  1  0.88941421  0.42431094  0.36847243  1  0.981233  0  0.201134  0.30019  0  4.198634  0
C  C101  1  0.38941419  0.57568849  0.13152745  1  0.981181  0  0.201132  0.300165  0  4.198633  0
C  C102  1  0.11058481  0.57568935  0.63152764  1  0.981189  0  0.201161  0.300213  0  4.198551  0
C  C103  1  0.61058586  0.42431180  0.86847262  1  0.98118  0  0.201125  0.300149  0  4.198658  0
C  C104  1  0.26773386  0.87277840  0.30100642  1  -0.419909  0  -0.336515  -0.738149  0  3.742482  0
C  C105  1  0.76773389  0.12722103  0.19899268  1  -0.419918  0  -0.336489  -0.738109  0  3.742506  0
C  C106  1  0.73226619  0.12722103  0.69899268  1  -0.419917  0  -0.336491  -0.738123  0  3.7425  0
C  C107  1  0.23226616  0.87277754  0.80100778  1  -0.419892  0  -0.336532  -0.738235  0  3.742511  0
C  C108  1  0.02513877  0.84934098  0.07939265  1  -0.46735  0  -0.335985  -0.738887  0  3.712307  0
C  C109  1  0.52513880  0.15065845  0.42060723  1  -0.467344  0  -0.335963  -0.738845  0  3.712317  0
C  C110  1  0.97486128  0.15065845  0.92060723  1  -0.467381  0  -0.33595  -0.738813  0  3.712296  0
C  C111  1  0.47486228  0.84934098  0.57939265  1  -0.46728  0  -0.335944  -0.7388  0  3.712281  0
C  C112  1  0.17921938  0.12926665  0.18047908  1  -0.453728  0  -0.339612  -0.750807  0  3.746329  0
C  C113  1  0.67922044  0.87073364  0.31952098  1  -0.453723  0  -0.339612  -0.750808  0  3.746346  0
C  C114  1  0.82077964  0.87073278  0.81952079  1  -0.453723  0  -0.33961  -0.750809  0  3.746357  0
C  C115  1  0.32078271  0.12926493  0.68047948  1  -0.453803  0  -0.339576  -0.750703  0  3.746299  0
N  N116  1  0.12793278  0.45110761  0.27740955  1  -1.259491  0  -0.38397  -0.432688  0  3.484573  0
N  N117  1  0.62793280  0.54889182  0.22258955  1  -1.259483  0  -0.383958  -0.43271  0  3.484549  0
N  N118  1  0.87206521  0.54889268  0.72258974  1  -1.259518  0  -0.383984  -0.432706  0  3.484512  0
N  N119  1  0.37206725  0.45110761  0.77741032  1  -1.259474  0  -0.383953  -0.432693  0  3.48458  0
N  N120  1  0.96576530  0.32740649  0.48407468  1  -1.201209  0  -0.24245  0.005725  0  3.751894  0
N  N121  1  0.46576528  0.67259466  0.01592634  1  -1.201194  0  -0.242449  0.005634  0  3.751882  0
N  N122  1  0.03423475  0.67259466  0.51592634  1  -1.201197  0  -0.24245  0.005626  0  3.751912  0
N  N123  1  0.53423477  0.32740649  0.98407391  1  -1.201211  0  -0.242429  0.005768  0  3.751824  0
N  N124  1  0.88529234  0.48291823  0.29106660  1  -1.263868  0  -0.349182  -0.495836  0  3.312608  0
N  N125  1  0.38529232  0.51708119  0.20893251  1  -1.263822  0  -0.349189  -0.495865  0  3.31263  0
N  N126  1  0.11470668  0.51708119  0.70893328  1  -1.263813  0  -0.349179  -0.495828  0  3.312616  0
N  N127  1  0.61470773  0.48291823  0.79106737  1  -1.263838  0  -0.349176  -0.495841  0  3.312613  0
N  N128  1  0.77724463  0.40472764  0.42698583  1  -1.191196  0  -0.33452  -0.382949  0  3.26001  0
N  N129  1  0.27724460  0.59527265  0.07301423  1  -1.191199  0  -0.334537  -0.382938  0  3.260017  0
N  N130  1  0.22275542  0.59527265  0.57301423  1  -1.191175  0  -0.33454  -0.382961  0  3.259959  0
N  N131  1  0.72275545  0.40472849  0.92698602  1  -1.191213  0  -0.334528  -0.382944  0  3.260037  0
N  N132  1  0.01407730  0.55299767  0.16960156  1  -1.361279  0  -0.571094  -0.643525  0  3.312301  0
N  N133  1  0.51407732  0.44700176  0.33039831  1  -1.361271  0  -0.571085  -0.643495  0  3.31226  0
N  N134  1  0.98592275  0.44700176  0.83039754  1  -1.361267  0  -0.571088  -0.643503  0  3.312296  0
N  N135  1  0.48592272  0.55299767  0.66960156  1  -1.361278  0  -0.571079  -0.643506  0  3.312272  0
O  O136  1  0.84352164  0.09784693  0.43193846  1  -1.19115  0  -0.279528  -0.538898  0  2.26374  0
O  O137  1  0.34352161  0.90215422  0.06806024  1  -1.191168  0  -0.279536  -0.538887  0  2.263728  0
O  O138  1  0.15647841  0.90215422  0.56806102  1  -1.191207  0  -0.279532  -0.538884  0  2.263738  0
O  O139  1  0.65647431  0.09784693  0.93194001  1  -1.191064  0  -0.279609  -0.539028  0  2.263809  0
O  O140  1  0.98574735  0.99737733  0.30894397  1  -1.203083  0  -0.278884  -0.548916  0  2.28676  0
O  O141  1  0.48574733  0.00262296  0.19105687  1  -1.20308  0  -0.278899  -0.548921  0  2.286743  0
O  O142  1  0.01425270  0.00262296  0.69105687  1  -1.2031  0  -0.278907  -0.548939  0  2.286754  0
O  O143  1  0.51425375  0.99737561  0.80894359  1  -1.203109  0  -0.27896  -0.549029  0  2.286711  0
O  O144  1  0.25400942  0.35459922  0.38072522  1  -1.167155  0  -0.308899  -0.509381  0  2.153231  0
O  O145  1  0.75400945  0.64540193  0.11927581  1  -1.167173  0  -0.308897  -0.509426  0  2.153208  0
O  O146  1  0.74598856  0.64540450  0.61927792  1  -1.167207  0  -0.308871  -0.509424  0  2.153177  0
O  O147  1  0.24599060  0.35459922  0.88072522  1  -1.167157  0  -0.308902  -0.509381  0  2.153239  0
