# generated using pymatgen
data_NiH6(C2N7)2
_symmetry_space_group_name_H-M   'P 1'
_cell_length_a   6.43305066
_cell_length_b   9.51568928
_cell_length_c   9.81459189
_cell_angle_alpha   67.49405668
_cell_angle_beta   81.09289842
_cell_angle_gamma   67.11258912
_symmetry_Int_Tables_number   1
_chemical_formula_structural   NiH6(C2N7)2
_chemical_formula_sum   'Ni2 H12 C8 N28'
_cell_volume   511.33184706
_cell_formula_units_Z   2
loop_
 _symmetry_equiv_pos_site_id
 _symmetry_equiv_pos_as_xyz
  1  'x, y, z'
loop_
 _atom_site_type_symbol
 _atom_site_label
 _atom_site_symmetry_multiplicity
 _atom_site_fract_x
 _atom_site_fract_y
 _atom_site_fract_z
 _atom_site_occupancy
 _atom_site_hle17_ddec_charge
 _atom_site_hle17_ddec_spin_density
 _atom_site_hle17_ddec_sum_bond_order
 _atom_site_hle17_magmom
 _atom_site_hse06_10hf_ddec_charge
 _atom_site_hse06_10hf_ddec_spin_density
 _atom_site_hse06_10hf_ddec_sum_bond_order
 _atom_site_hse06_10hf_magmom
 _atom_site_hse06_ddec_charge
 _atom_site_hse06_ddec_spin_density
 _atom_site_hse06_ddec_sum_bond_order
 _atom_site_hse06_magmom
 _atom_site_pbe_cm5_charge
 _atom_site_pbe_ddec_charge
 _atom_site_pbe_ddec_spin_density
 _atom_site_pbe_ddec_sum_bond_order
 _atom_site_pbe_magmom
Ni  Ni0  1  0.99999983  0.99999884  0.00000144  1  0.531854  0.059647  2.51074  0.027  0.544022  0.086576  2.96786  0.032  0.659536  0.116952  2.86721  0.039  0.672199  0.478858  -0.010209  3.030134  -0.011
Ni  Ni1  1  0.49999776  0.00000019  0.49999926  1  0.646805  -1.698433  2.402014  -1.348  0.704311  -1.804909  2.786129  -1.511  0.802519  -1.919229  2.701377  -1.635  0.68847  0.639145  -1.669385  2.842797  -1.391
H  H2  1  0.53807669  0.87414882  0.06397780  1  0.126336  -0.000233  0.955312  0.0  0.131539  -0.000263  1.026385  0.0  0.134377  -3.1e-05  1.022294  0.0  0.152548  0.129763  -0.000499  1.028254  0.0
H  H3  1  0.46192584  0.12584755  0.93602524  1  0.12635  -0.000233  0.95526  0.0  0.131541  -0.000264  1.026334  0.0  0.13438  -3.1e-05  1.02224  0.0  0.152551  0.129764  -0.000499  1.028205  0.0
H  H4  1  0.91144804  0.61810957  0.09943672  1  0.104347  -0.000457  0.979673  0.0  0.107906  -0.000328  1.061653  0.0  0.109867  -0.000231  1.059773  0.0  0.122302  0.106542  -0.000455  1.062271  0.0
H  H5  1  0.08855554  0.38188805  0.90056484  1  0.104317  -0.000458  0.979694  0.0  0.107855  -0.000328  1.061698  0.0  0.109816  -0.000231  1.059817  0.0  0.122284  0.106493  -0.000455  1.062313  0.0
H  H6  1  0.87817480  0.43344736  0.11882743  1  0.099299  -3.9e-05  0.946637  0.0  0.109137  -6.3e-05  1.016324  0.0  0.110218  -4.2e-05  1.015173  0.0  0.121951  0.108598  -8.9e-05  1.016343  0.0
H  H7  1  0.12182966  0.56655134  0.88117578  1  0.099247  -4e-05  0.946627  0.0  0.109087  -6.3e-05  1.016327  0.0  0.110168  -4.2e-05  1.015175  0.0  0.121914  0.108544  -8.9e-05  1.016357  0.0
H  H8  1  0.78772372  0.21457898  0.28061042  1  0.128325  4e-05  0.949273  0.0  0.133425  -5e-06  1.016944  0.0  0.136419  1.4e-05  1.013125  0.0  0.150837  0.130902  5.2e-05  1.020433  0.0
H  H9  1  0.21227126  0.78542367  0.71938910  1  0.128284  3.9e-05  0.949254  0.0  0.13341  -5e-06  1.01692  0.0  0.136402  1.4e-05  1.013102  0.0  0.15084  0.130887  5.2e-05  1.020411  0.0
H  H10  1  0.81232792  0.57313439  0.36661631  1  0.10461  -9.3e-05  0.917437  0.0  0.114187  -7.9e-05  0.98517  0.0  0.116087  -6e-05  0.983749  0.0  0.124448  0.112499  -0.000125  0.986646  0.0
H  H11  1  0.18766929  0.42686707  0.63338241  1  0.104625  -9.3e-05  0.917402  0.0  0.114223  -7.9e-05  0.985122  0.0  0.116123  -6e-05  0.983701  0.0  0.124463  0.112522  -0.000125  0.986609  0.0
H  H12  1  0.05971172  0.41597830  0.33613588  1  0.112561  0.000126  0.910531  0.0  0.12396  0.000139  0.975374  0.0  0.124778  0.000125  0.97506  0.0  0.12459  0.123402  0.00015  0.975487  0.0
H  H13  1  0.94029239  0.58401805  0.66386707  1  0.112553  0.000126  0.910586  0.0  0.123977  0.000139  0.97541  0.0  0.124795  0.000124  0.975095  0.0  0.124605  0.123419  0.00015  0.975522  0.0
C  C14  1  0.46466540  0.78389432  0.08038536  1  0.175272  -0.00085  3.596184  -0.001  0.089355  -0.000399  3.872769  0.0  0.115876  -0.000187  3.889668  0.0  0.188994  0.077893  -0.000566  3.865532  0.0
C  C15  1  0.53533661  0.21610332  0.91961629  1  0.175427  -0.000849  3.596022  -0.001  0.089532  -0.000399  3.872546  0.0  0.116059  -0.000188  3.889443  0.0  0.189073  0.078065  -0.000566  3.86531  0.0
C  C16  1  0.82165431  0.53485282  0.16001388  1  -0.045246  -0.000185  3.596101  0.0  -0.119854  -0.000123  3.844045  0.0  -0.108711  -2.9e-05  3.859765  0.0  -0.045659  -0.120934  -0.000338  3.836428  0.0
C  C17  1  0.17834454  0.46514868  0.83998371  1  -0.045171  -0.000184  3.596044  0.0  -0.119776  -0.000123  3.844067  0.0  -0.108629  -2.9e-05  3.859788  0.0  -0.045633  -0.12086  -0.000338  3.836451  0.0
C  C18  1  0.73750716  0.23989004  0.38204864  1  0.16859  0.009407  3.604875  0.006  0.092335  0.002681  3.873892  0.001  0.107164  0.003033  3.885318  0.002  0.180969  0.082441  0.003685  3.866744  0.001
C  C19  1  0.26248828  0.76011127  0.61795331  1  0.168666  0.009407  3.604732  0.006  0.092353  0.002681  3.873803  0.001  0.107182  0.003033  3.885227  0.002  0.180965  0.082455  0.003686  3.866661  0.001
C  C20  1  0.87534788  0.47338448  0.32332641  1  -0.025081  -0.000372  3.575298  0.0  -0.099208  -0.000284  3.829905  0.0  -0.095194  -0.000188  3.836801  0.0  -0.03685  -0.101206  -0.000352  3.824035  0.0
C  C21  1  0.12465611  0.52661556  0.67667437  1  -0.02505  -0.000373  3.575424  0.0  -0.099219  -0.000285  3.830049  0.0  -0.095206  -0.000187  3.836945  0.0  -0.036844  -0.101213  -0.000352  3.824178  0.0
N  N22  1  0.24897088  0.15185090  0.22358615  1  0.37079  0.019953  4.225939  0.021  0.42738  -0.00052  4.521722  0.0  0.447458  0.000741  4.554041  0.001  0.066589  0.414182  -0.000863  4.499619  -0.001
N  N23  1  0.75103340  0.84815143  0.77641594  1  0.370802  0.019945  4.225834  0.021  0.42742  -0.000524  4.521581  0.0  0.447499  0.000739  4.553901  0.001  0.066618  0.41422  -0.000866  4.499475  -0.001
N  N24  1  0.18665186  0.10343094  0.72284283  1  0.378664  0.016552  4.10224  0.017  0.430453  -0.002143  4.420976  -0.001  0.453724  0.00063  4.462004  0.001  0.09976  0.414359  -0.002488  4.393319  -0.003
N  N25  1  0.81334646  0.89656803  0.27715762  1  0.378684  0.016551  4.102221  0.017  0.430482  -0.002143  4.420952  -0.001  0.453753  0.00063  4.461978  0.001  0.099781  0.414386  -0.002489  4.393303  -0.003
N  N26  1  0.58211286  0.62301223  0.12694661  1  0.034145  0.000223  3.520312  0.0  0.158066  0.000322  3.704577  0.0  0.115558  0.000458  3.769948  0.0  -0.114066  0.164574  -3.4e-05  3.691794  0.0
N  N27  1  0.41788914  0.37698542  0.87305504  1  0.034056  0.000222  3.520188  0.0  0.157956  0.000322  3.704484  0.0  0.115436  0.000459  3.769872  0.0  -0.114097  0.164481  -3.4e-05  3.691674  0.0
N  N28  1  0.63628726  0.16309547  0.49801854  1  -0.225216  -0.043784  3.239862  -0.063  -0.194545  -0.033959  3.553977  -0.049  -0.222822  -0.028585  3.572671  -0.043  -0.219699  -0.175969  -0.036859  3.541757  -0.054
N  N29  1  0.36371012  0.83690817  0.50198358  1  -0.225226  -0.043783  3.239772  -0.063  -0.194542  -0.033959  3.553899  -0.049  -0.222814  -0.028584  3.572585  -0.043  -0.219709  -0.175967  -0.036857  3.541686  -0.054
N  N30  1  0.25213093  0.80474150  0.06415832  1  -0.194172  0.00505  3.321764  0.004  -0.155681  0.007966  3.646182  0.005  -0.191393  0.010508  3.65969  0.006  -0.233259  -0.134732  0.00032  3.636979  0.0
N  N31  1  0.74787224  0.19525371  0.93584402  1  -0.194366  0.005049  3.321831  0.004  -0.155817  0.007966  3.646198  0.005  -0.191529  0.010509  3.659698  0.006  -0.233298  -0.134867  0.00032  3.636998  0.0
N  N32  1  0.38404083  0.15753372  0.29010054  1  -0.486214  -0.02796  2.69423  -0.047  -0.523784  -0.014556  3.00696  -0.026  -0.552227  -0.003718  3.015411  -0.013  -0.28771  -0.504399  -0.022012  3.000491  -0.036
N  N33  1  0.61595328  0.84246784  0.70989733  1  -0.486301  -0.027999  2.693706  -0.047  -0.523897  -0.014567  3.006421  -0.026  -0.55235  -0.003724  3.014875  -0.013  -0.2878  -0.504515  -0.022027  2.999961  -0.036
N  N34  1  0.77300625  0.35409789  0.41357014  1  0.02635  -0.001522  3.536238  -0.003  0.147035  -0.000611  3.723807  -0.001  0.135729  -0.000499  3.745108  -0.001  -0.118084  0.153176  -0.000538  3.711315  -0.001
N  N35  1  0.22699359  0.64590100  0.58643127  1  0.026278  -0.001521  3.536284  -0.003  0.146981  -0.000611  3.7239  -0.001  0.135674  -0.000499  3.745201  -0.001  -0.118128  0.153148  -0.000538  3.711357  -0.001
N  N36  1  0.69392774  0.34689096  0.55138945  1  -0.095501  -0.002123  2.864867  -0.003  -0.120282  -0.001667  3.160821  -0.003  -0.117252  -0.001082  3.169004  -0.002  -0.075582  -0.121319  -0.002171  3.154724  -0.003
N  N37  1  0.30606999  0.65310923  0.44861066  1  -0.095498  -0.002122  2.864846  -0.003  -0.120278  -0.001667  3.16079  -0.003  -0.117247  -0.001082  3.168974  -0.002  -0.075561  -0.121316  -0.002171  3.154691  -0.003
N  N38  1  0.61154062  0.23153577  0.60121562  1  -0.054282  0.004211  2.928735  0.004  -0.050693  0.000558  3.246975  0.0  -0.047286  0.000771  3.259529  0.001  -0.073372  -0.052505  0.000998  3.238209  0.0
N  N39  1  0.38845646  0.76846558  0.39878519  1  -0.054243  0.004211  2.928676  0.004  -0.050639  0.000558  3.246891  0.0  -0.047232  0.000771  3.259443  0.001  -0.073335  -0.052451  0.000998  3.238131  0.0
N  N40  1  0.20331312  0.12232736  0.59649594  1  -0.333735  -0.025498  2.626291  -0.041  -0.387661  -0.026527  2.939783  -0.038  -0.420599  -0.024205  2.955115  -0.036  -0.19974  -0.364853  -0.017028  2.929425  -0.028
N  N41  1  0.79668409  0.87767410  0.40350279  1  -0.333688  -0.025493  2.626308  -0.041  -0.387617  -0.026527  2.939799  -0.038  -0.420551  -0.024205  2.955132  -0.036  -0.199727  -0.364813  -0.017025  2.929449  -0.028
N  N42  1  0.44035010  0.54363677  0.14047045  1  -0.078184  0.000486  2.861239  0.0  -0.106193  0.000702  3.157106  0.0  -0.095365  0.000818  3.172672  0.001  -0.060739  -0.106675  8.6e-05  3.150846  0.0
N  N43  1  0.55965368  0.45636103  0.85952797  1  -0.078163  0.000485  2.861266  0.0  -0.106168  0.000701  3.157146  0.0  -0.095336  0.000819  3.172715  0.001  -0.060747  -0.106655  8.6e-05  3.150891  0.0
N  N44  1  0.24214186  0.65352589  0.10295067  1  -0.028313  0.000213  2.917351  0.0  -0.019742  0.000461  3.225263  0.0  -0.013646  0.000409  3.232721  0.0  -0.053385  -0.023293  2e-06  3.218934  0.0
N  N45  1  0.75786133  0.34647312  0.89704741  1  -0.028248  0.000215  2.917294  0.0  -0.019699  0.000461  3.225201  0.0  -0.013602  0.000407  3.232657  0.0  -0.053368  -0.023251  2e-06  3.218878  0.0
N  N46  1  0.17912855  0.09415866  0.84841074  1  -0.391952  -0.059644  2.787268  -0.079  -0.428172  -0.034977  3.132767  -0.044  -0.472954  -0.02651  3.144905  -0.034  -0.260241  -0.399089  -0.038649  3.123753  -0.05
N  N47  1  0.82087142  0.90584034  0.15158857  1  -0.392013  -0.059642  2.787219  -0.079  -0.428247  -0.034976  3.132726  -0.044  -0.473035  -0.026512  3.144873  -0.034  -0.260283  -0.399164  -0.038647  3.123714  -0.05
N  N48  1  0.11436953  0.15350465  0.15292125  1  -0.460735  -0.074102  2.472315  -0.095  -0.483144  -0.037152  2.740661  -0.047  -0.500852  -0.030998  2.745256  -0.041  -0.234945  -0.472376  -0.042427  2.737881  -0.053
N  N49  1  0.88562623  0.84649695  0.84707548  1  -0.46064  -0.074073  2.472746  -0.095  -0.483068  -0.037146  2.741084  -0.047  -0.500767  -0.030996  2.74567  -0.041  -0.234892  -0.472299  -0.042422  2.738298  -0.053
