# generated using pymatgen
data_CuH4C10(N3O)2
_symmetry_space_group_name_H-M   'P 1'
_cell_length_a   7.05774825
_cell_length_b   7.05770723
_cell_length_c   12.14601752
_cell_angle_alpha   92.94540744
_cell_angle_beta   92.94663071
_cell_angle_gamma   109.11722083
_symmetry_Int_Tables_number   1
_chemical_formula_structural   CuH4C10(N3O)2
_chemical_formula_sum   'Cu2 H8 C20 N12 O4'
_cell_volume   569.39578078
_cell_formula_units_Z   2
loop_
 _symmetry_equiv_pos_site_id
 _symmetry_equiv_pos_as_xyz
  1  'x, y, z'
loop_
 _atom_site_type_symbol
 _atom_site_label
 _atom_site_symmetry_multiplicity
 _atom_site_fract_x
 _atom_site_fract_y
 _atom_site_fract_z
 _atom_site_occupancy
 _atom_site_hle17_ddec_charge
 _atom_site_hle17_ddec_spin_density
 _atom_site_hle17_ddec_sum_bond_order
 _atom_site_hle17_magmom
 _atom_site_hse06_10hf_ddec_charge
 _atom_site_hse06_10hf_ddec_spin_density
 _atom_site_hse06_10hf_ddec_sum_bond_order
 _atom_site_hse06_10hf_magmom
 _atom_site_hse06_ddec_charge
 _atom_site_hse06_ddec_spin_density
 _atom_site_hse06_ddec_sum_bond_order
 _atom_site_hse06_magmom
 _atom_site_pbe_cm5_charge
 _atom_site_pbe_ddec_charge
 _atom_site_pbe_ddec_spin_density
 _atom_site_pbe_ddec_sum_bond_order
 _atom_site_pbe_magmom
Cu  Cu0  1  0.00001147  0.00000366  0.99999833  1  0.961821  -0.668018  1.921226  -0.462  1.024064  -0.825525  2.305948  -0.692  1.097659  -0.887049  2.250144  -0.781  0.83561  0.968482  -0.756057  2.34691  -0.6
Cu  Cu1  1  0.99999872  0.00000319  0.49999621  1  0.961853  -0.66803  1.921182  -0.462  1.024027  -0.825497  2.306053  -0.692  1.097592  -0.887025  2.250238  -0.781  0.835675  0.968443  -0.756078  2.346985  -0.6
H  H2  1  0.95324884  0.35857100  0.08284930  1  0.398509  -2.3e-05  0.909714  0.0  0.374725  1.1e-05  0.965109  0.0  0.38438  1.4e-05  0.951078  0.0  0.283495  0.36783  -1.1e-05  0.975085  0.0
H  H3  1  0.64141049  0.04674440  0.41715360  1  0.398491  -2.1e-05  0.909736  0.0  0.374738  1.1e-05  0.965068  0.0  0.384392  1.4e-05  0.951039  0.0  0.28355  0.367841  -1.1e-05  0.975052  0.0
H  H4  1  0.04676201  0.64142706  0.91715346  1  0.398652  -2.3e-05  0.909535  0.0  0.374832  1.1e-05  0.964992  0.0  0.384489  1.4e-05  0.950954  0.0  0.283549  0.367932  -1.1e-05  0.97498  0.0
H  H5  1  0.35857804  0.95324623  0.58285084  1  0.398664  -1.9e-05  0.909537  0.0  0.374848  1.1e-05  0.964985  0.0  0.384504  1.4e-05  0.95095  0.0  0.283554  0.367945  -1.1e-05  0.974979  0.0
H  H6  1  0.15510790  0.42368272  0.02523556  1  0.395101  -0.000104  0.918542  0.0  0.370112  -1.5e-05  0.9769  0.0  0.379808  1.1e-05  0.962878  0.0  0.281781  0.363101  -8.9e-05  0.986972  0.0
H  H7  1  0.57631108  0.84489298  0.47477236  1  0.394987  -0.000101  0.918715  0.0  0.369999  -1.5e-05  0.977071  0.0  0.379693  1.1e-05  0.963052  0.0  0.281743  0.362988  -8.9e-05  0.987144  0.0
H  H8  1  0.84489969  0.57631835  0.97476638  1  0.395102  -0.000104  0.91853  0.0  0.370123  -1.5e-05  0.976869  0.0  0.379818  1.1e-05  0.962848  0.0  0.281784  0.363114  -8.9e-05  0.986938  0.0
H  H9  1  0.42367932  0.15509469  0.52523535  1  0.395182  -0.000103  0.918408  0.0  0.370208  -1.5e-05  0.976737  0.0  0.379903  1.1e-05  0.962717  0.0  0.281852  0.363199  -8.9e-05  0.986808  0.0
C  C10  1  0.60632443  0.39369506  0.75001078  1  0.163296  0.059381  3.789146  0.05  0.160064  0.00476  4.057874  0.004  0.182002  0.002461  4.076753  0.002  0.046528  0.14253  0.006745  4.043022  0.007
C  C11  1  0.39367719  0.60631358  0.24999284  1  0.163233  0.059285  3.78935  0.05  0.159977  0.004771  4.058088  0.004  0.181913  0.002475  4.076972  0.002  0.046491  0.142444  0.006746  4.04324  0.007
C  C12  1  0.48232319  0.51768295  0.75001294  1  -0.164341  -0.057893  3.887505  -0.055  -0.173011  -0.0031  4.159035  -0.004  -0.19244  -0.000385  4.181238  -0.001  -0.027222  -0.157039  -0.008848  4.140862  -0.009
C  C13  1  0.51767398  0.48231664  0.24998867  1  -0.164341  -0.057953  3.887462  -0.055  -0.172958  -0.003116  4.158907  -0.004  -0.192388  -0.000403  4.181117  -0.001  -0.027191  -0.156993  -0.00885  4.140742  -0.009
C  C14  1  0.76663537  0.43108273  0.67793182  1  -0.154989  -0.088415  3.88654  -0.085  -0.183253  -0.012511  4.16378  -0.015  -0.209152  -0.004006  4.187786  -0.006  -0.021051  -0.158664  -0.026652  4.141747  -0.028
C  C15  1  0.56892356  0.23337780  0.82207929  1  -0.155076  -0.088296  3.886756  -0.085  -0.183311  -0.012493  4.163981  -0.015  -0.209208  -0.003994  4.187976  -0.006  -0.02101  -0.158715  -0.026641  4.14193  -0.028
C  C16  1  0.23336809  0.56892733  0.32206613  1  -0.154959  -0.088388  3.886131  -0.085  -0.18312  -0.012521  4.163263  -0.015  -0.209007  -0.004018  4.187253  -0.006  -0.020933  -0.158532  -0.026645  4.141221  -0.028
C  C17  1  0.43107649  0.76662627  0.17792005  1  -0.154957  -0.088354  3.886722  -0.085  -0.183283  -0.012501  4.164095  -0.015  -0.209187  -0.003999  4.188108  -0.006  -0.02101  -0.158693  -0.026653  4.142049  -0.028
C  C18  1  0.84685913  0.61682888  0.63218137  1  0.347739  0.047709  3.758594  0.035  0.358536  0.007091  4.023558  0.0  0.381864  0.007947  4.041003  0.0  0.219124  0.338878  0.005958  4.012072  0.0
C  C19  1  0.38320039  0.15311039  0.86782029  1  0.347723  0.047661  3.758359  0.035  0.358516  0.007093  4.023339  0.0  0.381847  0.007945  4.040786  0.0  0.219026  0.338855  0.00596  4.011844  0.0
C  C20  1  0.15312814  0.38317077  0.36782163  1  0.347718  0.047539  3.758687  0.035  0.358469  0.007086  4.023644  0.0  0.381789  0.00795  4.041088  0.0  0.219089  0.338817  0.005953  4.012154  0.0
C  C21  1  0.61680274  0.84688163  0.13217881  1  0.347524  0.047677  3.758421  0.035  0.358331  0.007093  4.023456  0.0  0.381659  0.007944  4.040908  0.0  0.218975  0.338672  0.005961  4.011957  0.0
C  C22  1  0.71051457  0.14331886  0.85391078  1  0.323767  0.043917  3.782889  0.032  0.334242  0.003189  4.052989  -0.003  0.357658  0.003013  4.069636  -0.003  0.206569  0.314283  0.003271  4.042488  -0.002
C  C23  1  0.85666024  0.28949478  0.64607295  1  0.323652  0.044066  3.782282  0.032  0.334138  0.003193  4.052433  -0.003  0.357558  0.003021  4.069092  -0.003  0.206477  0.314179  0.003275  4.041928  -0.002
C  C24  1  0.28950731  0.85669557  0.14608119  1  0.323805  0.043965  3.782756  0.032  0.334308  0.00319  4.05291  -0.003  0.357728  0.003013  4.069561  -0.003  0.206528  0.314351  0.003273  4.042398  -0.002
C  C25  1  0.14332672  0.71051683  0.35392460  1  0.323596  0.043929  3.782808  0.032  0.334036  0.003189  4.052932  -0.003  0.357452  0.003027  4.069584  -0.003  0.20645  0.314079  0.003272  4.042434  -0.002
C  C26  1  0.37779019  0.54616270  0.84103492  1  0.335805  0.023171  3.787035  0.019  0.317386  0.000784  4.065496  0.001  0.333453  0.000157  4.085496  0.0  0.200304  0.306429  0.001382  4.050056  0.001
C  C27  1  0.45382277  0.62219801  0.65898664  1  0.335701  0.023162  3.788006  0.019  0.317306  0.000783  4.066421  0.001  0.333373  0.000155  4.086418  0.0  0.200263  0.306352  0.001381  4.050983  0.001
C  C28  1  0.62221820  0.45382788  0.15897088  1  0.335851  0.023171  3.787266  0.019  0.317426  0.000783  4.065707  0.001  0.333493  0.000158  4.085702  0.0  0.200346  0.30647  0.001382  4.050259  0.001
C  C29  1  0.54615566  0.37778805  0.34101082  1  0.335747  0.023166  3.787884  0.019  0.317331  0.000784  4.066319  0.001  0.333399  0.000159  4.086316  0.0  0.200215  0.306379  0.001382  4.050878  0.001
N  N30  1  0.92133386  0.77034106  0.59424550  1  -0.418774  -0.084991  2.926562  -0.094  -0.415981  -0.046851  3.209979  -0.063  -0.445907  -0.036541  3.216744  -0.052  -0.345118  -0.395482  -0.053432  3.207357  -0.066
N  N31  1  0.22967274  0.07866766  0.90575941  1  -0.418833  -0.084985  2.92617  -0.094  -0.41607  -0.046859  3.209587  -0.063  -0.446003  -0.036547  3.216361  -0.052  -0.345118  -0.395565  -0.053441  3.206965  -0.066
N  N32  1  0.07867156  0.22967497  0.40574937  1  -0.418712  -0.084792  2.927019  -0.094  -0.415881  -0.046836  3.21041  -0.063  -0.445799  -0.036535  3.217174  -0.052  -0.345075  -0.395388  -0.053416  3.20778  -0.066
N  N33  1  0.77032861  0.92133186  0.09423738  1  -0.418656  -0.084995  2.926084  -0.094  -0.415901  -0.046857  3.209501  -0.063  -0.445835  -0.036543  3.216279  -0.052  -0.345039  -0.395391  -0.053445  3.206869  -0.066
N  N34  1  0.81878276  0.05689229  0.88227845  1  -0.419205  -0.076143  2.890573  -0.085  -0.421744  -0.039924  3.175587  -0.055  -0.449776  -0.030168  3.182481  -0.045  -0.344362  -0.402479  -0.046476  3.17293  -0.059
N  N35  1  0.94310473  0.18121118  0.61770163  1  -0.419251  -0.076289  2.889794  -0.086  -0.421841  -0.039937  3.174901  -0.055  -0.449883  -0.030178  3.181796  -0.045  -0.344395  -0.402566  -0.046502  3.172235  -0.059
N  N36  1  0.18121775  0.94311324  0.11771765  1  -0.419341  -0.076198  2.890449  -0.086  -0.421911  -0.039928  3.175491  -0.055  -0.44995  -0.030168  3.182388  -0.045  -0.344413  -0.402639  -0.046487  3.172825  -0.059
N  N37  1  0.05690234  0.81879280  0.38229296  1  -0.419172  -0.076107  2.890539  -0.085  -0.421713  -0.039924  3.175598  -0.055  -0.449748  -0.030174  3.182489  -0.045  -0.344389  -0.402447  -0.046486  3.172939  -0.059
N  N38  1  0.29139161  0.57981678  0.91554469  1  -0.458476  -0.030363  2.719459  -0.033  -0.435222  -0.00126  2.958999  -0.002  -0.453237  2.7e-05  2.970731  0.0  -0.314688  -0.421297  -0.004017  2.949781  -0.005
N  N39  1  0.42017259  0.70859901  0.58448205  1  -0.458453  -0.030356  2.720005  -0.033  -0.435223  -0.001258  2.95952  -0.002  -0.453238  2.8e-05  2.971249  0.0  -0.314733  -0.421305  -0.004016  2.950309  -0.005
N  N40  1  0.70861946  0.42019035  0.08446162  1  -0.45854  -0.030349  2.719687  -0.033  -0.435324  -0.001252  2.959238  -0.002  -0.453337  3.3e-05  2.970964  0.0  -0.314772  -0.421399  -0.004017  2.950011  -0.005
N  N41  1  0.57980730  0.29138710  0.41551875  1  -0.458462  -0.030354  2.71983  -0.033  -0.435276  -0.001254  2.959364  -0.002  -0.453292  3e-05  2.971091  0.0  -0.314691  -0.42136  -0.004018  2.950148  -0.005
O  O42  1  0.08147627  0.33262270  0.07908095  1  -0.829678  -0.001505  1.904938  -0.003  -0.804115  0.001407  2.074331  0.0  -0.822451  0.002022  2.044994  0.001  -0.593394  -0.78937  -0.000843  2.094827  -0.002
O  O43  1  0.66735665  0.91851585  0.42091987  1  -0.829565  -0.001512  1.905138  -0.003  -0.804016  0.001409  2.074531  0.0  -0.822339  0.002025  2.045185  0.001  -0.593413  -0.78922  -0.000839  2.094928  -0.002
O  O44  1  0.91853067  0.66737230  0.92091669  1  -0.82984  -0.001507  1.904771  -0.003  -0.804271  0.001407  2.074199  0.0  -0.822606  0.002022  2.044861  0.001  -0.593454  -0.7895  -0.000843  2.094653  -0.002
O  O45  1  0.33262911  0.08147486  0.57908862  1  -0.829896  -0.001508  1.904642  -0.003  -0.804319  0.00141  2.074046  0.0  -0.822647  0.002025  2.044707  0.001  -0.593509  -0.789552  -0.000838  2.094521  -0.002
