# generated using pymatgen
data_Tb3P3H47C37(NO8)3
_symmetry_space_group_name_H-M   'P 1'
_cell_length_a   14.95202341
_cell_length_b   14.93309270
_cell_length_c   15.02160225
_cell_angle_alpha   105.88469697
_cell_angle_beta   103.73597661
_cell_angle_gamma   117.24571684
_symmetry_Int_Tables_number   1
_chemical_formula_structural   Tb3P3H47C37(NO8)3
_chemical_formula_sum   'Tb6 P6 H94 C74 N6 O48'
_cell_volume   2597.17421500
_cell_formula_units_Z   2
loop_
 _symmetry_equiv_pos_site_id
 _symmetry_equiv_pos_as_xyz
  1  'x, y, z'
loop_
 _atom_site_type_symbol
 _atom_site_label
 _atom_site_symmetry_multiplicity
 _atom_site_fract_x
 _atom_site_fract_y
 _atom_site_fract_z
 _atom_site_occupancy
 _atom_site_pbe_bader_charge
 _atom_site_pbe_bader_spin_density
 _atom_site_pbe_cm5_charge
 _atom_site_pbe_ddec_charge
 _atom_site_pbe_ddec_spin_density
 _atom_site_pbe_ddec_sum_bond_order
 _atom_site_pbe_magmom
Tb  Tb0  1  0.18454467  0.89053122  0.32040814  1  2.162981  0  1.549385  2.103319  0  2.115922  0
Tb  Tb1  1  0.81545796  0.10947139  0.67959006  1  2.16293  0  1.549408  2.103399  0  2.115816  0
Tb  Tb2  1  0.44134488  0.13577606  0.30375049  1  2.164588  0  1.538346  2.100714  0  2.086122  0
Tb  Tb3  1  0.55865959  0.86422739  0.69624904  1  2.164579  0  1.538361  2.100643  0  2.086297  0
Tb  Tb4  1  0.58046603  0.94010785  0.35756690  1  2.194396  0  1.542121  2.164785  0  2.022767  0
Tb  Tb5  1  0.41953498  0.05989309  0.64243180  1  2.194368  0  1.542124  2.1648  0  2.022771  0
P  P6  1  0.38319844  0.85816189  0.47911957  1  3.321533  0  0.325477  1.373989  0  5.345128  0
P  P7  1  0.61680189  0.14183905  0.52087898  1  3.321624  0  0.325446  1.373973  0  5.345111  0
P  P8  1  0.30497585  0.82931828  0.20099230  1  3.426878  0  0.310489  1.336253  0  5.418095  0
P  P9  1  0.69502446  0.17068015  0.79900690  1  3.42688  0  0.310498  1.336285  0  5.418146  0
P  P10  1  0.38280844  0.19628943  0.48531876  1  3.406062  0  0.304906  1.330048  0  5.473654  0
P  P11  1  0.61719442  0.80371234  0.51467993  1  3.406065  0  0.304827  1.32984  0  5.47376  0
H  H12  1  0.10375184  0.33185934  0.88068907  1  0.652538  0  0.304722  0.369013  0  0.969847  0
H  H13  1  0.89624368  0.66814162  0.11930900  1  0.652581  0  0.304765  0.369008  0  0.969828  0
H  H14  1  0.68081087  0.86352202  0.25118449  1  0.621163  0  0.319189  0.407827  0  0.891622  0
H  H15  1  0.31919083  0.13647890  0.74881304  1  0.621269  0  0.319188  0.407778  0  0.89167  0
H  H16  1  0.61067120  0.77746567  0.28614967  1  0.631603  0  0.301545  0.395285  0  0.929004  0
H  H17  1  0.38932912  0.22253525  0.71384619  1  0.631549  0  0.301563  0.395319  0  0.928988  0
H  H18  1  0.23805911  0.68698145  0.28442019  1  0.540251  0  0.316116  0.274054  0  0.983911  0
H  H19  1  0.76193867  0.31301614  0.71557819  1  0.540252  0  0.316106  0.274043  0  0.98393  0
H  H20  1  0.35332895  0.91866620  0.07183576  1  0.510086  0  0.33175  0.276272  0  0.896143  0
H  H21  1  0.64666865  0.08133728  0.92816415  1  0.510132  0  0.331742  0.27629  0  0.896119  0
H  H22  1  0.16395316  0.10018099  0.43752231  1  0.510556  0  0.333724  0.276884  0  0.894162  0
H  H23  1  0.83604831  0.89981828  0.56247806  1  0.510587  0  0.333714  0.276861  0  0.894163  0
H  H24  1  0.32622107  0.67828811  0.47928843  1  0.144098  0  0.126972  0.161028  0  1.022597  0
H  H25  1  0.67378044  0.32171621  0.52071329  1  0.143925  0  0.126978  0.161042  0  1.022554  0
H  H26  1  0.21280739  0.69450249  0.44877336  1  0.116746  0  0.1251  0.153182  0  0.990489  0
H  H27  1  0.78719297  0.30550098  0.55122653  1  0.116741  0  0.125089  0.153189  0  0.990493  0
H  H28  1  0.13999568  0.47529471  0.30682028  1  0.043023  0  0.103845  0.0757  0  0.969861  0
H  H29  1  0.86000304  0.52470458  0.69318011  1  0.04306  0  0.103864  0.07571  0  0.969822  0
H  H30  1  0.07865539  0.55308437  0.29958087  1  0.087569  0  0.110963  0.09334  0  1.013514  0
H  H31  1  0.92134356  0.44691410  0.70042135  1  0.087607  0  0.110966  0.093326  0  1.013467  0
H  H32  1  0.00870374  0.40325449  0.12493420  1  0.042249  0  0.094  0.094107  0  0.992452  0
H  H33  1  0.99129521  0.59674397  0.87506735  1  0.042297  0  0.094  0.094091  0  0.992381  0
H  H34  1  0.07914885  0.53946174  0.13358707  1  0.100832  0  0.105936  0.123946  0  0.993846  0
H  H35  1  0.92084644  0.46053757  0.86641317  1  0.10086  0  0.105906  0.123921  0  0.993943  0
H  H36  1  0.16448491  0.38751009  0.12934050  1  0.046987  0  0.098079  0.081882  0  0.983667  0
H  H37  1  0.83551382  0.61248922  0.87066255  1  0.047151  0  0.098106  0.081897  0  0.983656  0
H  H38  1  0.34817912  0.53907021  0.17096532  1  0.044837  0  0.105865  0.112893  0  0.953338  0
H  H39  1  0.65182005  0.46092741  0.82903606  1  0.044875  0  0.105887  0.112899  0  0.953395  0
H  H40  1  0.30618031  0.63024725  0.16264896  1  0.081173  0  0.102875  0.108633  0  1.017061  0
H  H41  1  0.69381839  0.36974952  0.83735141  1  0.0813  0  0.102873  0.108654  0  1.017014  0
H  H42  1  0.40827046  0.68852658  0.34219649  1  0.134514  0  0.123484  0.11528  0  1.029674  0
H  H43  1  0.59172756  0.31147269  0.65780239  1  0.134417  0  0.12348  0.115289  0  1.029672  0
H  H44  1  0.32405697  0.55224198  0.33200596  1  0.049996  0  0.110726  0.091813  0  0.954801  0
H  H45  1  0.67593898  0.44775479  0.66799377  1  0.050045  0  0.110692  0.091741  0  0.954793  0
H  H46  1  0.15538795  0.78285424  0.05844416  1  0.155606  0  0.131561  0.167063  0  1.015815  0
H  H47  1  0.84461123  0.21714587  0.94155522  1  0.155698  0  0.131557  0.167056  0  1.015762  0
H  H48  1  0.19304044  0.68409342  0.02488341  1  0.164689  0  0.122414  0.154365  0  1.014464  0
H  H49  1  0.80695919  0.31590752  0.97511430  1  0.164685  0  0.122454  0.154438  0  1.014415  0
H  H50  1  0.27386829  0.69543102  0.91663227  1  0.071779  0  0.112162  0.092462  0  0.979951  0
H  H51  1  0.72613182  0.30457078  0.08336911  1  0.07173  0  0.112173  0.092506  0  0.979932  0
H  H52  1  0.39435593  0.77996261  0.03548182  1  0.121591  0  0.128521  0.127332  0  0.948623  0
H  H53  1  0.60564627  0.22004172  0.96452140  1  0.121435  0  0.128517  0.127349  0  0.948558  0
H  H54  1  0.44166260  0.79982249  0.88752731  1  0.091595  0  0.11017  0.122643  0  0.993573  0
H  H55  1  0.55833749  0.20017679  0.11247340  1  0.09156  0  0.110168  0.122652  0  0.993562  0
H  H56  1  0.48204241  0.92654885  0.98228436  1  0.017684  0  0.094946  0.090251  0  1.037531  0
H  H57  1  0.51795653  0.07345209  0.01771319  1  0.017935  0  0.09496  0.090269  0  1.037483  0
H  H58  1  0.27726057  0.78109606  0.77678910  1  0.047041  0  0.106054  0.095376  0  0.965296  0
H  H59  1  0.72273790  0.21890153  0.22320877  1  0.047102  0  0.106076  0.095459  0  0.965222  0
H  H60  1  0.22754242  0.91552009  0.82772288  1  0.051248  0  0.103344  0.112072  0  0.979061  0
H  H61  1  0.77245442  0.08447582  0.17227416  1  0.051288  0  0.103342  0.112046  0  0.979068  0
H  H62  1  0.34432899  0.99973435  0.94705873  1  0.067514  0  0.103004  0.106918  0  0.991739  0
H  H63  1  0.65566673  0.00026323  0.05293782  1  0.067475  0  0.103012  0.106986  0  0.991731  0
H  H64  1  0.18399056  0.88801549  0.97457901  1  0.106416  0  0.119319  0.106157  0  1.005279  0
H  H65  1  0.81600285  0.11198044  0.02541856  1  0.106225  0  0.119298  0.106191  0  1.005186  0
H  H66  1  0.14914936  0.75936904  0.87911675  1  0.032533  0  0.110633  0.087793  0  0.967396  0
H  H67  1  0.85084955  0.24062687  0.12088144  1  0.032745  0  0.110628  0.087784  0  0.967434  0
H  H68  1  0.33782659  0.33893919  0.51507534  1  0.088514  0  0.123843  0.14839  0  0.960942  0
H  H69  1  0.66217787  0.66106177  0.48492751  1  0.088537  0  0.123845  0.148392  0  0.96097  0
H  H70  1  0.28596424  0.24678414  0.38290706  1  0.158297  0  0.132771  0.168551  0  1.008814  0
H  H71  1  0.71403723  0.75321513  0.61709397  1  0.158268  0  0.132803  0.168572  0  1.008776  0
H  H72  1  0.11853044  0.26132291  0.39717257  1  0.037951  0  0.11147  0.089304  0  0.958651  0
H  H73  1  0.88147312  0.73867889  0.60283029  1  0.037961  0  0.111476  0.08931  0  0.958675  0
H  H74  1  0.09904817  0.14040810  0.30398000  1  0.081035  0  0.120961  0.111338  0  0.99651  0
H  H75  1  0.90095217  0.85959286  0.69602055  1  0.080999  0  0.120964  0.111334  0  0.996524  0
H  H76  1  0.91900639  0.09691158  0.31490564  1  0.036192  0  0.102965  0.111495  0  0.978281  0
H  H77  1  0.08099625  0.90309104  0.68509323  1  0.036185  0  0.102961  0.111483  0  0.978294  0
H  H78  1  0.96289321  0.01310950  0.34557110  1  0.068191  0  0.101661  0.107205  0  0.99985  0
H  H79  1  0.03710899  0.98689481  0.65443012  1  0.068125  0  0.101628  0.107153  0  0.999879  0
H  H80  1  0.98624576  0.21813442  0.49516409  1  0.063467  0  0.106784  0.096977  0  0.970728  0
H  H81  1  0.01375781  0.78186988  0.50483612  1  0.06354  0  0.10679  0.09699  0  0.970766  0
H  H82  1  0.07761198  0.19103674  0.63548633  1  0.060048  0  0.107639  0.120751  0  1.002645  0
H  H83  1  0.92238810  0.80896252  0.36451238  1  0.060058  0  0.107644  0.120762  0  1.002618  0
H  H84  1  0.06023690  0.07228447  0.54900288  1  0.041684  0  0.095874  0.093676  0  1.038093  0
H  H85  1  0.93975813  0.92771312  0.45099352  1  0.041667  0  0.095892  0.093659  0  1.038117  0
H  H86  1  0.25248373  0.23143800  0.61413186  1  0.077517  0  0.118879  0.104705  0  0.980931  0
H  H87  1  0.74751681  0.76855960  0.38586917  1  0.077526  0  0.118885  0.104719  0  0.980965  0
H  H88  1  0.20728678  0.31300601  0.57783908  1  0.068022  0  0.110415  0.08662  0  0.992819  0
H  H89  1  0.79271491  0.68699243  0.42216178  1  0.067971  0  0.1104  0.086584  0  0.992824  0
H  H90  1  0.01403153  0.83676639  0.97014790  1  0.070371  0  0.099396  0.093887  0  1.025515  0
H  H91  1  0.98595702  0.16322451  0.02984718  1  0.070382  0  0.099416  0.093943  0  1.025409  0
H  H92  1  0.87047575  0.82201764  0.82775285  1  0.063078  0  0.097599  0.093778  0  1.025715  0
H  H93  1  0.12951488  0.17797328  0.17224539  1  0.063083  0  0.097623  0.093852  0  1.025506  0
H  H94  1  0.75106911  0.93040180  0.03825596  1  0.064016  0  0.101777  0.100839  0  1.040351  0
H  H95  1  0.24892525  0.06959583  0.96174428  1  0.064089  0  0.101807  0.100831  0  1.040322  0
H  H96  1  0.89506285  0.94622585  0.18049644  1  0.07764  0  0.098799  0.096244  0  1.043231  0
H  H97  1  0.10493052  0.05376503  0.81950044  1  0.077781  0  0.098765  0.09619  0  1.043175  0
H  H98  1  0.99666646  0.58659043  0.41942193  1  0.081582  0  0.102352  0.104368  0  1.013192  0
H  H99  1  0.00333775  0.41341132  0.58057441  1  0.081627  0  0.10235  0.104381  0  1.013142  0
H  H100  1  0.83297636  0.42943674  0.42352800  1  0.074942  0  0.103074  0.110936  0  1.004904  0
H  H101  1  0.16703781  0.57057177  0.57647916  1  0.074872  0  0.103019  0.110804  0  1.004888  0
H  H102  1  0.61000067  0.42648309  0.18131922  1  0.09792  0  0.11226  0.122067  0  0.979576  0
H  H103  1  0.39000221  0.57351624  0.81868881  1  0.09775  0  0.112281  0.122103  0  0.979577  0
H  H104  1  0.77208143  0.57887172  0.17311604  1  0.11384  0  0.109817  0.113167  0  1.001334  0
H  H105  1  0.22791730  0.42113006  0.82688168  1  0.113682  0  0.109844  0.113204  0  1.001302  0
C  C106  1  0.28508812  0.70633502  0.43464291  1  -0.254103  0  -0.066018  -0.373514  0  3.717877  0
C  C107  1  0.71491106  0.29366510  0.56535647  1  -0.254112  0  -0.065996  -0.373538  0  3.717872  0
C  C108  1  0.13274744  0.53158831  0.27557835  1  0.220112  0  -0.059556  -0.053242  0  3.808953  0
C  C109  1  0.86725060  0.46841099  0.72442321  1  0.219984  0  -0.059592  -0.053232  0  3.808798  0
C  C110  1  0.09110911  0.48228020  0.15978162  1  -0.054267  0  -0.159897  -0.192167  0  3.902165  0
C  C111  1  0.90888641  0.51771827  0.84022045  1  -0.054274  0  -0.159874  -0.192152  0  3.902266  0
C  C112  1  0.17058214  0.46164802  0.12314779  1  0.009153  0  -0.088598  -0.11494  0  3.8737  0
C  C113  1  0.82941428  0.53834959  0.87685227  1  0.009026  0  -0.088591  -0.114888  0  3.874028  0
C  C114  1  0.29215666  0.56330090  0.18619915  1  -0.049551  0  -0.15701  -0.189668  0  3.898109  0
C  C115  1  0.70784113  0.43669671  0.81380056  1  -0.049752  0  -0.157025  -0.189692  0  3.898152  0
C  C116  1  0.32525064  0.61097229  0.30053524  1  0.208949  0  -0.060033  -0.05851  0  3.77667  0
C  C117  1  0.67474599  0.38902449  0.69946465  1  0.20897  0  -0.060004  -0.058462  0  3.776661  0
C  C118  1  0.13930175  0.43974827  0.01161933  1  1.548063  0  0.23405  0.611997  0  4.053944  0
C  C119  1  0.86068943  0.56025603  0.98837462  1  1.547976  0  0.234182  0.612161  0  4.053039  0
C  C120  1  0.22479753  0.77332050  0.06449983  1  -0.381875  0  -0.071611  -0.396754  0  3.737596  0
C  C121  1  0.77520097  0.22667963  0.93550073  1  -0.381931  0  -0.071617  -0.396785  0  3.737584  0
C  C122  1  0.34253383  0.78216406  0.97179968  1  0.178519  0  -0.055484  -0.059912  0  3.769436  0
C  C123  1  0.65746770  0.21784028  0.02820404  1  0.178834  0  -0.055454  -0.059917  0  3.769406  0
C  C124  1  0.40885917  0.84513377  0.92229716  1  -0.016075  0  -0.164761  -0.198645  0  3.927152  0
C  C125  1  0.59114048  0.15486719  0.07770389  1  -0.016024  0  -0.164774  -0.198653  0  3.927181  0
C  C126  1  0.34132213  0.86328145  0.84353395  1  -0.001577  0  -0.089316  -0.120062  0  3.867937  0
C  C127  1  0.65867450  0.13671531  0.15646460  1  -0.001679  0  -0.089329  -0.120245  0  3.868005  0
C  C128  1  0.28295860  0.91254097  0.88787676  1  -0.044886  0  -0.16136  -0.197128  0  3.943013  0
C  C129  1  0.71703734  0.08745578  0.11212029  1  -0.04485  0  -0.161395  -0.197165  0  3.94304  0
C  C130  1  0.21700417  0.84607971  0.93543754  1  0.230943  0  -0.057345  -0.059408  0  3.798506  0
C  C131  1  0.78299317  0.15391957  0.06456118  1  0.230984  0  -0.057322  -0.059413  0  3.798456  0
C  C132  1  0.41126909  0.93513642  0.79979008  1  1.602235  0  0.234738  0.656984  0  4.113179  0
C  C133  1  0.58872963  0.06486286  0.20021031  1  1.602281  0  0.234782  0.657112  0  4.113064  0
C  C134  1  0.29722530  0.25167300  0.45942589  1  -0.315295  0  -0.068924  -0.380918  0  3.729755  0
C  C135  1  0.70277710  0.74832795  0.54057514  1  -0.315367  0  -0.06895  -0.380973  0  3.7298  0
C  C136  1  0.09529040  0.17459189  0.37645190  1  0.255144  0  -0.056146  -0.056817  0  3.782322  0
C  C137  1  0.90471246  0.82540990  0.62354947  1  0.255204  0  -0.056181  -0.056928  0  3.782355  0
C  C138  1  0.98201989  0.09888029  0.37223896  1  -0.018062  0  -0.162678  -0.198058  0  3.933107  0
C  C139  1  0.01798206  0.90112234  0.62776108  1  -0.018068  0  -0.162637  -0.197948  0  3.933088  0
C  C140  1  0.97776799  0.13684954  0.47580470  1  -0.017102  0  -0.08924  -0.11909  0  3.861205  0
C  C141  1  0.02223395  0.86315306  0.52419333  1  -0.017127  0  -0.089234  -0.119156  0  3.861291  0
C  C142  1  0.07393129  0.15388887  0.55976514  1  -0.02003  0  -0.166281  -0.200125  0  3.92337  0
C  C143  1  0.92607042  0.84611208  0.44023439  1  -0.019615  0  -0.166296  -0.200104  0  3.923402  0
C  C144  1  0.18525269  0.22706104  0.55985233  1  0.209814  0  -0.057475  -0.056952  0  3.790074  0
C  C145  1  0.81474785  0.77293656  0.44014803  1  0.209879  0  -0.057456  -0.056927  0  3.789988  0
C  C146  1  0.86384409  0.05797493  0.47168639  1  1.59622  0  0.232793  0.654073  0  4.121008  0
C  C147  1  0.13615810  0.94202936  0.52831215  1  1.596117  0  0.232808  0.654098  0  4.120983  0
C  C148  1  0.05023332  0.90567253  0.16791711  1  1.543444  0  0.192602  0.574764  0  4.225797  0
C  C149  1  0.94976561  0.09432588  0.83207909  1  1.543471  0  0.19264  0.574692  0  4.225853  0
C  C150  1  0.96453436  0.89553921  0.08364290  1  0.059283  0  -0.010578  -0.01054  0  3.963493  0
C  C151  1  0.03545785  0.10445083  0.91635214  1  0.06003  0  -0.01061  -0.010465  0  3.96349  0
C  C152  1  0.95638723  0.85794448  0.98400770  1  -0.093485  0  -0.080611  -0.086572  0  3.982693  0
C  C153  1  0.04360364  0.14204811  0.01599038  1  -0.093731  0  -0.080698  -0.086798  0  3.982507  0
C  C154  1  0.87708676  0.84940677  0.90550335  1  -0.036742  0  -0.083335  -0.097366  0  3.985449  0
C  C155  1  0.12290156  0.15058247  0.09449390  1  -0.036863  0  -0.083313  -0.097349  0  3.985153  0
C  C156  1  0.80500816  0.87866425  0.92597407  1  -0.007696  0  -0.01036  -0.012227  0  3.952245  0
C  C157  1  0.19497970  0.12132415  0.07402351  1  -0.017043  0  -0.010328  -0.012157  0  3.952069  0
C  C158  1  0.81048094  0.91208791  0.02479575  1  -0.038452  0  -0.08692  -0.099731  0  3.982749  0
C  C159  1  0.18950577  0.08789965  0.97520133  1  -0.038363  0  -0.086945  -0.099711  0  3.98267  0
C  C160  1  0.88995190  0.92081375  0.10330933  1  -0.038834  0  -0.088504  -0.102236  0  3.984439  0
C  C161  1  0.11003804  0.07917716  0.89668874  1  -0.039515  0  -0.088463  -0.102181  0  3.984404  0
C  C162  1  0.72536505  0.87905393  0.84492547  1  1.552051  0  0.192333  0.577535  0  4.225132  0
C  C163  1  0.27463276  0.12094619  0.15507425  1  1.561547  0  0.192349  0.577543  0  4.225177  0
C  C164  1  0.99217726  0.68658441  0.29675803  1  1.543237  0  0.201802  0.560918  0  4.244521  0
C  C165  1  0.00782010  0.31341988  0.70323737  1  1.543699  0  0.201898  0.561114  0  4.244432  0
C  C166  1  0.89424589  0.59128535  0.29562633  1  -0.033928  0  -0.017463  -0.034853  0  3.97851  0
C  C167  1  0.10575467  0.40871725  0.70437004  1  -0.033978  0  -0.017485  -0.034961  0  3.978732  0
C  C168  1  0.91157378  0.54971194  0.36673636  1  -0.049341  0  -0.091448  -0.11598  0  4.015974  0
C  C169  1  0.08843369  0.45029318  0.63326431  1  -0.049546  0  -0.091398  -0.115982  0  4.016002  0
C  C170  1  0.82159131  0.46410828  0.36991155  1  -0.031247  0  -0.091442  -0.114026  0  4.00319  0
C  C171  1  0.17842348  0.53589516  0.63009174  1  -0.031005  0  -0.091463  -0.114005  0  4.002877  0
C  C172  1  0.71286466  0.42014669  0.30314389  1  -0.097844  0  -0.011935  -0.013873  0  3.9621  0
C  C173  1  0.28714600  0.57985426  0.69686176  1  -0.097749  0  -0.011904  -0.013564  0  3.961783  0
C  C174  1  0.69524541  0.46187101  0.23244072  1  0.021714  0  -0.080193  -0.098167  0  3.957005  0
C  C175  1  0.30476229  0.53813081  0.76756646  1  0.021738  0  -0.080207  -0.098228  0  3.957042  0
C  C176  1  0.78542401  0.54642181  0.22816216  1  -0.101819  0  -0.080039  -0.092695  0  3.961084  0
C  C177  1  0.21457701  0.45357913  0.77183654  1  -0.101585  0  -0.080027  -0.092687  0  3.96107  0
C  C178  1  0.61639708  0.32642271  0.30605669  1  1.557458  0  0.183774  0.544707  0  4.290195  0
C  C179  1  0.38362003  0.67357993  0.69395293  1  1.557688  0  0.183707  0.544477  0  4.289942  0
N  N180  1  0.24582121  0.63792460  0.32334086  1  -1.025415  0  -0.346294  0.017719  0  3.553969  0
N  N181  1  0.75417751  0.36207468  0.67665885  1  -1.025479  0  -0.34627  0.017752  0  3.553923  0
N  N182  1  0.28968135  0.83686566  0.01574385  1  -1.015745  0  -0.336071  0.043289  0  3.536488  0
N  N183  1  0.71031855  0.16313699  0.98425771  1  -1.015884  0  -0.336104  0.043199  0  3.536759  0
N  N184  1  0.18438331  0.18205791  0.45669729  1  -0.991914  0  -0.336423  0.04067  0  3.531187  0
N  N185  1  0.81561747  0.81794138  0.54330358  1  -0.991835  0  -0.336417  0.040817  0  3.530967  0
O  O186  1  0.44845650  0.90942613  0.59612813  1  -1.445017  0  -0.486514  -0.915786  0  2.336544  0
O  O187  1  0.55154244  0.09057230  0.40387075  1  -1.44489  0  -0.486541  -0.915863  0  2.336652  0
O  O188  1  0.45283826  0.87098487  0.41935402  1  -1.461743  0  -0.456027  -0.851331  0  2.370168  0
O  O189  1  0.54716508  0.12902028  0.58064703  1  -1.461729  0  -0.455988  -0.851306  0  2.370244  0
O  O190  1  0.31797487  0.91389618  0.46668814  1  -1.451293  0  -0.49494  -0.938918  0  2.321592  0
O  O191  1  0.68202661  0.08610560  0.53331089  1  -1.451233  0  -0.494926  -0.938911  0  2.321608  0
O  O192  1  0.11700787  0.49653732  0.97708342  1  -1.170073  0  -0.302077  -0.514734  0  2.102974  0
O  O193  1  0.88299313  0.50345614  0.02292461  1  -1.169848  0  -0.302266  -0.515078  0  2.101653  0
O  O194  1  0.14161649  0.35469365  0.95668290  1  -1.17779  0  -0.338209  -0.496811  0  2.299025  0
O  O195  1  0.85837990  0.64530143  0.04331581  1  -1.177972  0  -0.33822  -0.4967  0  2.299216  0
O  O196  1  0.21904852  0.75466782  0.23294319  1  -1.449842  0  -0.423853  -0.80017  0  2.242447  0
O  O197  1  0.78095154  0.24532892  0.76705483  1  -1.449818  0  -0.423847  -0.80021  0  2.242537  0
O  O198  1  0.32629962  0.94559778  0.25289164  1  -1.45146  0  -0.511722  -0.925621  0  2.466035  0
O  O199  1  0.67369980  0.05440151  0.74710957  1  -1.451488  0  -0.511724  -0.925629  0  2.466056  0
O  O200  1  0.40874621  0.82823811  0.21655477  1  -1.460536  0  -0.449444  -0.836784  0  2.233803  0
O  O201  1  0.59125248  0.17175864  0.78344360  1  -1.460508  0  -0.449462  -0.83679  0  2.233805  0
O  O202  1  0.50541868  0.94929999  0.81471958  1  -1.211332  0  -0.382108  -0.668762  0  2.335953  0
O  O203  1  0.49458308  0.05070352  0.18528531  1  -1.21135  0  -0.382122  -0.668786  0  2.335871  0
O  O204  1  0.37091910  0.97493719  0.75151646  1  -1.189255  0  -0.380637  -0.645063  0  2.251727  0
O  O205  1  0.62907775  0.02505872  0.24848058  1  -1.189325  0  -0.380649  -0.645067  0  2.251711  0
O  O206  1  0.39599955  0.19225779  0.58853010  1  -1.479258  0  -0.431342  -0.861575  0  2.227994  0
O  O207  1  0.60400699  0.80774565  0.41146991  1  -1.479253  0  -0.431331  -0.861486  0  2.22807  0
O  O208  1  0.31615667  0.07855799  0.39470506  1  -1.45361  0  -0.511928  -0.933957  0  2.445498  0
O  O209  1  0.68384665  0.92144462  0.60529397  1  -1.453625  0  -0.511905  -0.93388  0  2.445437  0
O  O210  1  0.48634084  0.26836284  0.47221757  1  -1.465163  0  -0.430959  -0.821672  0  2.121867  0
O  O211  1  0.51365948  0.73163809  0.52777963  1  -1.465113  0  -0.430923  -0.8216  0  2.121897  0
O  O212  1  0.77780358  0.01619436  0.39214307  1  -1.204877  0  -0.363082  -0.660391  0  2.273482  0
O  O213  1  0.22219787  0.98380489  0.60785395  1  -1.204845  0  -0.363124  -0.660412  0  2.273465  0
O  O214  1  0.86349601  0.04090539  0.55039342  1  -1.214075  0  -0.395835  -0.675252  0  2.343867  0
O  O215  1  0.13650455  0.95909722  0.44960363  1  -1.214155  0  -0.395832  -0.675252  0  2.343927  0
O  O216  1  0.08921223  0.72842037  0.36190752  1  -1.189274  0  -0.352172  -0.606302  0  2.247447  0
O  O217  1  0.91078789  0.27158392  0.63809053  1  -1.189373  0  -0.352183  -0.606325  0  2.247641  0
O  O218  1  0.97786125  0.72945036  0.23598610  1  -1.187142  0  -0.343517  -0.624593  0  2.331266  0
O  O219  1  0.02213385  0.27055481  0.76401367  1  -1.187325  0  -0.343622  -0.624766  0  2.331317  0
O  O220  1  0.63717807  0.27876131  0.35925594  1  -1.181844  0  -0.378339  -0.62785  0  2.257565  0
O  O221  1  0.36283763  0.72124128  0.64074734  1  -1.181777  0  -0.378388  -0.627894  0  2.257291  0
O  O222  1  0.51793393  0.29437583  0.25426164  1  -1.171622  0  -0.36225  -0.614203  0  2.175507  0
O  O223  1  0.48207988  0.70563699  0.74575857  1  -1.172007  0  -0.362133  -0.614089  0  2.175686  0
O  O224  1  0.07098190  0.95829885  0.26088787  1  -1.184359  0  -0.378055  -0.635071  0  2.239683  0
O  O225  1  0.92902027  0.04170541  0.73910800  1  -1.184462  0  -0.378046  -0.635  0  2.239675  0
O  O226  1  0.10010863  0.85871942  0.14582151  1  -1.188762  0  -0.375024  -0.629577  0  2.27791  0
O  O227  1  0.89988731  0.14127733  0.85417554  1  -1.188796  0  -0.374999  -0.629548  0  2.277914  0
O  O228  1  0.70288784  0.82862518  0.75116095  1  -1.191003  0  -0.371568  -0.63292  0  2.229882  0
O  O229  1  0.29711736  0.17138331  0.24883943  1  -1.191003  0  -0.371513  -0.632941  0  2.229972  0
O  O230  1  0.68151649  0.93169652  0.87176729  1  -1.183078  0  -0.381826  -0.629102  0  2.238969  0
O  O231  1  0.31848617  0.06830863  0.12823426  1  -1.183155  0  -0.381882  -0.62918  0  2.239001  0
O  O232  1  0.60419482  0.80715495  0.23542520  1  -1.225683  0  -0.613459  -0.789012  0  1.927834  0
O  O233  1  0.39580712  0.19284765  0.76457217  1  -1.225703  0  -0.613484  -0.788986  0  1.927904  0
