# generated using pymatgen
data_ZnH8C12(IN2)2
_symmetry_space_group_name_H-M   'P 1'
_cell_length_a   14.85425726
_cell_length_b   19.20757179
_cell_length_c   31.22700991
_cell_angle_alpha   101.72800847
_cell_angle_beta   89.99054074
_cell_angle_gamma   112.75266776
_symmetry_Int_Tables_number   1
_chemical_formula_structural   ZnH8C12(IN2)2
_chemical_formula_sum   'Zn12 H96 C144 I24 N48'
_cell_volume   8014.25284879
_cell_formula_units_Z   12
loop_
 _symmetry_equiv_pos_site_id
 _symmetry_equiv_pos_as_xyz
  1  'x, y, z'
loop_
 _atom_site_type_symbol
 _atom_site_label
 _atom_site_symmetry_multiplicity
 _atom_site_fract_x
 _atom_site_fract_y
 _atom_site_fract_z
 _atom_site_occupancy
 _atom_site_pbe_bader_charge
 _atom_site_pbe_bader_spin_density
 _atom_site_pbe_cm5_charge
 _atom_site_pbe_ddec_charge
 _atom_site_pbe_ddec_spin_density
 _atom_site_pbe_ddec_sum_bond_order
 _atom_site_pbe_magmom
Zn  Zn0  1  0.71965537  0.24671032  0.55871720  1  0.912128  0  0.449803  0.478851  0  2.740312  0
Zn  Zn1  1  0.18467823  0.65760509  0.73239604  1  0.900932  0  0.442533  0.451135  0  2.73755  0
Zn  Zn2  1  0.04161670  0.83028690  0.91023655  1  0.902887  0  0.442072  0.474734  0  2.736547  0
Zn  Zn3  1  0.52699084  0.24672628  0.05884403  1  0.913282  0  0.449894  0.478927  0  2.740273  0
Zn  Zn4  1  0.47312025  0.65755646  0.23239763  1  0.901575  0  0.442439  0.451802  0  2.737321  0
Zn  Zn5  1  0.78863348  0.83020557  0.41017191  1  0.902683  0  0.442082  0.474739  0  2.73639  0
Zn  Zn6  1  0.47300957  0.75327428  0.94115605  1  0.913213  0  0.449907  0.478969  0  2.740163  0
Zn  Zn7  1  0.52687968  0.34244180  0.76760216  1  0.901601  0  0.442452  0.451814  0  2.737295  0
Zn  Zn8  1  0.21136857  0.16979558  0.58982921  1  0.902702  0  0.442075  0.474709  0  2.736385  0
Zn  Zn9  1  0.28034389  0.75328793  0.44128163  1  0.912174  0  0.449794  0.478847  0  2.740328  0
Zn  Zn10  1  0.81532440  0.34239721  0.26760458  1  0.900964  0  0.442532  0.451141  0  2.737617  0
Zn  Zn11  1  0.95838015  0.16971193  0.08976331  1  0.902809  0  0.442086  0.474776  0  2.736473  0
H  H12  1  0.62911678  0.14479986  0.61911064  1  0.122956  0  0.105581  0.078468  0  1.019585  0
H  H13  1  0.47229198  0.03191478  0.62329240  1  0.123737  0  0.114763  0.12441  0  0.99322  0
H  H14  1  0.37650202  0.03947804  0.49475468  1  0.125155  0  0.116167  0.12846  0  0.987203  0
H  H15  1  0.53709530  0.15297047  0.49582613  1  0.12801  0  0.106355  0.085079  0  1.016778  0
H  H16  1  0.57009336  0.31457718  0.56973058  1  0.146708  0  0.10165  0.08958  0  1.030889  0
H  H17  1  0.53654351  0.41703951  0.62177672  1  0.109781  0  0.110694  0.120992  0  1.00434  0
H  H18  1  0.80504640  0.46617322  0.69816001  1  0.136425  0  0.098579  0.111388  0  1.049986  0
H  H19  1  0.82506704  0.35770355  0.64407685  1  0.119934  0  0.1012  0.079847  0  1.037038  0
H  H20  1  0.39554890  0.50274818  0.66916548  1  0.095562  0  0.118108  0.129939  0  0.988075  0
H  H21  1  0.24313770  0.53098984  0.67708893  1  0.133906  0  0.114699  0.087248  0  1.000677  0
H  H22  1  0.38646041  0.72938747  0.77312735  1  0.120464  0  0.100907  0.075996  0  1.045154  0
H  H23  1  0.54431847  0.70930018  0.76935676  1  0.115275  0  0.115915  0.125967  0  1.003201  0
H  H24  1  0.07416828  0.64219924  0.64759131  1  0.126425  0  0.104105  0.080926  0  1.03665  0
H  H25  1  0.08550215  0.72223848  0.59134444  1  0.129173  0  0.117493  0.130015  0  0.987429  0
H  H26  1  0.35079409  0.89449982  0.66452988  1  0.13136  0  0.117314  0.127666  0  0.988414  0
H  H27  1  0.32576197  0.81016312  0.71937671  1  0.099015  0  0.112587  0.081544  0  1.002299  0
H  H28  1  0.71920529  0.73534607  0.81632391  1  0.123469  0  0.10326  0.1164  0  1.034098  0
H  H29  1  0.84834399  0.81398204  0.87739553  1  0.099376  0  0.108794  0.086365  0  1.018667  0
H  H30  1  0.00926375  0.67973111  0.84101239  1  0.132871  0  0.104443  0.084366  0  1.028446  0
H  H31  1  0.88851891  0.59778621  0.77604765  1  0.128056  0  0.103377  0.109761  0  1.044627  0
H  H32  1  0.83655932  0.75500540  0.47607557  1  0.116744  0  0.10893  0.085449  0  1.013435  0
H  H33  1  0.98234138  0.77116346  0.52468216  1  0.118135  0  0.119135  0.131336  0  0.983502  0
H  H34  1  0.14304258  0.98446115  0.48480953  1  0.124921  0  0.116473  0.129726  0  0.986788  0
H  H35  1  0.99079153  0.95938637  0.43719998  1  0.122861  0  0.104872  0.081432  0  1.028163  0
H  H36  1  0.51571570  0.14490598  0.11928153  1  0.126274  0  0.105867  0.078603  0  1.01942  0
H  H37  1  0.55955235  0.03196662  0.12343070  1  0.119748  0  0.115059  0.124968  0  0.992756  0
H  H38  1  0.66270826  0.03940998  0.99482965  1  0.121436  0  0.116053  0.12805  0  0.987279  0
H  H39  1  0.61567706  0.15292299  0.99592750  1  0.120794  0  0.106551  0.085487  0  1.017625  0
H  H40  1  0.74464481  0.31455684  0.06976100  1  0.117014  0  0.101964  0.089929  0  1.029881  0
H  H41  1  0.88064168  0.41699370  0.12184886  1  0.122762  0  0.110664  0.12083  0  1.00452  0
H  H42  1  0.66121372  0.46627138  0.19814375  1  0.143527  0  0.098224  0.111069  0  1.049979  0
H  H43  1  0.53275076  0.35777431  0.14407002  1  0.097231  0  0.101256  0.079893  0  1.037722  0
H  H44  1  0.10743337  0.50279590  0.16912518  1  0.133476  0  0.11823  0.129744  0  0.988701  0
H  H45  1  0.28802227  0.53098362  0.17710089  1  0.119788  0  0.114661  0.086973  0  1.000499  0
H  H46  1  0.34305882  0.72936031  0.27314911  1  0.125946  0  0.101473  0.076376  0  1.044755  0
H  H47  1  0.16513662  0.70930719  0.26936616  1  0.131929  0  0.11573  0.126062  0  1.003196  0
H  H48  1  0.56813212  0.64210803  0.14753501  1  0.114339  0  0.103951  0.080819  0  1.036563  0
H  H49  1  0.63671779  0.72212477  0.09123344  1  0.139891  0  0.11754  0.129864  0  0.986835  0
H  H50  1  0.54357484  0.89431152  0.16445623  1  0.092656  0  0.11712  0.127248  0  0.98824  0
H  H51  1  0.48440338  0.81002269  0.21934658  1  0.104264  0  0.112629  0.081178  0  1.002301  0
H  H52  1  0.01612662  0.73504122  0.31642860  1  0.111182  0  0.103705  0.116975  0  1.033622  0
H  H53  1  0.96554594  0.81374977  0.37746856  1  0.107262  0  0.108953  0.086337  0  1.019396  0
H  H54  1  0.67037508  0.67961323  0.34098655  1  0.112988  0  0.104521  0.084758  0  1.028337  0
H  H55  1  0.70925493  0.59764802  0.27604705  1  0.119053  0  0.103183  0.109601  0  1.045094  0
H  H56  1  0.91826814  0.75498349  0.97613776  1  0.100729  0  0.109102  0.085605  0  1.012959  0
H  H57  1  0.78843065  0.77112398  0.02464550  1  0.118779  0  0.118768  0.131005  0  0.984012  0
H  H58  1  0.84119527  0.98436188  0.98468225  1  0.124296  0  0.116335  0.129376  0  0.986875  0
H  H59  1  0.96860552  0.95932532  0.93720048  1  0.125688  0  0.105091  0.081789  0  1.028383  0
H  H60  1  0.48428270  0.85509459  0.88071855  1  0.126294  0  0.105852  0.078568  0  1.01949  0
H  H61  1  0.44044768  0.96803452  0.87656977  1  0.119768  0  0.11506  0.124952  0  0.992767  0
H  H62  1  0.33729274  0.96059174  0.00517121  1  0.121768  0  0.116058  0.128062  0  0.987275  0
H  H63  1  0.38432364  0.84707816  0.00407297  1  0.120802  0  0.106573  0.085533  0  1.017544  0
H  H64  1  0.25535618  0.68544489  0.93023891  1  0.117145  0  0.101959  0.089931  0  1.029871  0
H  H65  1  0.11935758  0.58300860  0.87815144  1  0.122704  0  0.110635  0.120827  0  1.0045  0
H  H66  1  0.33878324  0.53373035  0.80185455  1  0.143549  0  0.098218  0.111059  0  1.049936  0
H  H67  1  0.46724898  0.64222626  0.85592878  1  0.09725  0  0.101259  0.07994  0  1.037598  0
H  H68  1  0.89256540  0.49720409  0.83087451  1  0.133446  0  0.118238  0.129758  0  0.988766  0
H  H69  1  0.71197756  0.46901579  0.82289937  1  0.119774  0  0.114652  0.086935  0  1.000532  0
H  H70  1  0.65694092  0.27064025  0.72685193  1  0.125953  0  0.101461  0.076366  0  1.044791  0
H  H71  1  0.83486312  0.29069338  0.73063424  1  0.131824  0  0.115737  0.126093  0  1.003181  0
H  H72  1  0.43187137  0.35789196  0.85246372  1  0.114174  0  0.103946  0.080813  0  1.036534  0
H  H73  1  0.36328359  0.27787637  0.90876575  1  0.139704  0  0.117549  0.129909  0  0.986877  0
H  H74  1  0.45642702  0.10568789  0.83554498  1  0.09262  0  0.117133  0.127227  0  0.988347  0
H  H75  1  0.51559761  0.18997498  0.78065378  1  0.104217  0  0.112671  0.081206  0  1.002242  0
H  H76  1  0.98387331  0.26496108  0.68357042  1  0.111196  0  0.1037  0.116991  0  1.033574  0
H  H77  1  0.03445582  0.18625079  0.62253184  1  0.107329  0  0.108938  0.086309  0  1.019381  0
H  H78  1  0.32962812  0.32038618  0.65901690  1  0.112754  0  0.104476  0.084706  0  1.028295  0
H  H79  1  0.29074528  0.40235081  0.72395634  1  0.119006  0  0.103182  0.109629  0  1.045079  0
H  H80  1  0.08173160  0.24501708  0.02386200  1  0.10069  0  0.109141  0.085655  0  1.013033  0
H  H81  1  0.21156842  0.22887658  0.97535490  1  0.118774  0  0.118775  0.131028  0  0.984004  0
H  H82  1  0.15880313  0.01563869  0.01531911  1  0.124447  0  0.116339  0.129329  0  0.986931  0
H  H83  1  0.03139471  0.04067756  0.06280021  1  0.125693  0  0.105091  0.081794  0  1.02846  0
H  H84  1  0.37088334  0.85520013  0.38088969  1  0.122971  0  0.10558  0.078472  0  1.019619  0
H  H85  1  0.52770709  0.96808579  0.37670801  1  0.123741  0  0.114773  0.124427  0  0.993218  0
H  H86  1  0.62349887  0.96052079  0.50524519  1  0.125214  0  0.116188  0.128466  0  0.987192  0
H  H87  1  0.46290560  0.84702836  0.50417341  1  0.128002  0  0.106376  0.085105  0  1.016715  0
H  H88  1  0.42990494  0.68542050  0.43026754  1  0.14681  0  0.101658  0.089608  0  1.03094  0
H  H89  1  0.46345441  0.58295874  0.37822019  1  0.109844  0  0.110717  0.121044  0  1.00432  0
H  H90  1  0.19495036  0.53382677  0.30183776  1  0.136389  0  0.098579  0.111442  0  1.04998  0
H  H91  1  0.17492818  0.64229470  0.35592294  1  0.11991  0  0.101186  0.079852  0  1.036986  0
H  H92  1  0.60445045  0.49724892  0.33083641  1  0.09569  0  0.118097  0.129936  0  0.988076  0
H  H93  1  0.75686194  0.46900783  0.32291239  1  0.1339  0  0.114684  0.08718  0  1.00069  0
H  H94  1  0.61354173  0.27061252  0.22687202  1  0.120433  0  0.100877  0.075965  0  1.045121  0
H  H95  1  0.45568329  0.29070039  0.23064364  1  0.115271  0  0.115907  0.12597  0  1.003233  0
H  H96  1  0.92583098  0.35779901  0.35240881  1  0.12644  0  0.104091  0.080882  0  1.03676  0
H  H97  1  0.91449730  0.27776151  0.40865557  1  0.129173  0  0.117496  0.130013  0  0.987417  0
H  H98  1  0.64920603  0.10550017  0.33547013  1  0.131359  0  0.117316  0.127671  0  0.98841  0
H  H99  1  0.67423853  0.18983629  0.28062323  1  0.099015  0  0.11257  0.081506  0  1.002343  0
H  H100  1  0.28079425  0.26464871  0.18367544  1  0.123417  0  0.103225  0.116348  0  1.034155  0
H  H101  1  0.15165449  0.18601332  0.12260325  1  0.099272  0  0.108775  0.086296  0  1.018652  0
H  H102  1  0.99074100  0.32027003  0.15898553  1  0.132932  0  0.104453  0.084391  0  1.028355  0
H  H103  1  0.11148429  0.40221320  0.22395068  1  0.128143  0  0.103398  0.109845  0  1.044576  0
H  H104  1  0.16344129  0.24499690  0.52392408  1  0.116698  0  0.108929  0.085456  0  1.013411  0
H  H105  1  0.01765731  0.22883769  0.47531767  1  0.118268  0  0.119124  0.131294  0  0.983525  0
H  H106  1  0.85695871  0.01554115  0.51519109  1  0.124967  0  0.116509  0.129751  0  0.986754  0
H  H107  1  0.00921139  0.04061651  0.56280039  1  0.122895  0  0.104894  0.081441  0  1.028173  0
C  C108  1  0.57072276  0.11960706  0.59248728  1  0.469786  0  0.045294  0.093687  0  3.929878  0
C  C109  1  0.48487043  0.05697568  0.59447335  1  -0.041329  0  -0.069532  -0.130402  0  3.912831  0
C  C110  1  0.41349617  0.02668249  0.55884043  1  0.008066  0  0.01929  0.056354  0  3.940766  0
C  C111  1  0.43131084  0.06110556  0.52261618  1  -9e-05  0  -0.069941  -0.132393  0  3.921881  0
C  C112  1  0.51936786  0.12369460  0.52312768  1  0.459648  0  0.047039  0.097167  0  3.920057  0
C  C113  1  0.62018823  0.34914256  0.59871904  1  0.46192  0  0.048197  0.100201  0  3.905629  0
C  C114  1  0.60200696  0.40662280  0.62759058  1  0.005702  0  -0.069202  -0.12549  0  3.910133  0
C  C115  1  0.66917471  0.45014824  0.66401458  1  -0.015412  0  0.013797  0.04658  0  3.940528  0
C  C116  1  0.75096258  0.43284241  0.67038895  1  -0.018533  0  -0.077016  -0.136623  0  3.924493  0
C  C117  1  0.76280687  0.37356573  0.64047563  1  0.462821  0  0.043932  0.091863  0  3.918755  0
C  C118  1  0.65636398  0.51379202  0.69543363  1  1.081146  0  0.264694  0.3855  0  3.986804  0
C  C119  1  0.57214836  0.58852013  0.71893006  1  1.122847  0  0.26063  0.37704  0  4.021867  0
C  C120  1  0.71828295  0.61412678  0.75452617  1  1.11167  0  0.264635  0.384229  0  4.013403  0
C  C121  1  0.48186113  0.60435640  0.71873944  1  -0.064823  0  0.020593  0.058173  0  3.928547  0
C  C122  1  0.39636322  0.55394129  0.69215510  1  0.002202  0  -0.066173  -0.134412  0  3.898171  0
C  C123  1  0.31222683  0.56945680  0.69631096  1  0.469712  0  0.053859  0.098578  0  3.907756  0
C  C124  1  0.39284539  0.68087880  0.74996658  1  0.471989  0  0.044178  0.090109  0  3.93098  0
C  C125  1  0.47946072  0.66941266  0.74791891  1  0.014941  0  -0.069039  -0.132485  0  3.905626  0
C  C126  1  0.13362910  0.69882826  0.65003778  1  0.461023  0  0.049839  0.098166  0  3.909611  0
C  C127  1  0.14012794  0.74302610  0.61919613  1  -0.024631  0  -0.065722  -0.123059  0  3.902151  0
C  C128  1  0.28851874  0.83917225  0.66005523  1  0.042351  0  -0.067851  -0.133099  0  3.909244  0
C  C129  1  0.27561835  0.79230437  0.68996595  1  0.450451  0  0.049511  0.092636  0  3.934487  0
C  C130  1  0.79413768  0.66057359  0.79123552  1  -0.086673  0  0.015912  0.050952  0  3.936796  0
C  C131  1  0.78311051  0.72206295  0.82025946  1  0.115174  0  -0.072167  -0.127521  0  3.912666  0
C  C132  1  0.85443768  0.76526524  0.85457088  1  0.418217  0  0.046559  0.099456  0  3.917666  0
C  C133  1  0.94378930  0.68974814  0.83415340  1  0.437367  0  0.048715  0.097592  0  3.907595  0
C  C134  1  0.87649556  0.64434600  0.79836944  1  0.009848  0  -0.071879  -0.137536  0  3.906115  0
C  C135  1  0.90640316  0.80455203  0.47888788  1  0.450574  0  0.047599  0.093855  0  3.916247  0
C  C136  1  0.98638554  0.81395156  0.50585020  1  0.023208  0  -0.067407  -0.128034  0  3.905654  0
C  C137  1  0.07353898  0.87903054  0.50796372  1  -0.036315  0  0.019243  0.057864  0  3.949492  0
C  C138  1  0.07626757  0.93307940  0.48341475  1  -0.024323  0  -0.070296  -0.13218  0  3.920356  0
C  C139  1  0.99300513  0.91957593  0.45729540  1  0.492429  0  0.045264  0.086292  0  3.929585  0
C  C140  1  0.16079484  0.89089576  0.53590082  1  1.115212  0  0.263657  0.380595  0  4.015437  0
C  C141  1  0.22829241  0.86331055  0.59177159  1  1.143917  0  0.26127  0.381177  0  4.020928  0
C  C142  1  0.32010648  0.96097231  0.56031219  1  1.110263  0  0.262942  0.38086  0  4.014527  0
C  C143  1  0.21908739  0.81461821  0.62404362  1  -0.015269  0  0.022488  0.066347  0  3.927808  0
C  C144  1  0.54881771  0.11964796  0.09262657  1  0.464191  0  0.0455  0.094123  0  3.930121  0
C  C145  1  0.57195272  0.05697834  0.09458789  1  -0.021934  0  -0.06946  -0.130276  0  3.913601  0
C  C146  1  0.61291057  0.02661110  0.05891695  1  -0.018614  0  0.018846  0.054694  0  3.941122  0
C  C147  1  0.62954437  0.06106366  0.02270317  1  0.056244  0  -0.069605  -0.130613  0  3.919768  0
C  C148  1  0.60413868  0.12366828  0.02323291  1  0.4136  0  0.047042  0.096136  0  3.921396  0
C  C149  1  0.72909733  0.34913592  0.09874829  1  0.534457  0  0.048266  0.100289  0  3.904634  0
C  C150  1  0.80473337  0.40658740  0.12763049  1  -0.0624  0  -0.069357  -0.125478  0  3.911573  0
C  C151  1  0.78108239  0.45013241  0.16403744  1  0.011286  0  0.014332  0.046484  0  3.940812  0
C  C152  1  0.68198537  0.43292473  0.17038540  1  -0.020237  0  -0.076986  -0.135933  0  3.923711  0
C  C153  1  0.61088335  0.37363649  0.14047548  1  0.479852  0  0.043884  0.09115  0  3.919767  0
C  C154  1  0.85753672  0.51370970  0.19548438  1  1.116483  0  0.264564  0.38509  0  3.985406  0
C  C155  1  0.01647333  0.58844299  0.21896913  1  1.139704  0  0.260174  0.375279  0  4.022928  0
C  C156  1  0.89590556  0.61397855  0.25459232  1  1.119417  0  0.264707  0.384408  0  4.011779  0
C  C157  1  0.12263456  0.60433660  0.21875655  1  -0.037261  0  0.021814  0.061177  0  3.927713  0
C  C158  1  0.15777218  0.55396337  0.19215608  1  -0.046636  0  -0.067056  -0.13547  0  3.900776  0
C  C159  1  0.25740197  0.56945604  0.19633134  1  0.495125  0  0.05467  0.099504  0  3.907841  0
C  C160  1  0.28817338  0.68086021  0.24999661  1  0.462685  0  0.045258  0.091855  0  3.930085  0
C  C161  1  0.19007006  0.66938216  0.24793066  1  -0.006768  0  -0.06962  -0.134593  0  3.907512  0
C  C162  1  0.56522313  0.69870510  0.14995878  1  0.470061  0  0.050651  0.09911  0  3.909057  0
C  C163  1  0.60283868  0.74287813  0.11910384  1  0.020723  0  -0.065668  -0.12333  0  3.902297  0
C  C164  1  0.55048438  0.83897322  0.15998201  1  0.062171  0  -0.067725  -0.13348  0  3.90912  0
C  C165  1  0.51661504  0.79213790  0.18989924  1  0.434559  0  0.04932  0.093351  0  3.935685  0
C  C166  1  0.86643232  0.66037165  0.29130643  1  -0.067518  0  0.015855  0.05064  0  3.936612  0
C  C167  1  0.93893896  0.72180889  0.32034746  1  0.064338  0  -0.073055  -0.128764  0  3.912372  0
C  C168  1  0.91076623  0.76503982  0.35463210  1  0.463711  0  0.047004  0.100015  0  3.916609  0
C  C169  1  0.74589002  0.68958525  0.33415843  1  0.534727  0  0.048156  0.096631  0  3.906662  0
C  C170  1  0.76782893  0.64416758  0.29839305  1  -0.046907  0  -0.071366  -0.136721  0  3.905444  0
C  C171  1  0.89796123  0.80451497  0.97891711  1  0.473049  0  0.047844  0.093915  0  3.916023  0
C  C172  1  0.82727971  0.81390413  0.00580798  1  0.028247  0  -0.06742  -0.128871  0  3.90771  0
C  C173  1  0.80517351  0.87896108  0.00786402  1  -0.042909  0  0.01927  0.059173  0  3.947388  0
C  C174  1  0.85658765  0.93299973  0.98332707  1  -0.021059  0  -0.069557  -0.131718  0  3.920764  0
C  C175  1  0.92648671  0.91952092  0.95727949  1  0.498196  0  0.04452  0.085681  0  3.930823  0
C  C176  1  0.72974387  0.89081252  0.03578782  1  1.109904  0  0.263569  0.380323  0  4.015908  0
C  C177  1  0.63475517  0.86314346  0.09169128  1  1.118801  0  0.261367  0.380536  0  4.021621  0
C  C178  1  0.64053303  0.96086935  0.06031181  1  1.103033  0  0.263838  0.382312  0  4.014144  0
C  C179  1  0.59536049  0.81442620  0.12394503  1  -0.051494  0  0.022327  0.067175  0  3.927887  0
C  C180  1  0.45118338  0.88035261  0.90737352  1  0.464194  0  0.045518  0.094116  0  3.930101  0
C  C181  1  0.42804789  0.94302396  0.90541369  1  -0.021999  0  -0.069511  -0.130365  0  3.913742  0
C  C182  1  0.38709215  0.97339004  0.94108417  1  -0.018809  0  0.018859  0.054939  0  3.941196  0
C  C183  1  0.37045788  0.93893922  0.97729784  1  0.056049  0  -0.069557  -0.130692  0  3.919777  0
C  C184  1  0.39586405  0.87633287  0.97676693  1  0.413659  0  0.047027  0.096064  0  3.921575  0
C  C185  1  0.27090270  0.65086523  0.90125090  1  0.534909  0  0.04827  0.100323  0  3.904668  0
C  C186  1  0.19526531  0.59341374  0.87236870  1  -0.062406  0  -0.069365  -0.125504  0  3.911598  0
C  C187  1  0.21891754  0.54986990  0.83596254  1  0.011061  0  0.014377  0.046466  0  3.940865  0
C  C188  1  0.31801159  0.56707699  0.82961355  1  -0.01996  0  -0.076928  -0.135764  0  3.923634  0
C  C189  1  0.38911457  0.62636581  0.85952386  1  0.479503  0  0.043869  0.091037  0  3.919809  0
C  C190  1  0.14246168  0.48629087  0.80451570  1  1.117097  0  0.2646  0.385127  0  3.985285  0
C  C191  1  0.98352429  0.41155873  0.78103110  1  1.139751  0  0.260175  0.375336  0  4.022971  0
C  C192  1  0.10409437  0.38602376  0.74540798  1  1.11953  0  0.264673  0.384408  0  4.011784  0
C  C193  1  0.87736778  0.39566512  0.78124368  1  -0.037269  0  0.021855  0.061275  0  3.927812  0
C  C194  1  0.84222910  0.44603893  0.80784486  1  -0.046645  0  -0.067088  -0.135581  0  3.900875  0
C  C195  1  0.74259709  0.43054453  0.80366906  1  0.495114  0  0.054702  0.099603  0  3.907863  0
C  C196  1  0.71182539  0.31913978  0.75000308  1  0.462661  0  0.045217  0.091776  0  3.930232  0
C  C197  1  0.80992968  0.33061840  0.75206879  1  -0.006598  0  -0.069629  -0.134644  0  3.907448  0
C  C198  1  0.43477940  0.30129431  0.85003987  1  0.470303  0  0.050686  0.099155  0  3.909035  0
C  C199  1  0.39716279  0.25712186  0.88089585  1  0.020987  0  -0.065683  -0.123407  0  3.902478  0
C  C200  1  0.44951680  0.16102618  0.84001920  1  0.062156  0  -0.06769  -0.133387  0  3.909291  0
C  C201  1  0.48338691  0.20786036  0.81010055  1  0.434785  0  0.049316  0.093342  0  3.935643  0
C  C202  1  0.13356753  0.33963181  0.70869338  1  -0.067611  0  0.015797  0.050544  0  3.936717  0
C  C203  1  0.06106222  0.27819457  0.67965138  1  0.064333  0  -0.07297  -0.128708  0  3.912373  0
C  C204  1  0.08923438  0.23496248  0.64536852  1  0.463703  0  0.046975  0.10004  0  3.916612  0
C  C205  1  0.25410933  0.31041590  0.66584429  1  0.534968  0  0.048161  0.096659  0  3.906683  0
C  C206  1  0.23217052  0.35583241  0.70160824  1  -0.046986  0  -0.071379  -0.13675  0  3.905653  0
C  C207  1  0.10203841  0.19548676  0.02108344  1  0.473252  0  0.047779  0.09388  0  3.916061  0
C  C208  1  0.17272032  0.18609701  0.99419217  1  0.028045  0  -0.067385  -0.128878  0  3.907713  0
C  C209  1  0.19482526  0.12103891  0.99213599  1  -0.042771  0  0.01925  0.059137  0  3.947416  0
C  C210  1  0.14341334  0.06700199  0.01667316  1  -0.021279  0  -0.069512  -0.13157  0  3.920728  0
C  C211  1  0.07351178  0.08047849  0.04272172  1  0.498165  0  0.044494  0.085635  0  3.930753  0
C  C212  1  0.27025587  0.10918805  0.96421194  1  1.109908  0  0.263564  0.380291  0  4.015974  0
C  C213  1  0.36524842  0.13685942  0.90830942  1  1.118765  0  0.261348  0.380534  0  4.021657  0
C  C214  1  0.35946863  0.03913238  0.93968938  1  1.103052  0  0.263795  0.382143  0  4.014235  0
C  C215  1  0.40464195  0.18557437  0.87605537  1  -0.051571  0  0.022304  0.067123  0  3.928118  0
C  C216  1  0.42927813  0.88039177  0.40751290  1  0.469799  0  0.045306  0.093702  0  3.929909  0
C  C217  1  0.51512970  0.94302431  0.40552666  1  -0.041313  0  -0.069531  -0.130445  0  3.912804  0
C  C218  1  0.58650463  0.97331750  0.44115958  1  0.008084  0  0.019296  0.056442  0  3.940723  0
C  C219  1  0.56868967  0.93889385  0.47738344  1  -0.00015  0  -0.069949  -0.132413  0  3.921779  0
C  C220  1  0.48063303  0.87630423  0.47687251  1  0.460142  0  0.047007  0.097143  0  3.919868  0
C  C221  1  0.37980718  0.65085337  0.40127918  1  0.461911  0  0.048184  0.100202  0  3.90562  0
C  C222  1  0.39798970  0.59337430  0.37240715  1  0.005588  0  -0.069253  -0.125521  0  3.910057  0
C  C223  1  0.33082109  0.54985117  0.33598440  1  -0.015843  0  0.013871  0.046492  0  3.940472  0
C  C224  1  0.24903591  0.56715700  0.32961003  1  -0.01848  0  -0.077095  -0.136687  0  3.924684  0
C  C225  1  0.23719181  0.62643136  0.35952402  1  0.462794  0  0.04396  0.09186  0  3.918842  0
C  C226  1  0.34363537  0.48620508  0.30456441  1  1.081903  0  0.264808  0.385751  0  3.986717  0
C  C227  1  0.42785089  0.41147812  0.28106973  1  1.122904  0  0.26062  0.377008  0  4.02171  0
C  C228  1  0.28171775  0.38587031  0.24547283  1  1.111451  0  0.264565  0.384189  0  4.013536  0
C  C229  1  0.51813813  0.39564185  0.28126131  1  -0.06489  0  0.020574  0.058192  0  3.928499  0
C  C230  1  0.60363603  0.44605696  0.30784693  1  0.002079  0  -0.066179  -0.134465  0  3.898186  0
C  C231  1  0.68777243  0.43054145  0.30369012  1  0.469707  0  0.053923  0.09871  0  3.907793  0
C  C232  1  0.60715666  0.31912234  0.25003358  1  0.471948  0  0.04418  0.090103  0  3.931071  0
C  C233  1  0.52053883  0.33058617  0.25208000  1  0.015018  0  -0.069017  -0.132489  0  3.905618  0
C  C234  1  0.86637131  0.30117231  0.34996326  1  0.460954  0  0.049841  0.098213  0  3.909661  0
C  C235  1  0.85987151  0.25697389  0.38080420  1  -0.024574  0  -0.065733  -0.123069  0  3.9021  0
C  C236  1  0.71148139  0.16082773  0.33994510  1  0.042438  0  -0.067837  -0.133107  0  3.909301  0
C  C237  1  0.72438120  0.20769446  0.31003391  1  0.450439  0  0.049568  0.092732  0  3.93456  0
C  C238  1  0.20586273  0.33942292  0.20876309  1  -0.086771  0  0.015883  0.050987  0  3.936801  0
C  C239  1  0.21689028  0.27793299  0.17973908  1  0.115391  0  -0.072096  -0.127462  0  3.912684  0
C  C240  1  0.14556004  0.23473128  0.14542870  1  0.418716  0  0.046602  0.099616  0  3.917711  0
C  C241  1  0.05621352  0.31025185  0.16584533  1  0.437233  0  0.048704  0.09767  0  3.907345  0
C  C242  1  0.12350715  0.35565109  0.20162860  1  0.00982  0  -0.07193  -0.137762  0  3.906272  0
C  C243  1  0.09359715  0.19544970  0.52111234  1  0.450667  0  0.047528  0.093691  0  3.916378  0
C  C244  1  0.01361536  0.18605132  0.49415049  1  0.022761  0  -0.06729  -0.127771  0  3.905455  0
C  C245  1  0.92645932  0.12097118  0.49203650  1  -0.036002  0  0.019177  0.057659  0  3.949498  0
C  C246  1  0.92373342  0.06692232  0.51658579  1  -0.024339  0  -0.070313  -0.132137  0  3.920228  0
C  C247  1  0.00699557  0.08042522  0.54270508  1  0.492429  0  0.045274  0.086293  0  3.929377  0
C  C248  1  0.83920548  0.10910597  0.46410069  1  1.115231  0  0.263586  0.380534  0  4.015543  0
C  C249  1  0.77170753  0.13669175  0.40822871  1  1.143891  0  0.261224  0.381198  0  4.020852  0
C  C250  1  0.67989259  0.03902826  0.43968885  1  1.110212  0  0.262933  0.380801  0  4.01455  0
C  C251  1  0.78091177  0.18538120  0.37595696  1  -0.0154  0  0.022516  0.066358  0  3.927742  0
I  I252  1  0.72781079  0.28692425  0.48560826  1  -0.525362  0  -0.300897  -0.446182  0  1.209523  0
I  I253  1  0.84698246  0.21367751  0.59637939  1  -0.542409  0  -0.274227  -0.459678  0  1.320262  0
I  I254  1  0.21534608  0.75087297  0.80706598  1  -0.507577  0  -0.254327  -0.423937  0  1.352751  0
I  I255  1  0.03204398  0.53347912  0.70432941  1  -0.523831  0  -0.245901  -0.414733  0  1.355926  0
I  I256  1  0.11840364  0.94442852  0.87377455  1  -0.52244  0  -0.297576  -0.4287  0  1.246763  0
I  I257  1  0.11934108  0.76044303  0.94938590  1  -0.528274  0  -0.278656  -0.44211  0  1.273809  0
I  I258  1  0.55869607  0.28697406  0.98573408  1  -0.525198  0  -0.300885  -0.446345  0  1.21046  0
I  I259  1  0.36666820  0.21382637  0.09657768  1  -0.544245  0  -0.274004  -0.459661  0  1.320571  0
I  I260  1  0.53589719  0.75088176  0.30703156  1  -0.507613  0  -0.254435  -0.424041  0  1.352746  0
I  I261  1  0.50198073  0.53355970  0.20449092  1  -0.525805  0  -0.24591  -0.41483  0  1.356394  0
I  I262  1  0.82608012  0.94422317  0.37360848  1  -0.522852  0  -0.29769  -0.428563  0  1.246173  0
I  I263  1  0.64103999  0.76040217  0.44933611  1  -0.528292  0  -0.278512  -0.442112  0  1.274724  0
I  I264  1  0.44130607  0.71302592  0.01426593  1  -0.52521  0  -0.300886  -0.446347  0  1.210438  0
I  I265  1  0.63333221  0.78617420  0.90342208  1  -0.544247  0  -0.274005  -0.45966  0  1.320541  0
I  I266  1  0.46410495  0.24911823  0.69296781  1  -0.50763  0  -0.254443  -0.424054  0  1.352762  0
I  I267  1  0.49801978  0.46643971  0.79550902  1  -0.525805  0  -0.245912  -0.414842  0  1.356388  0
I  I268  1  0.17392030  0.05577740  0.62639096  1  -0.52283  0  -0.297689  -0.428561  0  1.246181  0
I  I269  1  0.35896100  0.23959955  0.55066380  1  -0.528275  0  -0.278521  -0.44211  0  1.274712  0
I  I270  1  0.27218885  0.71307343  0.51439082  1  -0.525396  0  -0.300897  -0.446166  0  1.209457  0
I  I271  1  0.15301709  0.78632132  0.40361983  1  -0.542417  0  -0.27422  -0.459681  0  1.320289  0
I  I272  1  0.78466097  0.24912876  0.19293521  1  -0.507762  0  -0.254324  -0.423945  0  1.352772  0
I  I273  1  0.96795942  0.46652202  0.29567203  1  -0.523728  0  -0.245918  -0.414759  0  1.355915  0
I  I274  1  0.88159985  0.05557147  0.12622610  1  -0.522382  0  -0.297563  -0.428684  0  1.246745  0
I  I275  1  0.88065577  0.23955580  0.05061365  1  -0.5283  0  -0.278667  -0.442131  0  1.27381  0
N  N276  1  0.58789296  0.15227454  0.55736500  1  -1.253083  0  -0.326408  -0.185208  0  3.56144  0
N  N277  1  0.69867114  0.33263201  0.60508816  1  -1.255691  0  -0.324083  -0.181572  0  3.561884  0
N  N278  1  0.72718073  0.55294939  0.72845267  1  -1.189927  0  -0.294827  -0.386334  0  3.213716  0
N  N279  1  0.64343817  0.63558050  0.75024269  1  -1.156827  0  -0.298785  -0.389194  0  3.229671  0
N  N280  1  0.57605638  0.52830966  0.68954852  1  -1.17146  0  -0.298166  -0.393024  0  3.186398  0
N  N281  1  0.93317818  0.74948682  0.86164210  1  -1.243319  0  -0.322724  -0.18524  0  3.55432  0
N  N282  1  0.31031469  0.63173180  0.72479475  1  -1.243681  0  -0.321477  -0.18482  0  3.549187  0
N  N283  1  0.19987742  0.72313670  0.68497605  1  -1.255457  0  -0.326598  -0.184438  0  3.569404  0
N  N284  1  0.90975377  0.85614672  0.45478264  1  -1.254762  0  -0.326612  -0.19471  0  3.56374  0
N  N285  1  0.14818189  0.84660714  0.56532550  1  -1.182381  0  -0.297038  -0.391563  0  3.221004  0
N  N286  1  0.31491616  0.92175826  0.59189294  1  -1.195303  0  -0.299099  -0.39812  0  3.219997  0
N  N287  1  0.24640262  0.94614663  0.53051866  1  -1.179414  0  -0.295244  -0.389715  0  3.223041  0
N  N288  1  0.56425616  0.15228531  0.05749866  1  -1.241731  0  -0.327119  -0.185649  0  3.561698  0
N  N289  1  0.63408750  0.33265420  0.10511052  1  -1.272102  0  -0.324844  -0.181763  0  3.561414  0
N  N290  1  0.82585056  0.55280588  0.22852826  1  -1.203538  0  -0.295551  -0.386448  0  3.212658  0
N  N291  1  0.99222042  0.63549139  0.25029257  1  -1.182789  0  -0.298664  -0.389193  0  3.228692  0
N  N292  1  0.95236362  0.52823849  0.18959253  1  -1.206253  0  -0.2976  -0.391712  0  3.185915  0
N  N293  1  0.81622705  0.74929491  0.36165922  1  -1.255541  0  -0.32289  -0.18486  0  3.553305  0
N  N294  1  0.32158003  0.63170286  0.22483272  1  -1.254064  0  -0.322744  -0.18664  0  3.549472  0
N  N295  1  0.52327630  0.72300029  0.18491340  1  -1.246616  0  -0.327043  -0.185416  0  3.568243  0
N  N296  1  0.94631883  0.85610769  0.95481626  1  -1.269574  0  -0.32668  -0.194286  0  3.562302  0
N  N297  1  0.69811352  0.84648359  0.06519507  1  -1.159535  0  -0.296756  -0.390351  0  3.222271  0
N  N298  1  0.60658629  0.92161419  0.09188693  1  -1.18701  0  -0.299558  -0.398295  0  3.219054  0
N  N299  1  0.69935895  0.94606267  0.03046104  1  -1.166859  0  -0.296145  -0.391499  0  3.22465  0
N  N300  1  0.43574378  0.84771699  0.94250260  1  -1.241707  0  -0.327142  -0.185602  0  3.561847  0
N  N301  1  0.36591224  0.66734637  0.89488828  1  -1.272513  0  -0.324872  -0.181847  0  3.561561  0
N  N302  1  0.17414879  0.44719527  0.77147253  1  -1.203904  0  -0.295545  -0.386443  0  3.212697  0
N  N303  1  0.00777788  0.36451033  0.74970766  1  -1.182779  0  -0.298702  -0.389279  0  3.228632  0
N  N304  1  0.04763439  0.47176266  0.81040763  1  -1.2064  0  -0.297609  -0.391756  0  3.185787  0
N  N305  1  0.18377635  0.25070623  0.63834222  1  -1.255479  0  -0.322816  -0.184818  0  3.553141  0
N  N306  1  0.67842106  0.36829771  0.77516736  1  -1.254053  0  -0.322699  -0.186547  0  3.549558  0
N  N307  1  0.47672565  0.27699796  0.81508671  1  -1.246873  0  -0.327132  -0.185492  0  3.568317  0
N  N308  1  0.05367860  0.14389230  0.04518407  1  -1.269548  0  -0.326704  -0.194342  0  3.5621  0
N  N309  1  0.30188661  0.15351640  0.93480526  1  -1.159521  0  -0.296756  -0.390335  0  3.222394  0
N  N310  1  0.39341778  0.07838695  0.90811482  1  -1.186951  0  -0.299451  -0.398131  0  3.219008  0
N  N311  1  0.30064118  0.05393731  0.96953961  1  -1.166845  0  -0.296179  -0.391507  0  3.224593  0
N  N312  1  0.41210794  0.84772429  0.44263454  1  -1.253573  0  -0.326427  -0.185234  0  3.561432  0
N  N313  1  0.30132263  0.66736335  0.39491095  1  -1.255629  0  -0.324067  -0.181581  0  3.562121  0
N  N314  1  0.27281920  0.44704886  0.27154488  1  -1.18991  0  -0.294859  -0.386393  0  3.213825  0
N  N315  1  0.35656147  0.36441717  0.24975703  1  -1.156809  0  -0.298736  -0.389168  0  3.229728  0
N  N316  1  0.42394018  0.47168859  0.31045095  1  -1.171717  0  -0.298189  -0.393108  0  3.186353  0
N  N317  1  0.06682155  0.25050969  0.13835652  1  -1.243734  0  -0.32275  -0.18538  0  3.55433  0
N  N318  1  0.68968515  0.36826761  0.27520550  1  -1.243591  0  -0.321483  -0.184799  0  3.549257  0
N  N319  1  0.80012146  0.27686213  0.31502317  1  -1.255375  0  -0.326602  -0.184442  0  3.569293  0
N  N320  1  0.09024838  0.14385732  0.54521724  1  -1.254863  0  -0.326619  -0.194648  0  3.563599  0
N  N321  1  0.85181843  0.15339458  0.43467601  1  -1.182432  0  -0.297018  -0.391557  0  3.220951  0
N  N322  1  0.68508320  0.07824289  0.40810818  1  -1.195223  0  -0.299109  -0.398164  0  3.220016  0
N  N323  1  0.75359770  0.05385510  0.46948221  1  -1.17943  0  -0.295186  -0.389633  0  3.222995  0
