# generated using pymatgen
data_AlH9C16O7
_symmetry_space_group_name_H-M   'P 1'
_cell_length_a   6.67110942
_cell_length_b   24.11677191
_cell_length_c   25.09389517
_cell_angle_alpha   89.89054128
_cell_angle_beta   89.09539079
_cell_angle_gamma   89.35374342
_symmetry_Int_Tables_number   1
_chemical_formula_structural   AlH9C16O7
_chemical_formula_sum   'Al4 H36 C64 O28'
_cell_volume   4036.48097008
_cell_formula_units_Z   4
loop_
 _symmetry_equiv_pos_site_id
 _symmetry_equiv_pos_as_xyz
  1  'x, y, z'
loop_
 _atom_site_type_symbol
 _atom_site_label
 _atom_site_symmetry_multiplicity
 _atom_site_fract_x
 _atom_site_fract_y
 _atom_site_fract_z
 _atom_site_occupancy
 _atom_site_pbe_bader_charge
 _atom_site_pbe_bader_spin_density
 _atom_site_pbe_cm5_charge
 _atom_site_pbe_ddec_charge
 _atom_site_pbe_ddec_spin_density
 _atom_site_pbe_ddec_sum_bond_order
 _atom_site_pbe_magmom
Al  Al0  1  0.94650198  0.99823070  0.49947795  1  2.502143  0  0.39991  1.649795  0  2.573388  0
Al  Al1  1  0.44643323  0.00216094  0.49902269  1  2.500534  0  0.401022  1.644059  0  2.573292  0
Al  Al2  1  0.05348637  0.49792154  0.00095469  1  2.500447  0  0.40121  1.644545  0  2.572655  0
Al  Al3  1  0.55342891  0.50181335  0.00047775  1  2.502408  0  0.39995  1.649283  0  2.573735  0
H  H4  1  0.18376334  0.07301167  0.50843013  1  0.619446  0  0.353855  0.431911  0  0.851156  0
H  H5  1  0.68776921  0.93059636  0.52098587  1  0.616209  0  0.352122  0.42958  0  0.856455  0
H  H6  1  0.31609424  0.42705553  0.99150415  1  0.62123  0  0.353896  0.432064  0  0.850472  0
H  H7  1  0.81206621  0.56948795  0.97900565  1  0.618207  0  0.35201  0.429387  0  0.856901  0
H  H8  1  0.46636787  0.41276321  0.13538037  1  0.104236  0  0.111834  0.12306  0  0.996444  0
H  H9  1  0.43791660  0.33832553  0.20444896  1  0.112367  0  0.10202  0.109621  0  1.014988  0
H  H10  1  0.09332602  0.37340680  0.11263408  1  0.12305  0  0.117463  0.142033  0  0.985206  0
H  H11  1  0.40653797  0.12655863  0.38712394  1  0.118747  0  0.117264  0.141572  0  0.985709  0
H  H12  1  0.03366409  0.08727926  0.36462790  1  0.103186  0  0.111879  0.123086  0  0.996867  0
H  H13  1  0.06226420  0.16166408  0.29553074  1  0.111075  0  0.102016  0.109934  0  1.015231  0
H  H14  1  0.97072597  0.60547883  0.88531907  1  0.097446  0  0.106581  0.111024  0  1.01647  0
H  H15  1  0.93411410  0.67912954  0.81610631  1  0.125787  0  0.099921  0.110619  0  1.045583  0
H  H16  1  0.61196774  0.60709152  0.86420265  1  0.116127  0  0.114369  0.136414  0  0.995549  0
H  H17  1  0.88804622  0.89317069  0.63591346  1  0.118816  0  0.114388  0.136446  0  0.995861  0
H  H18  1  0.52928834  0.89448503  0.61458730  1  0.094523  0  0.106469  0.111042  0  1.016503  0
H  H19  1  0.56566390  0.82078039  0.68376832  1  0.123711  0  0.099552  0.1103  0  1.045295  0
H  H20  1  0.59759309  0.63202936  0.09972524  1  0.11173  0  0.111221  0.121492  0  0.998112  0
H  H21  1  0.59529260  0.70364125  0.17145602  1  0.079022  0  0.101329  0.106936  0  1.012568  0
H  H22  1  0.97495091  0.59846239  0.13270351  1  0.119329  0  0.119627  0.145193  0  0.980936  0
H  H23  1  0.52481987  0.90168274  0.36717035  1  0.114957  0  0.119478  0.14489  0  0.981645  0
H  H24  1  0.90245998  0.86797127  0.40033784  1  0.087222  0  0.111207  0.12161  0  0.998114  0
H  H25  1  0.90469306  0.79634994  0.32861240  1  0.077781  0  0.101316  0.106782  0  1.012335  0
H  H26  1  0.47442482  0.38466442  0.89612883  1  0.107961  0  0.107632  0.112974  0  1.013759  0
H  H27  1  0.43741482  0.31428300  0.82415063  1  0.130328  0  0.10034  0.110572  0  1.037965  0
H  H28  1  0.11339178  0.38505361  0.86986038  1  0.104769  0  0.114989  0.138122  0  0.994588  0
H  H29  1  0.38680239  0.11530719  0.62994061  1  0.111908  0  0.114963  0.137506  0  0.994493  0
H  H30  1  0.02611222  0.11466311  0.60436896  1  0.073273  0  0.10759  0.11326  0  1.013914  0
H  H31  1  0.06362602  0.18479890  0.67656908  1  0.121771  0  0.100166  0.111018  0  1.038975  0
H  H32  1  0.06296206  0.26550433  0.20966614  1  0.602311  0  0.317788  0.346832  0  0.918384  0
H  H33  1  0.43706183  0.23434854  0.29003546  1  0.595972  0  0.317708  0.346635  0  0.919321  0
H  H34  1  0.56927783  0.71200914  0.76399957  1  0.616815  0  0.319776  0.348554  0  0.916832  0
H  H35  1  0.93051570  0.78828822  0.73614528  1  0.618446  0  0.319717  0.348411  0  0.915535  0
H  H36  1  0.96242013  0.69811175  0.23736804  1  0.606236  0  0.317838  0.345856  0  0.919529  0
H  H37  1  0.53725352  0.80201984  0.26250484  1  0.611497  0  0.317749  0.345868  0  0.919676  0
H  H38  1  0.07027020  0.28513218  0.76572421  1  0.604165  0  0.319148  0.349114  0  0.916667  0
H  H39  1  0.43059421  0.21491884  0.73434264  1  0.602872  0  0.319378  0.349262  0  0.916575  0
C  C40  1  0.68833787  0.07117280  0.56787528  1  1.571894  0  0.266706  0.640903  0  4.091431  0
C  C41  1  0.70971452  0.06188985  0.42424745  1  1.591767  0  0.269761  0.63902  0  4.08988  0
C  C42  1  0.21271720  0.93030923  0.43154691  1  1.579652  0  0.27028  0.640383  0  4.088816  0
C  C43  1  0.19129954  0.93730370  0.57523030  1  1.584503  0  0.266638  0.640185  0  4.091431  0
C  C44  1  0.81176498  0.42883571  0.93215196  1  1.58735  0  0.266957  0.640513  0  4.091999  0
C  C45  1  0.79015650  0.43815399  0.07570754  1  1.588564  0  0.27004  0.639845  0  4.090113  0
C  C46  1  0.28720113  0.56975779  0.06843174  1  1.57998  0  0.270135  0.639982  0  4.089019  0
C  C47  1  0.30871387  0.56277554  0.92474712  1  1.586556  0  0.266336  0.639547  0  4.091071  0
C  C48  1  0.78052297  0.39695022  0.12005031  1  -0.033481  0  -0.010597  -0.020406  0  3.995215  0
C  C49  1  0.59624109  0.38776723  0.14638221  1  -0.030881  0  -0.090477  -0.119279  0  4.001502  0
C  C50  1  0.58129380  0.34670743  0.18486881  1  -0.032317  0  -0.083645  -0.100291  0  3.976894  0
C  C51  1  0.75029962  0.31397492  0.19780128  1  0.13714  0  -0.018605  0.008828  0  4.137285  0
C  C52  1  0.93697168  0.32458982  0.17186470  1  0.472046  0  0.090249  0.275339  0  4.041852  0
C  C53  1  0.95126816  0.36592609  0.13324015  1  -0.00871  0  -0.090973  -0.210572  0  3.933324  0
C  C54  1  0.74289516  0.26985984  0.23473472  1  -0.334202  0  -0.043235  -0.111719  0  4.163332  0
C  C55  1  0.75734995  0.23009024  0.26510518  1  -0.106436  0  -0.043377  -0.111026  0  4.163079  0
C  C56  1  0.74987894  0.18598852  0.30204911  1  0.140111  0  -0.018759  0.009342  0  4.137247  0
C  C57  1  0.56309633  0.17531788  0.32790986  1  0.471971  0  0.089967  0.274455  0  4.041877  0
C  C58  1  0.54871053  0.13401077  0.36654374  1  -0.020595  0  -0.090647  -0.210072  0  3.934077  0
C  C59  1  0.71941827  0.10303344  0.37985278  1  -0.016146  0  -0.010845  -0.020389  0  3.996201  0
C  C60  1  0.90375715  0.11222625  0.35356418  1  -0.028819  0  -0.090351  -0.118965  0  4.002196  0
C  C61  1  0.91879254  0.15326397  0.31505390  1  -0.034006  0  -0.083548  -0.101183  0  3.976987  0
C  C62  1  0.29276511  0.60320009  0.87974935  1  0.045004  0  -0.011176  -0.018176  0  3.986599  0
C  C63  1  0.10187901  0.62273782  0.86537097  1  -0.08258  0  -0.092677  -0.117841  0  4.011329  0
C  C64  1  0.08184764  0.66368631  0.82704261  1  0.0134  0  -0.084927  -0.101569  0  3.972377  0
C  C65  1  0.25355943  0.68602058  0.80209168  1  0.06351  0  -0.018007  0.01025  0  4.138022  0
C  C66  1  0.44547677  0.66421124  0.81496234  1  0.479107  0  0.090676  0.274591  0  4.039788  0
C  C67  1  0.46455494  0.62318954  0.85374551  1  -0.038412  0  -0.090806  -0.20955  0  3.93153  0
C  C68  1  0.24416086  0.73036091  0.76545722  1  -0.099831  0  -0.04298  -0.111439  0  4.163184  0
C  C69  1  0.25550116  0.76967040  0.73447237  1  -0.335204  0  -0.042122  -0.109407  0  4.162845  0
C  C70  1  0.24618803  0.81403420  0.69787237  1  0.064963  0  -0.01823  0.009728  0  4.139191  0
C  C71  1  0.05439769  0.83596434  0.68508423  1  0.480529  0  0.090134  0.273813  0  4.040006  0
C  C72  1  0.03544059  0.87696556  0.64627651  1  -0.056257  0  -0.090986  -0.210025  0  3.932924  0
C  C73  1  0.20726295  0.89688575  0.62023480  1  0.021392  0  -0.010924  -0.017511  0  3.986891  0
C  C74  1  0.39811240  0.87728467  0.63457865  1  -0.043712  0  -0.092538  -0.117829  0  4.012155  0
C  C75  1  0.41796066  0.83630746  0.67288392  1  0.018412  0  -0.084423  -0.101142  0  3.972849  0
C  C76  1  0.28619940  0.61191418  0.11182361  1  -0.030379  0  -0.010886  -0.021924  0  3.997196  0
C  C77  1  0.46175723  0.64118165  0.12280434  1  -0.014148  0  -0.09064  -0.116846  0  3.999938  0
C  C78  1  0.45954406  0.68105082  0.16249866  1  0.002314  0  -0.08369  -0.099506  0  3.9805  0
C  C79  1  0.28228161  0.69223964  0.19216627  1  0.085188  0  -0.018689  0.007329  0  4.136944  0
C  C80  1  0.10699447  0.66146427  0.18140750  1  0.459121  0  0.089713  0.27512  0  4.048454  0
C  C81  1  0.10946633  0.62183196  0.14120870  1  0.047108  0  -0.090271  -0.20979  0  3.935528  0
C  C82  1  0.26822427  0.73297771  0.23237080  1  -0.455683  0  -0.044946  -0.114043  0  4.164651  0
C  C83  1  0.23163147  0.76708776  0.26759602  1  -0.019795  0  -0.044698  -0.113599  0  4.164277  0
C  C84  1  0.21752304  0.80781760  0.30781063  1  0.081756  0  -0.018725  0.007994  0  4.136506  0
C  C85  1  0.39277318  0.83863246  0.31852481  1  0.459641  0  0.089462  0.274078  0  4.048731  0
C  C86  1  0.39038063  0.87827129  0.35872423  1  0.050757  0  -0.089967  -0.209261  0  3.935348  0
C  C87  1  0.21369930  0.88816240  0.38815267  1  -0.028725  0  -0.01091  -0.021598  0  3.997866  0
C  C88  1  0.03824593  0.85884497  0.37722397  1  0.008468  0  -0.090665  -0.117586  0  4.000804  0
C  C89  1  0.04042029  0.81897130  0.33752695  1  0.00626  0  -0.083854  -0.099501  0  3.980349  0
C  C90  1  0.79555567  0.38792519  0.88783038  1  -0.000354  0  -0.011698  -0.019911  0  3.990354  0
C  C91  1  0.60499526  0.36848204  0.87453063  1  -0.094458  0  -0.091903  -0.116657  0  4.010294  0
C  C92  1  0.58476030  0.32937167  0.83474234  1  -0.012657  0  -0.084643  -0.101341  0  3.971801  0
C  C93  1  0.75560801  0.30885089  0.80720057  1  0.10971  0  -0.017652  0.010436  0  4.137925  0
C  C94  1  0.94716915  0.32980164  0.81986159  1  0.44357  0  0.090095  0.27521  0  4.038116  0
C  C95  1  0.96654976  0.36900287  0.86009358  1  0.04246  0  -0.09109  -0.210526  0  3.934297  0
C  C96  1  0.74523605  0.26774291  0.76747797  1  -0.329463  0  -0.042263  -0.109963  0  4.161421  0
C  C97  1  0.75582635  0.23179101  0.73298364  1  -0.100706  0  -0.042306  -0.109448  0  4.161916  0
C  C98  1  0.74525101  0.19074934  0.69319725  1  0.090549  0  -0.016981  0.010526  0  4.13746  0
C  C99  1  0.55340695  0.17012351  0.68029144  1  0.443665  0  0.089895  0.274873  0  4.037729  0
C  C100  1  0.53384240  0.13105702  0.63994854  1  0.038625  0  -0.091415  -0.210007  0  3.93284  0
C  C101  1  0.70481944  0.11194015  0.61231795  1  0.017541  0  -0.011464  -0.019657  0  3.98915  0
C  C102  1  0.89559868  0.13106097  0.62584787  1  -0.006397  0  -0.092323  -0.117823  0  4.011402  0
C  C103  1  0.91608790  0.17001035  0.66577047  1  -0.051205  0  -0.084541  -0.10145  0  3.972345  0
O  O104  1  0.85245911  0.05818063  0.54400896  1  -1.265337  0  -0.239004  -0.60871  0  2.374178  0
O  O105  1  0.54065237  0.05459762  0.44760859  1  -1.263126  0  -0.235688  -0.592844  0  2.336291  0
O  O106  1  0.37803496  0.95351080  0.44186229  1  -1.253452  0  -0.232024  -0.579912  0  2.335134  0
O  O107  1  0.01795830  0.95553102  0.56281670  1  -1.255038  0  -0.239344  -0.594356  0  2.311924  0
O  O108  1  0.04604929  0.93953240  0.45577553  1  -1.260506  0  -0.235586  -0.595495  0  2.348687  0
O  O109  1  0.35577574  0.94920019  0.55147823  1  -1.264009  0  -0.237072  -0.604792  0  2.374869  0
O  O110  1  0.51541477  0.05299004  0.55647364  1  -1.259246  0  -0.238924  -0.592683  0  2.312457  0
O  O111  1  0.87366303  0.03804463  0.43663868  1  -1.260745  0  -0.231984  -0.58231  0  2.348236  0
O  O112  1  0.19281846  0.03442868  0.49799384  1  -1.424209  0  -0.4479  -0.993208  0  2.20025  0
O  O113  1  0.69496887  0.96603847  0.50289893  1  -1.421595  0  -0.448357  -0.992062  0  2.197278  0
O  O114  1  0.98461998  0.44709366  0.94352220  1  -1.257924  0  -0.239314  -0.592844  0  2.312466  0
O  O115  1  0.62622404  0.46200581  0.06332663  1  -1.258332  0  -0.231892  -0.582446  0  2.347966  0
O  O116  1  0.45385865  0.56052467  0.04420633  1  -1.259412  0  -0.235505  -0.594899  0  2.348286  0
O  O117  1  0.14419860  0.55090441  0.94848451  1  -1.263537  0  -0.236755  -0.603983  0  2.374493  0
O  O118  1  0.12187110  0.54655249  0.05812834  1  -1.254128  0  -0.232169  -0.58026  0  2.335555  0
O  O119  1  0.48202560  0.54451550  0.93716798  1  -1.255322  0  -0.239355  -0.594243  0  2.311576  0
O  O120  1  0.64756088  0.44185917  0.95595865  1  -1.265673  0  -0.239024  -0.608304  0  2.374287  0
O  O121  1  0.95925354  0.44547144  0.05236543  1  -1.262531  0  -0.236046  -0.593552  0  2.336772  0
O  O122  1  0.30708699  0.46563351  0.00196924  1  -1.425952  0  -0.448025  -0.993505  0  2.199665  0
O  O123  1  0.80494500  0.53403660  0.99708207  1  -1.423485  0  -0.448186  -0.991803  0  2.197873  0
O  O124  1  0.10369638  0.29391453  0.18374950  1  -1.136619  0  -0.347381  -0.435821  0  2.278585  0
O  O125  1  0.39633210  0.20594123  0.31594650  1  -1.130726  0  -0.347224  -0.435435  0  2.280035  0
O  O126  1  0.61322980  0.68403720  0.78988741  1  -1.141668  0  -0.343116  -0.432031  0  2.301153  0
O  O127  1  0.88657572  0.81626760  0.71025222  1  -1.144489  0  -0.342916  -0.431652  0  2.298213  0
O  O128  1  0.93402368  0.67044602  0.20996507  1  -1.132356  0  -0.34563  -0.431404  0  2.280859  0
O  O129  1  0.56562140  0.82969267  0.28990588  1  -1.137242  0  -0.345661  -0.431259  0  2.281199  0
O  O130  1  0.11436166  0.31147347  0.79279649  1  -1.136087  0  -0.344196  -0.435212  0  2.292697  0
O  O131  1  0.38625950  0.18869451  0.70720103  1  -1.13434  0  -0.344376  -0.435097  0  2.29372  0
