# generated using pymatgen
data_Zr3H15(C13O14)2
_symmetry_space_group_name_H-M   'P 1'
_cell_length_a   14.85474230
_cell_length_b   14.79316706
_cell_length_c   14.83283270
_cell_angle_alpha   60.03391942
_cell_angle_beta   60.04731138
_cell_angle_gamma   60.03666558
_symmetry_Int_Tables_number   1
_chemical_formula_structural   Zr3H15(C13O14)2
_chemical_formula_sum   'Zr6 H30 C52 O56'
_cell_volume   2306.86436407
_cell_formula_units_Z   2
loop_
 _symmetry_equiv_pos_site_id
 _symmetry_equiv_pos_as_xyz
  1  'x, y, z'
loop_
 _atom_site_type_symbol
 _atom_site_label
 _atom_site_symmetry_multiplicity
 _atom_site_fract_x
 _atom_site_fract_y
 _atom_site_fract_z
 _atom_site_occupancy
 _atom_site_pbe_bader_charge
 _atom_site_pbe_bader_spin_density
 _atom_site_pbe_cm5_charge
 _atom_site_pbe_ddec_charge
 _atom_site_pbe_ddec_spin_density
 _atom_site_pbe_ddec_sum_bond_order
 _atom_site_pbe_magmom
Zr  Zr0  1  0.88501241  0.87865707  0.62112118  1  2.635551  0  1.637473  2.370538  0  2.734182  0
Zr  Zr1  1  0.12091776  0.11955108  0.38031778  1  2.629423  0  1.634565  2.36692  0  2.756146  0
Zr  Zr2  1  0.12254487  0.88029677  0.61904204  1  2.626314  0  1.635814  2.36669  0  2.767526  0
Zr  Zr3  1  0.88329956  0.11722291  0.38412503  1  2.632028  0  1.639027  2.364747  0  2.764662  0
Zr  Zr4  1  0.12252839  0.88058085  0.38266895  1  2.628408  0  1.638593  2.366101  0  2.774511  0
Zr  Zr5  1  0.88643857  0.11803192  0.61975509  1  2.632311  0  1.633959  2.368124  0  2.744661  0
H  H6  1  0.09888828  0.71694422  0.59186201  1  0.602924  0  0.336826  0.432956  0  0.842662  0
H  H7  1  0.09493681  0.09249077  0.21938384  1  0.62083  0  0.33671  0.432742  0  0.844304  0
H  H8  1  0.09865265  0.09485212  0.59261681  1  0.607515  0  0.336106  0.433811  0  0.841279  0
H  H9  1  0.72320847  0.09258695  0.59845882  1  0.616518  0  0.335691  0.430557  0  0.845604  0
H  H10  1  0.96244758  0.57944351  0.74472604  1  0.073028  0  0.098038  0.119199  0  1.044048  0
H  H11  1  0.89357351  0.27999519  0.10447889  1  0.090445  0  0.094564  0.115075  0  1.078737  0
H  H12  1  0.17439994  0.33094231  0.36171178  1  0.628673  0  0.310198  0.342137  0  0.978462  0
H  H13  1  0.81306023  0.70149958  0.59156313  1  0.634575  0  0.311718  0.345708  0  0.964328  0
H  H14  1  0.17201724  0.63799760  0.36261878  1  0.622347  0  0.308803  0.34272  0  0.981594  0
H  H15  1  0.81871438  0.39062940  0.59596011  1  0.636394  0  0.308257  0.341861  0  0.977734  0
H  H16  1  0.33904891  0.16539693  0.14185880  1  0.622967  0  0.31034  0.344989  0  0.976189  0
H  H17  1  0.68038029  0.82522462  0.87146232  1  0.632314  0  0.312307  0.349646  0  0.966569  0
H  H18  1  0.65081206  0.15927095  0.84291308  1  0.628101  0  0.309336  0.339232  0  0.983576  0
H  H19  1  0.36400097  0.83573028  0.16546731  1  0.635895  0  0.30982  0.341043  0  0.980321  0
H  H20  1  0.82691359  0.11218507  0.87955585  1  0.63322  0  0.310926  0.346449  0  0.972504  0
H  H21  1  0.16359605  0.84613431  0.15090183  1  0.623061  0  0.312421  0.345898  0  0.97413  0
H  H22  1  0.82571374  0.10860277  0.18891284  1  0.637472  0  0.313594  0.347981  0  0.972149  0
H  H23  1  0.17037535  0.85336481  0.83820469  1  0.628964  0  0.313118  0.344581  0  0.972592  0
H  H24  1  0.37021376  0.66755575  0.33250170  1  0.617705  0  0.310516  0.345307  0  0.971697  0
H  H25  1  0.64342515  0.33617758  0.66817165  1  0.611028  0  0.310177  0.340964  0  0.978806  0
H  H26  1  0.68179073  0.36740492  0.33017755  1  0.63353  0  0.310874  0.347768  0  0.972768  0
H  H27  1  0.33717980  0.64147515  0.66592082  1  0.628523  0  0.309961  0.343493  0  0.979588  0
H  H28  1  0.35350610  0.84276813  0.64848219  1  0.63119  0  0.309159  0.340816  0  0.983851  0
H  H29  1  0.65148531  0.15642658  0.35418360  1  0.635998  0  0.309057  0.341053  0  0.982635  0
H  H30  1  0.64435729  0.85407245  0.66530631  1  0.628676  0  0.312484  0.345109  0  0.971382  0
H  H31  1  0.36065586  0.14445808  0.33756216  1  0.630124  0  0.310374  0.343503  0  0.97632  0
H  H32  1  0.09568683  0.38488302  0.19430121  1  0.633208  0  0.31096  0.348353  0  0.973958  0
H  H33  1  0.10305792  0.68832476  0.88988850  1  0.640704  0  0.312571  0.349425  0  0.964848  0
H  H34  1  0.84486213  0.40043187  0.78665604  1  0.618536  0  0.33335  0.371193  0  0.885394  0
H  H35  1  0.81030250  0.24594175  0.02177353  1  0.639499  0  0.314936  0.362799  0  0.947754  0
C  C36  1  0.99701553  0.70331918  0.48675890  1  1.438068  0  0.233836  0.666182  0  4.046343  0
C  C37  1  0.31113897  0.99948365  0.19514212  1  1.425293  0  0.23416  0.666701  0  4.043754  0
C  C38  1  0.99941621  0.31477621  0.48740187  1  1.424352  0  0.234465  0.669453  0  4.042485  0
C  C39  1  0.70434592  0.99464156  0.81403585  1  1.416281  0  0.23355  0.665558  0  4.043946  0
C  C40  1  0.00414746  0.69241989  0.80396268  1  1.442694  0  0.236235  0.664955  0  4.039406  0
C  C41  1  0.69392480  0.00019994  0.50489495  1  1.415486  0  0.232538  0.664043  0  4.044895  0
C  C42  1  0.99384495  0.30538586  0.19673123  1  1.422492  0  0.235427  0.662651  0  4.033654  0
C  C43  1  0.31428047  0.99555109  0.49445072  1  1.419862  0  0.233956  0.667024  0  4.042709  0
C  C44  1  0.31321756  0.69561897  0.49830195  1  1.398337  0  0.233888  0.666809  0  4.045962  0
C  C45  1  0.00204535  0.98935840  0.81313028  1  1.43905  0  0.23572  0.669228  0  4.049378  0
C  C46  1  0.70147896  0.30938254  0.50093310  1  1.429158  0  0.232316  0.665532  0  4.048711  0
C  C47  1  0.99716394  0.98544053  0.20478206  1  1.443684  0  0.236202  0.666469  0  4.048055  0
C  C48  1  0.99486817  0.42016998  0.47715975  1  -0.005525  0  -0.047927  -0.300035  0  4.017658  0
C  C49  1  0.99315442  0.61283879  0.47554381  1  0.033633  0  -0.046651  -0.298422  0  4.006222  0
C  C50  1  0.09130940  0.45173038  0.41407116  1  0.63435  0  0.076896  0.203542  0  4.044359  0
C  C51  1  0.89430478  0.58629920  0.53083195  1  0.578396  0  0.077283  0.210898  0  4.058748  0
C  C52  1  0.09072275  0.54689884  0.41410968  1  0.58168  0  0.076928  0.203193  0  4.046785  0
C  C53  1  0.89589515  0.48941145  0.53352504  1  0.621011  0  0.074218  0.199412  0  4.045232  0
C  C54  1  0.41118786  0.99809132  0.09895114  1  0.006062  0  -0.049222  -0.305283  0  4.019254  0
C  C55  1  0.60639021  0.99446200  0.91264024  1  -0.001773  0  -0.048878  -0.304725  0  4.020365  0
C  C56  1  0.45278474  0.08770476  0.04454066  1  0.58102  0  0.075753  0.201268  0  4.054288  0
C  C57  1  0.56561840  0.90423902  0.96776952  1  0.598303  0  0.076031  0.20152  0  4.055494  0
C  C58  1  0.54933613  0.08586180  0.95225062  1  0.608473  0  0.075043  0.199768  0  4.054616  0
C  C59  1  0.46804575  0.90689044  0.05904707  1  0.63612  0  0.076871  0.201473  0  4.050174  0
C  C60  1  0.99706976  0.98054877  0.91795495  1  0.007574  0  -0.046221  -0.298752  0  4.010106  0
C  C61  1  0.99451666  0.97829376  0.11126346  1  0.055548  0  -0.045476  -0.292124  0  4.022821  0
C  C62  1  0.90148648  0.04679843  0.98061314  1  0.599984  0  0.072645  0.197201  0  4.081317  0
C  C63  1  0.08702739  0.90667691  0.05325418  1  0.600329  0  0.083176  0.208292  0  4.038933  0
C  C64  1  0.90159889  0.04638276  0.07477374  1  0.53342  0  0.064548  0.173939  0  4.052575  0
C  C65  1  0.08873661  0.90879537  0.95623113  1  0.593273  0  0.085991  0.213754  0  4.039148  0
C  C66  1  0.41221923  0.59819190  0.49861989  1  0.020524  0  -0.048451  -0.304147  0  4.019956  0
C  C67  1  0.60437030  0.40874858  0.49939005  1  -0.030369  0  -0.047849  -0.303748  0  4.023274  0
C  C68  1  0.47062475  0.55837440  0.40746247  1  0.594974  0  0.077483  0.201961  0  4.055669  0
C  C69  1  0.54572764  0.44817583  0.59082006  1  0.650373  0  0.076836  0.202317  0  4.051689  0
C  C70  1  0.56667938  0.46527951  0.40712206  1  0.580404  0  0.07563  0.201714  0  4.054927  0
C  C71  1  0.45068595  0.54226083  0.59037328  1  0.61683  0  0.076288  0.202308  0  4.050243  0
C  C72  1  0.01078831  0.58685681  0.89598962  1  0.025277  0  -0.035103  -0.232807  0  3.963265  0
C  C73  1  0.97031832  0.50797310  0.91079972  1  0.027618  0  -0.015084  0.071467  0  4.019831  0
C  C74  1  0.05317051  0.56617562  0.97292159  1  0.575813  0  0.093682  0.218789  0  4.030672  0
C  C75  1  0.94797490  0.51550797  0.82475634  1  0.061341  0  -0.12049  -0.260973  0  3.997747  0
C  C76  1  0.90566457  0.44302078  0.83967245  1  0.483962  0  0.072949  0.227685  0  4.108261  0
C  C77  1  0.99863070  0.39898954  0.09268876  1  0.021481  0  -0.036401  -0.238542  0  3.942234  0
C  C78  1  0.04968348  0.47035029  0.07006346  1  0.586339  0  0.096076  0.222912  0  4.01665  0
C  C79  1  0.95701252  0.41717490  0.01271654  1  0.000865  0  -0.014229  0.078676  0  3.995089  0
C  C80  1  0.90899542  0.34653512  0.02701546  1  -0.003207  0  -0.129804  -0.289195  0  4.011114  0
C  C81  1  0.88044794  0.36099505  0.94396464  1  0.497703  0  0.070131  0.215477  0  4.136366  0
C  C82  1  0.41120251  0.99623428  0.49655565  1  0.043816  0  -0.04814  -0.305121  0  4.0187  0
C  C83  1  0.59567189  0.00114003  0.50418913  1  -0.018554  0  -0.048945  -0.306361  0  4.020429  0
C  C84  1  0.45532926  0.91575246  0.58359807  1  0.592679  0  0.076303  0.201063  0  4.049473  0
C  C85  1  0.55038860  0.08272147  0.41812838  1  0.621116  0  0.075155  0.200701  0  4.045314  0
C  C86  1  0.54589781  0.91893787  0.58810532  1  0.61923  0  0.077645  0.204261  0  4.048305  0
C  C87  1  0.45992494  0.07948884  0.41362443  1  0.585479  0  0.075912  0.201103  0  4.056853  0
O  O88  1  0.91934228  0.74568250  0.56249834  1  -1.196095  0  -0.347517  -0.627931  0  2.28693  0
O  O89  1  0.26426366  0.07933896  0.23475100  1  -1.194431  0  -0.359199  -0.637472  0  2.314818  0
O  O90  1  0.08209427  0.26395837  0.41933410  1  -1.197267  0  -0.363198  -0.640383  0  2.326002  0
O  O91  1  0.74860444  0.91705848  0.77255479  1  -1.18943  0  -0.352038  -0.628039  0  2.31127  0
O  O92  1  0.07429630  0.74042003  0.76992680  1  -1.185539  0  -0.361309  -0.652972  0  2.291138  0
O  O93  1  0.73765904  0.07607594  0.42826521  1  -1.19297  0  -0.360444  -0.638786  0  2.323112  0
O  O94  1  0.92142887  0.25882609  0.24024906  1  -1.1758  0  -0.363346  -0.613759  0  2.316839  0
O  O95  1  0.27092561  0.91956589  0.57095926  1  -1.196353  0  -0.35839  -0.63372  0  2.323589  0
O  O96  1  0.27236930  0.73982490  0.42031033  1  -1.186604  0  -0.355488  -0.635659  0  2.309508  0
O  O97  1  0.92650691  0.06721701  0.77043764  1  -1.190094  0  -0.35117  -0.630904  0  2.294326  0
O  O98  1  0.74060767  0.26344746  0.58072496  1  -1.189513  0  -0.3594  -0.639189  0  2.321521  0
O  O99  1  0.07959805  0.91746722  0.24034319  1  -1.187834  0  -0.354248  -0.628788  0  2.330334  0
O  O100  1  0.08383270  0.91972050  0.76410803  1  -1.190891  0  -0.35746  -0.635784  0  2.325059  0
O  O101  1  0.74622337  0.26757464  0.42367437  1  -1.19261  0  -0.353721  -0.629497  0  2.325052  0
O  O102  1  0.91886365  0.06047063  0.24814094  1  -1.194549  0  -0.346391  -0.625973  0  2.304274  0
O  O103  1  0.26665175  0.73612280  0.57720205  1  -1.191851  0  -0.359319  -0.634682  0  2.326046  0
O  O104  1  0.92914352  0.73622325  0.76083565  1  -1.169645  0  -0.360234  -0.614809  0  2.30932  0
O  O105  1  0.27196175  0.07148779  0.41781399  1  -1.194701  0  -0.353541  -0.632035  0  2.303683  0
O  O106  1  0.06523460  0.27053095  0.24364702  1  -1.189098  0  -0.361648  -0.65448  0  2.305099  0
O  O107  1  0.73624173  0.92409358  0.58155827  1  -1.193935  0  -0.353069  -0.634624  0  2.307596  0
O  O108  1  0.74431729  0.07398955  0.76835370  1  -1.192222  0  -0.358927  -0.637135  0  2.319934  0
O  O109  1  0.08136726  0.73726542  0.42145377  1  -1.195159  0  -0.364651  -0.641764  0  2.3324  0
O  O110  1  0.26984088  0.92160391  0.23933834  1  -1.189427  0  -0.355418  -0.633538  0  2.312941  0
O  O111  1  0.92318035  0.27272141  0.56451930  1  -1.197536  0  -0.353554  -0.635823  0  2.284141  0
O  O112  1  0.80314353  0.06557809  0.57061998  1  -1.235604  0  -0.696102  -1.063265  0  2.358015  0
O  O113  1  0.07104888  0.06774506  0.56716096  1  -1.232538  0  -0.693989  -1.067027  0  2.334315  0
O  O114  1  0.06852605  0.06596031  0.29947220  1  -1.243202  0  -0.696844  -1.068154  0  2.354655  0
O  O115  1  0.07094232  0.79722749  0.56732599  1  -1.224784  0  -0.697146  -1.069248  0  2.355306  0
O  O116  1  0.15153597  0.95082685  0.45078665  1  -1.19119  0  -0.796993  -1.143658  0  2.148575  0
O  O117  1  0.95423427  0.94905474  0.45277126  1  -1.195628  0  -0.793791  -1.142187  0  2.137548  0
O  O118  1  0.95407816  0.14638670  0.45225164  1  -1.190519  0  -0.796556  -1.138349  0  2.157125  0
O  O119  1  0.95561732  0.94989536  0.64802632  1  -1.18629  0  -0.794327  -1.141208  0  2.150157  0
O  O120  1  0.18789653  0.39259987  0.35629171  1  -1.117442  0  -0.340821  -0.389659  0  2.291482  0
O  O121  1  0.79706642  0.64912263  0.58378788  1  -1.117366  0  -0.34256  -0.397754  0  2.31627  0
O  O122  1  0.18699430  0.56757258  0.35719002  1  -1.108107  0  -0.342537  -0.392425  0  2.286606  0
O  O123  1  0.80082546  0.46559492  0.59327569  1  -1.126458  0  -0.345251  -0.400291  0  2.291815  0
O  O124  1  0.40341654  0.17798185  0.07526340  1  -1.106057  0  -0.340896  -0.389325  0  2.278831  0
O  O125  1  0.61564935  0.81337663  0.93790702  1  -1.116286  0  -0.339207  -0.389023  0  2.274517  0
O  O126  1  0.58181835  0.17469553  0.90443050  1  -1.111704  0  -0.340491  -0.386229  0  2.304564  0
O  O127  1  0.43369127  0.81976925  0.10471840  1  -1.115548  0  -0.338432  -0.385166  0  2.302625  0
O  O128  1  0.80874541  0.11186277  0.95349958  1  -1.120296  0  -0.343521  -0.397397  0  2.310406  0
O  O129  1  0.17757734  0.83734670  0.08267616  1  -1.097502  0  -0.333118  -0.379946  0  2.283829  0
O  O130  1  0.80961762  0.11649542  0.12733461  1  -1.135364  0  -0.336565  -0.407067  0  2.342498  0
O  O131  1  0.18175384  0.84279793  0.90349702  1  -1.105992  0  -0.330268  -0.375911  0  2.295565  0
O  O132  1  0.43971953  0.60611236  0.31798413  1  -1.097449  0  -0.338114  -0.386709  0  2.300439  0
O  O133  1  0.57479576  0.39863976  0.68181181  1  -1.097024  0  -0.340299  -0.386894  0  2.301373  0
O  O134  1  0.61872893  0.43540620  0.31621164  1  -1.117984  0  -0.341629  -0.391966  0  2.276866  0
O  O135  1  0.39943344  0.57289481  0.68073267  1  -1.104172  0  -0.341871  -0.389717  0  2.278952  0
O  O136  1  0.41457718  0.83430387  0.66504343  1  -1.122476  0  -0.338938  -0.386063  0  2.289045  0
O  O137  1  0.58971632  0.16574522  0.33813621  1  -1.118525  0  -0.341767  -0.389434  0  2.289492  0
O  O138  1  0.58019502  0.84180796  0.67474869  1  -1.102374  0  -0.336865  -0.383252  0  2.288003  0
O  O139  1  0.42392800  0.15807860  0.32836734  1  -1.113593  0  -0.339513  -0.38659  0  2.288513  0
O  O140  1  0.09453913  0.45847725  0.13631000  1  -1.116825  0  -0.333656  -0.386669  0  2.292664  0
O  O141  1  0.09614820  0.63239397  0.96468984  1  -1.117694  0  -0.334099  -0.387603  0  2.296191  0
O  O142  1  0.88690158  0.44945650  0.75575057  1  -1.11953  0  -0.341052  -0.425046  0  2.350701  0
O  O143  1  0.83102762  0.30194122  0.94859338  1  -1.159254  0  -0.35462  -0.457579  0  2.374205  0
