# generated using pymatgen
data_Cd3H46C58(N2O7)2
_symmetry_space_group_name_H-M   'P 1'
_cell_length_a   9.98968728
_cell_length_b   11.92489622
_cell_length_c   13.12398243
_cell_angle_alpha   68.69461117
_cell_angle_beta   74.55031036
_cell_angle_gamma   70.09488085
_symmetry_Int_Tables_number   1
_chemical_formula_structural   Cd3H46C58(N2O7)2
_chemical_formula_sum   'Cd3 H46 C58 N4 O14'
_cell_volume   1351.25072029
_cell_formula_units_Z   1
loop_
 _symmetry_equiv_pos_site_id
 _symmetry_equiv_pos_as_xyz
  1  'x, y, z'
loop_
 _atom_site_type_symbol
 _atom_site_label
 _atom_site_symmetry_multiplicity
 _atom_site_fract_x
 _atom_site_fract_y
 _atom_site_fract_z
 _atom_site_occupancy
 _atom_site_pbe_bader_spin_density
 _atom_site_pbe_cm5_charge
 _atom_site_pbe_ddec_charge
 _atom_site_pbe_ddec_spin_density
 _atom_site_pbe_ddec_sum_bond_order
 _atom_site_pbe_magmom
Cd  Cd0  1  0.14649252  0.72305272  0.93124362  1  0  0.766454  0.847325  0  2.21102  0
Cd  Cd1  1  0.85350912  0.27694641  0.06875579  1  0  0.766463  0.847343  0  2.210951  0
Cd  Cd2  1  0.99999913  0.99999704  0.00000165  1  0  0.807181  1.125498  0  2.239808  0
H  H3  1  0.65013599  0.74518620  0.93920316  1  0  0.102934  0.105972  0  1.046149  0
H  H4  1  0.34986408  0.25481480  0.06079061  1  0  0.102949  0.105988  0  1.046222  0
H  H5  1  0.68868935  0.90541266  0.17175841  1  0  0.11061  0.12923  0  0.990318  0
H  H6  1  0.31131081  0.09458459  0.82824114  1  0  0.110647  0.129279  0  0.990346  0
H  H7  1  0.26852274  0.90418866  0.14043267  1  0  0.102706  0.120769  0  1.072033  0
H  H8  1  0.73147774  0.09581420  0.85956346  1  0  0.102733  0.120819  0  1.072022  0
H  H9  1  0.22037071  0.06708702  0.19488342  1  0  0.105814  0.080752  0  1.026507  0
H  H10  1  0.77962633  0.93291677  0.80511612  1  0  0.105847  0.080813  0  1.026439  0
H  H11  1  0.25992419  0.10262201  0.30122075  1  0  0.108731  0.086477  0  0.964459  0
H  H12  1  0.74007848  0.89737711  0.69877922  1  0  0.108729  0.086512  0  0.964427  0
H  H13  1  0.35611542  0.85647331  0.46037790  1  0  0.09869  0.099057  0  1.012464  0
H  H14  1  0.64388654  0.14352488  0.53961946  1  0  0.098694  0.099075  0  1.012449  0
H  H15  1  0.22144358  0.72053265  0.61482506  1  0  0.094832  0.093678  0  1.032521  0
H  H16  1  0.77856266  0.27946180  0.38517421  1  0  0.094853  0.093724  0  1.03249  0
H  H17  1  0.97435463  0.72671144  0.60283071  1  0  0.09361  0.086504  0  1.02415  0
H  H18  1  0.02564773  0.27328862  0.39716977  1  0  0.093613  0.086496  0  1.024157  0
H  H19  1  0.86474094  0.86750026  0.43444206  1  0  0.09709  0.094276  0  1.008565  0
H  H20  1  0.13525830  0.13249979  0.56555980  1  0  0.097096  0.094272  0  1.008622  0
H  H21  1  0.44308159  0.54744909  0.83580805  1  0  0.117988  0.096688  0  1.010045  0
H  H22  1  0.55691945  0.45255190  0.16419162  1  0  0.117995  0.096693  0  1.010072  0
H  H23  1  0.01271677  0.57708695  0.85496626  1  0  0.117643  0.095651  0  1.021186  0
H  H24  1  0.98728351  0.42291310  0.14503616  1  0  0.117663  0.095715  0  1.021174  0
H  H25  1  0.07315667  0.44376038  0.73083206  1  0  0.104865  0.112083  0  1.025614  0
H  H26  1  0.92684171  0.55624247  0.26916753  1  0  0.104873  0.112105  0  1.025622  0
H  H27  1  0.52251406  0.41172927  0.71099995  1  0  0.103215  0.110271  0  1.025245  0
H  H28  1  0.47748524  0.58827734  0.28899518  1  0  0.103213  0.110277  0  1.025167  0
H  H29  1  0.28768308  0.27232710  0.65899723  1  0  0.100669  0.108533  0  0.973267  0
H  H30  1  0.71231693  0.72767389  0.34100189  1  0  0.100661  0.108518  0  0.973276  0
H  H31  1  0.45822793  0.30387641  0.61248731  1  0  0.09429  0.096571  0  1.000696  0
H  H32  1  0.54176998  0.69612458  0.38751451  1  0  0.094291  0.096575  0  1.000653  0
H  H33  1  0.17595620  0.48185222  0.53139489  1  0  0.089857  0.081393  0  0.996146  0
H  H34  1  0.82404485  0.51814877  0.46860402  1  0  0.089848  0.081403  0  0.996132  0
H  H35  1  0.34683044  0.50982719  0.48066225  1  0  0.089539  0.083563  0  0.992412  0
H  H36  1  0.65317090  0.49017286  0.51933691  1  0  0.089538  0.083576  0  0.992396  0
H  H37  1  0.43487225  0.31861472  0.41414536  1  0  0.101727  0.107603  0  0.965376  0
H  H38  1  0.56512673  0.68138627  0.58585320  1  0  0.101726  0.107606  0  0.96536  0
H  H39  1  0.26526878  0.28919255  0.46750800  1  0  0.099368  0.101208  0  0.980671  0
H  H40  1  0.73473150  0.71080750  0.53249366  1  0  0.099367  0.101213  0  0.980675  0
H  H41  1  0.35489999  0.29586291  0.24525876  1  0  0.111513  0.126361  0  0.993389  0
H  H42  1  0.64510046  0.70413995  0.75474042  1  0  0.111515  0.126334  0  0.993347  0
H  H43  1  0.17321698  0.62134756  0.36253353  1  0  0.105493  0.114022  0  1.030821  0
H  H44  1  0.82678150  0.37865155  0.63747108  1  0  0.105491  0.11402  0  1.030787  0
H  H45  1  0.10279059  0.74221273  0.17887684  1  0  0.115368  0.100592  0  1.031618  0
H  H46  1  0.89720684  0.25778638  0.82112874  1  0  0.1154  0.100609  0  1.031641  0
H  H47  1  0.27542424  0.43175174  0.06571254  1  0  0.115133  0.082448  0  1.030935  0
H  H48  1  0.72457238  0.56825018  0.93428541  1  0  0.115118  0.082422  0  1.030971  0
C  C49  1  0.36164202  0.79366556  0.97684694  1  0  0.200791  0.587516  0  4.177374  0
C  C50  1  0.63835831  0.20633450  0.02315013  1  0  0.200775  0.587517  0  4.177231  0
C  C51  1  0.45097021  0.82213695  0.03455433  1  0  -0.020144  -0.007242  0  3.989206  0
C  C52  1  0.54903012  0.17786310  0.96544351  1  0  -0.020131  -0.007242  0  3.989247  0
C  C53  1  0.60033933  0.78960124  0.00412762  1  0  -0.092866  -0.140432  0  3.974228  0
C  C54  1  0.39966100  0.21039882  0.99586946  1  0  -0.092858  -0.140411  0  3.974345  0
C  C55  1  0.68594837  0.81845422  0.05435081  1  0  -0.024896  -0.028091  0  4.028091  0
C  C56  1  0.31405093  0.18154584  0.94564647  1  0  -0.024908  -0.028094  0  4.028084  0
C  C57  1  0.84552115  0.78651316  0.01910733  1  0  0.198768  0.573567  0  4.209757  0
C  C58  1  0.15448108  0.21348409  0.98089258  1  0  0.198823  0.573638  0  4.209455  0
C  C59  1  0.62202801  0.87942963  0.13527114  1  0  -0.087195  -0.189204  0  3.930245  0
C  C60  1  0.37796950  0.12056948  0.86472679  1  0  -0.087238  -0.189357  0  3.930461  0
C  C61  1  0.47197117  0.90997520  0.16759556  1  0  0.082049  0.254688  0  4.058136  0
C  C62  1  0.52802647  0.09002672  0.83240296  1  0  0.082042  0.254716  0  4.058188  0
C  C63  1  0.38558858  0.88104629  0.11763935  1  0  -0.098408  -0.22131  0  3.920079  0
C  C64  1  0.61441291  0.11895002  0.88236025  1  0  -0.098462  -0.221398  0  3.920164  0
C  C65  1  0.26786820  0.02512991  0.27122754  1  0  -0.058863  -0.012523  0  3.894336  0
C  C66  1  0.73213374  0.97486828  0.72877135  1  0  -0.058924  -0.012655  0  3.894321  0
C  C67  1  0.18852503  0.93651649  0.35984480  1  0  -0.016796  0.043918  0  3.949368  0
C  C68  1  0.81147735  0.06348357  0.64015416  1  0  -0.016753  0.043964  0  3.949356  0
C  C69  1  0.24897207  0.85678529  0.45458404  1  0  -0.097411  -0.139611  0  4.004172  0
C  C70  1  0.75103196  0.14321290  0.54541368  1  0  -0.09743  -0.139663  0  4.004271  0
C  C71  1  0.17386029  0.78027869  0.54097717  1  0  -0.096542  -0.078666  0  4.037617  0
C  C72  1  0.82614164  0.21971949  0.45902325  1  0  -0.096567  -0.078704  0  4.037692  0
C  C73  1  0.03481707  0.78444572  0.53433636  1  0  -0.098159  -0.091407  0  4.040972  0
C  C74  1  0.96518426  0.21555434  0.46566433  1  0  -0.098141  -0.091367  0  4.040921  0
C  C75  1  0.97323898  0.86348433  0.44061708  1  0  -0.093825  -0.113793  0  4.005858  0
C  C76  1  0.02676265  0.13651479  0.55938309  1  0  -0.093854  -0.113821  0  4.005812  0
C  C77  1  0.04967860  0.93869675  0.35271906  1  0  -0.010108  -0.05033  0  3.914882  0
C  C78  1  0.95032094  0.06130237  0.64728305  1  0  -0.010152  -0.050339  0  3.914815  0
C  C79  1  0.98681092  0.01458420  0.24733592  1  0  0.211285  0.596206  0  4.212296  0
C  C80  1  0.01319219  0.98541679  0.75266411  1  0  0.211347  0.596244  0  4.212377  0
C  C81  1  0.36530473  0.52237575  0.80932997  1  0  0.050084  0.097671  0  3.938945  0
C  C82  1  0.63469586  0.47762337  0.19067117  1  0  0.049994  0.097548  0  3.939016  0
C  C83  1  0.12403035  0.53878131  0.82022171  1  0  0.047683  0.100722  0  3.936759  0
C  C84  1  0.87597081  0.46121594  0.17978145  1  0  0.047612  0.100518  0  3.936697  0
C  C85  1  0.15892089  0.46538952  0.75075009  1  0  -0.084496  -0.177337  0  3.926399  0
C  C86  1  0.84107806  0.53461147  0.24925153  1  0  -0.084464  -0.177298  0  3.926347  0
C  C87  1  0.40796710  0.44818212  0.73920191  1  0  -0.085522  -0.186331  0  3.941744  0
C  C88  1  0.59203336  0.55182075  0.26079574  1  0  -0.085438  -0.186258  0  3.941681  0
C  C89  1  0.30366624  0.41964229  0.70716837  1  0  0.016363  0.170677  0  3.94518  0
C  C90  1  0.69633451  0.58035963  0.29283030  1  0  0.016317  0.170645  0  3.945231  0
C  C91  1  0.34140116  0.34812335  0.62536624  1  0  -0.156717  -0.206654  0  3.947988  0
C  C92  1  0.65859883  0.65187764  0.37463441  1  0  -0.156712  -0.206655  0  3.947928  0
C  C93  1  0.29183534  0.43480073  0.51506902  1  0  -0.162282  -0.135839  0  3.952755  0
C  C94  1  0.70816495  0.56519932  0.48493187  1  0  -0.16228  -0.135871  0  3.952685  0
C  C95  1  0.31875820  0.36541961  0.43118032  1  0  -0.153078  -0.197072  0  3.956442  0
C  C96  1  0.68124106  0.63458044  0.56882078  1  0  -0.153085  -0.197103  0  3.956465  0
C  C97  1  0.26876829  0.44554050  0.32208388  1  0  0.009451  0.153751  0  3.960704  0
C  C98  1  0.73123037  0.55446142  0.67791672  1  0  0.009442  0.153794  0  3.960779  0
C  C99  1  0.29587033  0.39371246  0.23584278  1  0  -0.086637  -0.192981  0  3.943907  0
C  C100  1  0.70412626  0.60628946  0.76415747  1  0  -0.086579  -0.192861  0  3.943716  0
C  C101  1  0.19740475  0.57334929  0.30050501  1  0  -0.093512  -0.203284  0  3.950148  0
C  C102  1  0.80259256  0.42665357  0.69949708  1  0  -0.093523  -0.203341  0  3.950142  0
C  C103  1  0.15761540  0.64268634  0.19685613  1  0  0.043284  0.10145  0  3.940258  0
C  C104  1  0.84237686  0.35731275  0.80314894  1  0  0.043253  0.101419  0  3.9404  0
C  C105  1  0.25315231  0.46936649  0.13454755  1  0  0.049026  0.103482  0  3.961059  0
C  C106  1  0.74684322  0.53063543  0.86545520  1  0  0.048975  0.10342  0  3.960979  0
N  N107  1  0.22550386  0.56846065  0.84784305  1  0  -0.334264  -0.239289  0  3.521973  0
N  N108  1  0.77449655  0.43153566  0.15216133  1  0  -0.3342  -0.239127  0  3.521927  0
N  N109  1  0.18471635  0.59176728  0.11482032  1  0  -0.329994  -0.24904  0  3.493964  0
N  N110  1  0.81528054  0.40823370  0.88518018  1  0  -0.329952  -0.248999  0  3.494054  0
O  O111  1  0.22594154  0.85379576  0.98220052  1  0  -0.348141  -0.608818  0  2.407304  0
O  O112  1  0.77405997  0.14620711  0.01779617  1  0  -0.348161  -0.608816  0  2.407147  0
O  O113  1  0.41710584  0.71114768  0.92797077  1  0  -0.326197  -0.55342  0  2.128753  0
O  O114  1  0.58289240  0.28885237  0.07202748  1  0  -0.326175  -0.553424  0  2.128706  0
O  O115  1  0.90217236  0.72212882  0.95190738  1  0  -0.324458  -0.54562  0  2.212427  0
O  O116  1  0.09782962  0.27787593  0.04808631  1  0  -0.324491  -0.545607  0  2.21227  0
O  O117  1  0.92056594  0.82447261  0.05870937  1  0  -0.34395  -0.60962  0  2.365569  0
O  O118  1  0.07943612  0.17552184  0.94129301  1  0  -0.343955  -0.609653  0  2.365459  0
O  O119  1  0.42094695  0.97094239  0.24680248  1  0  -0.190676  -0.218259  0  2.521395  0
O  O120  1  0.57905413  0.02905860  0.75319338  1  0  -0.190656  -0.218226  0  2.521352  0
O  O121  1  0.02935187  0.95648531  0.17456191  1  0  -0.324913  -0.575499  0  2.323204  0
O  O122  1  0.97064767  0.04351381  0.82543943  1  0  -0.324932  -0.575522  0  2.323282  0
O  O123  1  0.90342191  0.12299952  0.23885471  1  0  -0.320453  -0.535736  0  2.226422  0
O  O124  1  0.09658477  0.87700336  0.76114248  1  0  -0.320482  -0.535766  0  2.226411  0
