# generated using pymatgen
data_LaH13C19S(NO4)2
_symmetry_space_group_name_H-M   'P 1'
_cell_length_a   8.52187353
_cell_length_b   10.75654259
_cell_length_c   11.20330328
_cell_angle_alpha   79.95518835
_cell_angle_beta   71.83829071
_cell_angle_gamma   88.84154292
_symmetry_Int_Tables_number   1
_chemical_formula_structural   LaH13C19S(NO4)2
_chemical_formula_sum   'La2 H26 C38 S2 N4 O16'
_cell_volume   960.20063587
_cell_formula_units_Z   2
loop_
 _symmetry_equiv_pos_site_id
 _symmetry_equiv_pos_as_xyz
  1  'x, y, z'
loop_
 _atom_site_type_symbol
 _atom_site_label
 _atom_site_symmetry_multiplicity
 _atom_site_fract_x
 _atom_site_fract_y
 _atom_site_fract_z
 _atom_site_occupancy
 _atom_site_hle17_bader_spin_density
 _atom_site_hle17_ddec_charge
 _atom_site_hle17_ddec_spin_density
 _atom_site_hle17_ddec_sum_bond_order
 _atom_site_hle17_magmom
 _atom_site_hse06_10hf_bader_spin_density
 _atom_site_hse06_10hf_ddec_charge
 _atom_site_hse06_10hf_ddec_spin_density
 _atom_site_hse06_10hf_ddec_sum_bond_order
 _atom_site_hse06_10hf_magmom
 _atom_site_hse06_bader_spin_density
 _atom_site_hse06_ddec_charge
 _atom_site_hse06_ddec_spin_density
 _atom_site_hse06_ddec_sum_bond_order
 _atom_site_hse06_magmom
 _atom_site_pbe_bader_spin_density
 _atom_site_pbe_cm5_charge
 _atom_site_pbe_ddec_charge
 _atom_site_pbe_ddec_spin_density
 _atom_site_pbe_ddec_sum_bond_order
 _atom_site_pbe_magmom
La  La0  1  0.16483861  0.58040277  0.19964460  1  0  2.016729  0  1.846424  0  0  1.879225  0  2.365744  0  0  1.974742  0  2.276965  0  0  1.398981  1.807574  0  2.427624  0
La  La1  1  0.83515429  0.41959800  0.80035628  1  0  2.016666  0  1.846459  0  0  1.879297  0  2.365586  0  0  1.974804  0  2.276822  0  0  1.398968  1.807643  0  2.427464  0
H  H2  1  0.46532834  0.43092662  0.28773228  1  0  0.436877  0  0.799553  0  0  0.424719  0  0.844152  0  0  0.432523  0  0.83652  0  0  0.338063  0.41902  0  0.849844  0
H  H3  1  0.53467211  0.56907509  0.71226920  1  0  0.436902  0  0.79948  0  0  0.424746  0  0.844076  0  0  0.43255  0  0.836445  0  0  0.338064  0.419046  0  0.849771  0
H  H4  1  0.30935137  0.43023392  0.40617352  1  0  0.421959  0  0.843406  0  0  0.394834  0  0.920223  0  0  0.40328  0  0.909759  0  0  0.316901  0.388817  0  0.926659  0
H  H5  1  0.69065157  0.56976778  0.59382822  1  0  0.421972  0  0.843395  0  0  0.394854  0  0.920196  0  0  0.403298  0  0.909733  0  0  0.316928  0.388836  0  0.926633  0
H  H6  1  0.39206412  0.84829433  0.98471931  1  0  0.07957  0  0.952119  0  0  0.086387  0  1.019594  0  0  0.08965  0  1.015873  0  0  0.119211  0.083988  0  1.022223  0
H  H7  1  0.60793617  0.15171022  0.01527281  1  0  0.079507  0  0.952126  0  0  0.086355  0  1.019577  0  0  0.089614  0  1.015859  0  0  0.119202  0.083956  0  1.022207  0
H  H8  1  0.40260706  0.08586005  0.92719381  1  0  0.104078  0  0.946808  0  0  0.116194  0  1.002918  0  0  0.119144  0  1.002552  0  0  0.109217  0.114115  0  1.003281  0
H  H9  1  0.59739109  0.91414639  0.07280568  1  0  0.104119  0  0.946805  0  0  0.11623  0  1.002914  0  0  0.119181  0  1.002549  0  0  0.109237  0.114152  0  1.003276  0
H  H10  1  0.16589075  0.20532061  0.04347010  1  0  0.119685  0  0.915545  0  0  0.131832  0  0.970349  0  0  0.13505  0  0.967773  0  0  0.119472  0.129413  0  0.972308  0
H  H11  1  0.83410987  0.79467921  0.95653969  1  0  0.119642  0  0.915537  0  0  0.131795  0  0.970337  0  0  0.13501  0  0.96777  0  0  0.119484  0.129379  0  0.972297  0
H  H12  1  0.88203899  0.19948686  0.20271971  1  0  0.125808  0  0.94187  0  0  0.133001  0  1.005387  0  0  0.137098  0  1.002255  0  0  0.111715  0.129715  0  1.008171  0
H  H13  1  0.11796011  0.80051013  0.79728647  1  0  0.125942  0  0.941929  0  0  0.133124  0  1.005471  0  0  0.137221  0  1.002338  0  0  0.111796  0.129838  0  1.008256  0
H  H14  1  0.63744124  0.07513685  0.35228831  1  0  0.094017  0  0.95298  0  0  0.106974  0  1.013274  0  0  0.109595  0  1.012683  0  0  0.102755  0.105021  0  1.013887  0
H  H15  1  0.36255881  0.92485636  0.64771558  1  0  0.094015  0  0.952925  0  0  0.106974  0  1.013207  0  0  0.109548  0  1.01267  0  0  0.102752  0.105016  0  1.013825  0
H  H16  1  0.48730903  0.86315024  0.44830510  1  0  0.096963  0  0.958843  0  0  0.107385  0  1.024124  0  0  0.110195  0  1.022181  0  0  0.106233  0.105329  0  1.025517  0
H  H17  1  0.51269260  0.13684863  0.55169923  1  0  0.096995  0  0.958775  0  0  0.107404  0  1.024061  0  0  0.11021  0  1.022127  0  0  0.106245  0.105356  0  1.025443  0
H  H18  1  0.48515353  0.63139411  0.45810424  1  0  0.118838  0  0.974282  0  0  0.125217  0  1.037371  0  0  0.129194  0  1.035062  0  0  0.107529  0.122228  0  1.039375  0
H  H19  1  0.51484780  0.36860098  0.54189723  1  0  0.118831  0  0.974337  0  0  0.125229  0  1.037398  0  0  0.129205  0  1.035091  0  0  0.107533  0.122238  0  1.039404  0
H  H20  1  0.74354833  0.53103331  0.33754506  1  0  0.089226  0  0.95454  0  0  0.092892  0  1.0249  0  0  0.096298  0  1.021443  0  0  0.120944  0.090399  0  1.027375  0
H  H21  1  0.25645415  0.46896273  0.66245238  1  0  0.089249  0  0.954592  0  0  0.092909  0  1.024949  0  0  0.096314  0  1.021493  0  0  0.12095  0.090414  0  1.027425  0
H  H22  1  0.22809333  0.28052248  0.30396375  1  0  0.096017  0  1.003852  0  0  0.102553  0  1.07381  0  0  0.106123  0  1.070767  0  0  0.10959  0.099892  0  1.076073  0
H  H23  1  0.77190692  0.71947829  0.69603347  1  0  0.095971  0  1.003854  0  0  0.102542  0  1.073775  0  0  0.106114  0  1.070729  0  0  0.109586  0.099881  0  1.07604  0
H  H24  1  0.39227327  0.09232208  0.25845001  1  0  0.091067  0  0.941479  0  0  0.105619  0  0.994161  0  0  0.108439  0  0.993514  0  0  0.103443  0.103545  0  0.994883  0
H  H25  1  0.60772842  0.90767869  0.74155309  1  0  0.091075  0  0.941384  0  0  0.105582  0  0.994124  0  0  0.108402  0  0.993477  0  0  0.103413  0.103509  0  0.994847  0
H  H26  1  0.27600301  0.87892911  0.36844384  1  0  0.102047  0  0.976194  0  0  0.111117  0  1.039458  0  0  0.114625  0  1.036851  0  0  0.106903  0.108485  0  1.041503  0
H  H27  1  0.72399605  0.12107260  0.63155352  1  0  0.101981  0  0.976287  0  0  0.111116  0  1.03948  0  0  0.114623  0  1.036875  0  0  0.106908  0.108486  0  1.041512  0
C  C28  1  0.28784218  0.90352940  0.02870281  1  0  0.138168  0  3.719848  0  0  0.108726  0  3.981633  0  0  0.117201  0  3.999019  0  0  0.059085  0.103239  0  3.969758  0
C  C29  1  0.71216325  0.09647325  0.97129724  1  0  0.138299  0  3.719755  0  0  0.108828  0  3.981578  0  0  0.117309  0  3.998957  0  0  0.059167  0.10334  0  3.969704  0
C  C30  1  0.29387309  0.03634217  0.99806134  1  0  -0.126159  0  3.745743  0  0  -0.14178  0  4.005556  0  0  -0.14894  0  4.02703  0  0  -0.085152  -0.137343  0  3.991216  0
C  C31  1  0.70612615  0.96365954  0.00194134  1  0  -0.126159  0  3.745834  0  0  -0.141771  0  4.005651  0  0  -0.148936  0  4.027124  0  0  -0.085141  -0.137334  0  3.991311  0
C  C32  1  0.16201255  0.10228243  0.06065865  1  0  -0.027991  0  3.650399  0  0  -0.053781  0  3.90268  0  0  -0.050267  0  3.918847  0  0  -0.055783  -0.055739  0  3.891667  0
C  C33  1  0.83798800  0.89771833  0.93934743  1  0  -0.02799  0  3.650511  0  0  -0.053813  0  3.902789  0  0  -0.050296  0  3.918957  0  0  -0.05583  -0.055773  0  3.891778  0
C  C34  1  0.02120572  0.03457848  0.14939256  1  0  0.025161  0  3.772789  0  0  0.04154  0  4.003552  0  0  0.038349  0  4.028502  0  0  0.000646  0.043446  0  3.986432  0
C  C35  1  0.97879969  0.96541945  0.85061454  1  0  0.025209  0  3.772746  0  0  0.041595  0  4.003373  0  0  0.038402  0  4.028325  0  0  0.000651  0.043501  0  3.986254  0
C  C36  1  0.87979887  0.09651577  0.21745243  1  0  -0.077065  0  3.698304  0  0  -0.100726  0  3.954763  0  0  -0.102431  0  3.976247  0  0  -0.075204  -0.099444  0  3.940346  0
C  C37  1  0.12020273  0.90348121  0.78255401  1  0  -0.077095  0  3.698253  0  0  -0.100784  0  3.954695  0  0  -0.102486  0  3.976165  0  0  -0.075221  -0.099504  0  3.940278  0
C  C38  1  0.74437514  0.02758281  0.29982660  1  0  -0.106719  0  3.752164  0  0  -0.131195  0  4.009301  0  0  -0.136017  0  4.033444  0  0  -0.087778  -0.12798  0  3.992785  0
C  C39  1  0.25562650  0.97241511  0.70017966  1  0  -0.106745  0  3.752099  0  0  -0.131173  0  4.009255  0  0  -0.13596  0  4.033407  0  0  -0.087735  -0.127958  0  3.992739  0
C  C40  1  0.73812452  0.89261401  0.31771460  1  0  0.02034  0  3.804241  0  0  0.038615  0  4.03336  0  0  0.036226  0  4.059083  0  0  -0.003639  0.040182  0  4.015998  0
C  C41  1  0.26187698  0.10738297  0.68228918  1  0  0.020371  0  3.80423  0  0  0.03856  0  4.033473  0  0  0.036175  0  4.059179  0  0  -0.00374  0.040127  0  4.016112  0
C  C42  1  0.59684588  0.81824341  0.39582005  1  0  -0.048501  0  3.687713  0  0  -0.072742  0  3.931108  0  0  -0.071119  0  3.94988  0  0  -0.066581  -0.073473  0  3.918376  0
C  C43  1  0.40315433  0.18175358  0.60418227  1  0  -0.048586  0  3.687673  0  0  -0.072778  0  3.931082  0  0  -0.071157  0  3.949855  0  0  -0.066571  -0.073516  0  3.918347  0
C  C44  1  0.59599257  0.68869934  0.40287642  1  0  -0.124071  0  3.743256  0  0  -0.135733  0  3.993161  0  0  -0.141488  0  4.012112  0  0  -0.086371  -0.132027  0  3.980599  0
C  C45  1  0.40401501  0.31129669  0.59712419  1  0  -0.124017  0  3.742973  0  0  -0.135682  0  3.992839  0  0  -0.141436  0  4.011791  0  0  -0.086336  -0.131974  0  3.98028  0
C  C46  1  0.73906849  0.63316208  0.33448092  1  0  0.134716  0  3.70199  0  0  0.107437  0  3.959059  0  0  0.11509  0  3.975929  0  0  0.055358  0.102332  0  3.947528  0
C  C47  1  0.26093185  0.36683869  0.66551896  1  0  0.134595  0  3.701768  0  0  0.107318  0  3.95885  0  0  0.114971  0  3.975718  0  0  0.055292  0.102211  0  3.947321  0
C  C48  1  0.87752640  0.82801175  0.25281084  1  0  0.140532  0  3.747686  0  0  0.133755  0  3.991238  0  0  0.138052  0  4.013317  0  0  0.122794  0.130743  0  3.976092  0
C  C49  1  0.12247762  0.17198806  0.74718915  1  0  0.140621  0  3.747629  0  0  0.133771  0  3.991217  0  0  0.138074  0  4.013282  0  0  0.122821  0.130757  0  3.976068  0
C  C50  1  0.02370604  0.90027449  0.17034764  1  0  0.131328  0  3.752644  0  0  0.126644  0  3.995418  0  0  0.131336  0  4.017697  0  0  0.12134  0.123519  0  3.979801  0
C  C51  1  0.97629683  0.09972438  0.82965637  1  0  0.131102  0  3.752836  0  0  0.126629  0  3.995313  0  0  0.13132  0  4.017591  0  0  0.121261  0.123505  0  3.979695  0
C  C52  1  0.53705672  0.56861122  0.99010012  1  0  0.542882  0  3.934348  0  0  0.502751  0  4.234324  0  0  0.533934  0  4.227391  0  0  0.210721  0.481188  0  4.238562  0
C  C53  1  0.46291738  0.43138201  0.00990948  1  0  0.542924  0  3.934763  0  0  0.502888  0  4.234608  0  0  0.534074  0  4.227665  0  0  0.21073  0.481323  0  4.238852  0
C  C54  1  0.94365231  0.45019848  0.05448740  1  0  0.545416  0  3.937837  0  0  0.506546  0  4.236773  0  0  0.537423  0  4.230056  0  0  0.213881  0.485309  0  4.240535  0
C  C55  1  0.05635443  0.54980984  0.94550513  1  0  0.54533  0  3.937971  0  0  0.506465  0  4.23687  0  0  0.53734  0  4.230154  0  0  0.213836  0.485231  0  4.240634  0
C  C56  1  0.02441425  0.17559247  0.44803478  1  0  -0.16281  0  3.700129  0  0  -0.141305  0  3.945787  0  0  -0.149025  0  3.967253  0  0  -0.013109  -0.136523  0  3.931655  0
C  C57  1  0.97558712  0.82440829  0.55195859  1  0  -0.162917  0  3.70025  0  0  -0.141402  0  3.94591  0  0  -0.149128  0  3.967381  0  0  -0.013146  -0.136619  0  3.931775  0
C  C58  1  0.17887957  0.18812125  0.35786729  1  0  -0.059608  0  3.764844  0  0  -0.089217  0  4.019166  0  0  -0.087337  0  4.037899  0  0  -0.083823  -0.090189  0  4.006895  0
C  C59  1  0.82111810  0.81187858  0.64212896  1  0  -0.059542  0  3.764801  0  0  -0.089185  0  4.019108  0  0  -0.087303  0  4.037841  0  0  -0.083808  -0.090156  0  4.006839  0
C  C60  1  0.27097252  0.08056999  0.33092612  1  0  -0.060929  0  3.771011  0  0  -0.07274  0  4.027063  0  0  -0.075975  0  4.04754  0  0  -0.090468  -0.070923  0  4.013552  0
C  C61  1  0.72902902  0.91943077  0.66907256  1  0  -0.060897  0  3.770888  0  0  -0.072672  0  4.026976  0  0  -0.075903  0  4.04745  0  0  -0.090433  -0.070857  0  4.013466  0
C  C62  1  0.20649290  0.96182489  0.39238326  1  0  -0.099831  0  3.722203  0  0  -0.129129  0  3.983149  0  0  -0.128897  0  4.001048  0  0  -0.085625  -0.128813  0  3.970706  0
C  C63  1  0.79350471  0.03817305  0.60761422  1  0  -0.099827  0  3.722207  0  0  -0.129152  0  3.983117  0  0  -0.128921  0  4.001015  0  0  -0.085612  -0.128833  0  3.970675  0
C  C64  1  0.95282291  0.05457558  0.51502970  1  0  0.061172  0  3.744526  0  0  0.071061  0  3.970735  0  0  0.071419  0  3.995184  0  0  0.002044  0.070872  0  3.953519  0
C  C65  1  0.04717585  0.94542235  0.48496480  1  0  0.061118  0  3.744712  0  0  0.071036  0  3.970867  0  0  0.071397  0  3.995314  0  0  0.002014  0.070848  0  3.953653  0
S  S66  1  0.91022264  0.31440997  0.47317476  1  0  1.362324  0  5.580205  0  0  1.264515  0  6.096887  0  0  1.316502  0  6.070662  0  0  0.541416  1.228209  0  6.113945  0
S  S67  1  0.08977989  0.68559174  0.52681459  1  0  1.362497  0  5.580218  0  0  1.264687  0  6.096911  0  0  1.316678  0  6.07068  0  0  0.541491  1.228379  0  6.113973  0
N  N68  1  0.15842628  0.83683467  0.11351379  1  0  -0.381314  0  3.172393  0  0  -0.334742  0  3.440899  0  0  -0.355042  0  3.462115  0  0  -0.348687  -0.320474  0  3.426031  0
N  N69  1  0.84157631  0.16316420  0.88648226  1  0  -0.381346  0  3.172529  0  0  -0.334874  0  3.441018  0  0  -0.355173  0  3.462231  0  0  -0.348753  -0.320603  0  3.426146  0
N  N70  1  0.87640023  0.70016646  0.26308632  1  0  -0.398957  0  3.209847  0  0  -0.353037  0  3.479777  0  0  -0.373587  0  3.501957  0  0  -0.367794  -0.33845  0  3.464095  0
N  N71  1  0.12360250  0.29983335  0.73691221  1  0  -0.398894  0  3.209815  0  0  -0.352977  0  3.479752  0  0  -0.373526  0  3.501928  0  0  -0.367748  -0.338389  0  3.464068  0
O  O72  1  0.84647576  0.38223712  0.02531382  1  0  -0.630117  0  2.026263  0  0  -0.595071  0  2.273242  0  0  -0.624683  0  2.26597  0  0  -0.368434  -0.573456  0  2.277479  0
O  O73  1  0.15353195  0.61776837  0.97467536  1  0  -0.630197  0  2.026315  0  0  -0.595143  0  2.273289  0  0  -0.624745  0  2.266006  0  0  -0.368474  -0.573532  0  2.277535  0
O  O74  1  0.67318062  0.59672027  0.90270210  1  0  -0.63023  0  2.039927  0  0  -0.589033  0  2.284264  0  0  -0.618422  0  2.276411  0  0  -0.358637  -0.567778  0  2.28881  0
O  O75  1  0.32680233  0.40327484  0.09730850  1  0  -0.630238  0  2.040059  0  0  -0.589064  0  2.284377  0  0  -0.618449  0  2.276515  0  0  -0.358592  -0.567809  0  2.288924  0
O  O76  1  0.95825707  0.44436068  0.16426313  1  0  -0.617519  0  2.07072  0  0  -0.579746  0  2.325508  0  0  -0.609584  0  2.318151  0  0  -0.370075  -0.558165  0  2.32996  0
O  O77  1  0.04174464  0.55564765  0.83572800  1  0  -0.617467  0  2.070734  0  0  -0.579697  0  2.32549  0  0  -0.609533  0  2.318129  0  0  -0.370022  -0.558106  0  2.329923  0
O  O78  1  0.45490902  0.64095818  0.06317320  1  0  -0.619357  0  2.005776  0  0  -0.576504  0  2.246244  0  0  -0.605796  0  2.236937  0  0  -0.36959  -0.555293  0  2.25163  0
O  O79  1  0.54507163  0.35904261  0.93683347  1  0  -0.61939  0  2.006126  0  0  -0.576587  0  2.246559  0  0  -0.605877  0  2.237244  0  0  -0.369598  -0.555377  0  2.251951  0
O  O80  1  0.37669204  0.48332960  0.32756992  1  0  -0.818017  0  1.845457  0  0  -0.776872  0  2.034735  0  0  -0.79835  0  2.012965  0  0  -0.579684  -0.761292  0  2.048788  0
O  O81  1  0.62331092  0.51667305  0.67243076  1  0  -0.818051  0  1.845397  0  0  -0.776925  0  2.034685  0  0  -0.798392  0  2.01289  0  0  -0.579714  -0.761342  0  2.048742  0
O  O82  1  0.02896981  0.41989209  0.40167918  1  0  -0.733582  0  2.06996  0  0  -0.676393  0  2.348351  0  0  -0.704057  0  2.333957  0  0  -0.38446  -0.656262  0  2.357196  0
O  O83  1  0.97102643  0.58010773  0.59831119  1  0  -0.733495  0  2.069673  0  0  -0.676442  0  2.34818  0  0  -0.704106  0  2.333785  0  0  -0.384441  -0.656312  0  2.357026  0
O  O84  1  0.76832618  0.30610604  0.42879583  1  0  -0.634638  0  1.927216  0  0  -0.585676  0  2.16903  0  0  -0.606939  0  2.155035  0  0  -0.321068  -0.570364  0  2.178069  0
O  O85  1  0.23167156  0.69389568  0.57119920  1  0  -0.634793  0  1.927371  0  0  -0.585734  0  2.169089  0  0  -0.606999  0  2.155085  0  0  -0.321117  -0.570422  0  2.178129  0
O  O86  1  0.86140036  0.31333155  0.61235728  1  0  -0.737362  0  2.044744  0  0  -0.684071  0  2.321338  0  0  -0.71349  0  2.308462  0  0  -0.396278  -0.662548  0  2.32942  0
O  O87  1  0.13860249  0.68667300  0.38763687  1  0  -0.737431  0  2.044984  0  0  -0.684125  0  2.321604  0  0  -0.713546  0  2.308725  0  0  -0.3963  -0.6626  0  2.329689  0
