# generated using pymatgen
data_ZnH4C4(BrN)2
_symmetry_space_group_name_H-M   'P 1'
_cell_length_a   5.92214961
_cell_length_b   6.98377479
_cell_length_c   9.85014210
_cell_angle_alpha   90.00672387
_cell_angle_beta   89.99831831
_cell_angle_gamma   111.14427498
_symmetry_Int_Tables_number   1
_chemical_formula_structural   ZnH4C4(BrN)2
_chemical_formula_sum   'Zn2 H8 C8 Br4 N4'
_cell_volume   379.96400988
_cell_formula_units_Z   2
loop_
 _symmetry_equiv_pos_site_id
 _symmetry_equiv_pos_as_xyz
  1  'x, y, z'
loop_
 _atom_site_type_symbol
 _atom_site_label
 _atom_site_symmetry_multiplicity
 _atom_site_fract_x
 _atom_site_fract_y
 _atom_site_fract_z
 _atom_site_occupancy
 _atom_site_hle17_bader_spin_density
 _atom_site_hle17_ddec_charge
 _atom_site_hle17_ddec_spin_density
 _atom_site_hle17_ddec_sum_bond_order
 _atom_site_hle17_magmom
 _atom_site_hse06_10hf_bader_spin_density
 _atom_site_hse06_10hf_ddec_charge
 _atom_site_hse06_10hf_ddec_spin_density
 _atom_site_hse06_10hf_ddec_sum_bond_order
 _atom_site_hse06_10hf_magmom
 _atom_site_hse06_bader_spin_density
 _atom_site_hse06_ddec_charge
 _atom_site_hse06_ddec_spin_density
 _atom_site_hse06_ddec_sum_bond_order
 _atom_site_hse06_magmom
 _atom_site_pbe_bader_spin_density
 _atom_site_pbe_cm5_charge
 _atom_site_pbe_ddec_charge
 _atom_site_pbe_ddec_spin_density
 _atom_site_pbe_ddec_sum_bond_order
 _atom_site_pbe_magmom
Zn  Zn0  1  0.40171635  0.47949749  0.75000481  1  0  0.750798  0  2.182037  0  0  0.574252  0  2.672556  0  0  0.616539  0  2.628009  0  0  0.500039  0.545488  0  2.702361  0
Zn  Zn1  1  0.59831117  0.52051704  0.24999929  1  0  0.750698  0  2.181965  0  0  0.574173  0  2.672427  0  0  0.616453  0  2.627891  0  0  0.499988  0.545411  0  2.702221  0
H  H2  1  0.96708300  0.17740353  0.89102810  1  0  0.097778  0  0.94986  0  0  0.101485  0  1.019695  0  0  0.104727  0  1.017202  0  0  0.11064  0.098997  0  1.021836  0
H  H3  1  0.96708031  0.17735109  0.60893471  1  0  0.097738  0  0.949591  0  0  0.10141  0  1.019504  0  0  0.104655  0  1.017013  0  0  0.110588  0.098921  0  1.021649  0
H  H4  1  0.03288289  0.82262118  0.10896178  1  0  0.097949  0  0.94978  0  0  0.101596  0  1.019624  0  0  0.104839  0  1.017137  0  0  0.110599  0.099104  0  1.021771  0
H  H5  1  0.03290374  0.82262788  0.39107852  1  0  0.097786  0  0.949725  0  0  0.101466  0  1.01962  0  0  0.10471  0  1.017131  0  0  0.110615  0.098973  0  1.021765  0
H  H6  1  0.34203203  0.80620272  0.93642860  1  0  0.097875  0  0.952903  0  0  0.101847  0  1.021423  0  0  0.105301  0  1.018538  0  0  0.109332  0.099208  0  1.023826  0
H  H7  1  0.34209970  0.80619489  0.56362484  1  0  0.097843  0  0.952795  0  0  0.101827  0  1.021295  0  0  0.105289  0  1.018399  0  0  0.10927  0.099182  0  1.023695  0
H  H8  1  0.65792794  0.19382806  0.06355621  1  0  0.097779  0  0.95314  0  0  0.101822  0  1.021603  0  0  0.105282  0  1.018706  0  0  0.109357  0.099189  0  1.024012  0
H  H9  1  0.65793352  0.19380897  0.43637925  1  0  0.097846  0  0.953135  0  0  0.101895  0  1.021558  0  0  0.105306  0  1.018713  0  0  0.109376  0.099256  0  1.023956  0
C  C10  1  0.98083351  0.32149821  0.93971729  1  0  0.098725  0  3.64459  0  0  0.06651  0  3.896933  0  0  0.069984  0  3.912697  0  0  0.05778  0.063928  0  3.88692  0
C  C11  1  0.98082614  0.32146774  0.56024662  1  0  0.098789  0  3.643438  0  0  0.066572  0  3.895849  0  0  0.070051  0  3.911605  0  0  0.057794  0.063977  0  3.885845  0
C  C12  1  0.01917012  0.67854824  0.06026346  1  0  0.098328  0  3.64511  0  0  0.066284  0  3.897322  0  0  0.069727  0  3.913118  0  0  0.057716  0.06372  0  3.887292  0
C  C13  1  0.01914967  0.67852799  0.43975443  1  0  0.098668  0  3.644382  0  0  0.06642  0  3.896747  0  0  0.069868  0  3.912539  0  0  0.05775  0.06385  0  3.886722  0
C  C14  1  0.18944497  0.66968529  0.96568864  1  0  0.098868  0  3.648675  0  0  0.067138  0  3.900701  0  0  0.070894  0  3.915626  0  0  0.057654  0.064317  0  3.891295  0
C  C15  1  0.18947675  0.66965975  0.53433141  1  0  0.098863  0  3.647753  0  0  0.067242  0  3.899659  0  0  0.071013  0  3.914577  0  0  0.057672  0.064421  0  3.890248  0
C  C16  1  0.81049487  0.33033767  0.03430937  1  0  0.099305  0  3.648967  0  0  0.067509  0  3.900975  0  0  0.071279  0  3.915867  0  0  0.057869  0.064656  0  3.891612  0
C  C17  1  0.81049802  0.33034973  0.46565441  1  0  0.098851  0  3.648527  0  0  0.067081  0  3.900577  0  0  0.07088  0  3.915505  0  0  0.0576  0.064261  0  3.891172  0
Br  Br18  1  0.75561779  0.77341800  0.75002453  1  0  -0.503541  0  1.021989  0  0  -0.440342  0  1.331348  0  0  -0.459622  0  1.310023  0  0  -0.279654  -0.426328  0  1.345851  0
Br  Br19  1  0.24451259  0.22652702  0.24997246  1  0  -0.503548  0  1.022074  0  0  -0.440337  0  1.331399  0  0  -0.459603  0  1.310056  0  0  -0.279688  -0.426331  0  1.345913  0
Br  Br20  1  0.41553383  0.14656361  0.75001590  1  0  -0.51863  0  1.047579  0  0  -0.457171  0  1.364207  0  0  -0.478378  0  1.34185  0  0  -0.267861  -0.441217  0  1.379349  0
Br  Br21  1  0.58449346  0.85343409  0.25002677  1  0  -0.518669  0  1.047723  0  0  -0.457246  0  1.36438  0  0  -0.478441  0  1.342015  0  0  -0.267899  -0.4413  0  1.379523  0
N  N22  1  0.16897424  0.49124213  0.90603382  1  0  -0.257493  0  3.304642  0  0  -0.175344  0  3.569517  0  0  -0.190174  0  3.585839  0  0  -0.311627  -0.165402  0  3.558722  0
N  N23  1  0.16904728  0.49122746  0.59399162  1  0  -0.257669  0  3.304146  0  0  -0.175471  0  3.568855  0  0  -0.190312  0  3.585174  0  0  -0.311544  -0.165534  0  3.558077  0
N  N24  1  0.83099285  0.50872446  0.09392763  1  0  -0.257637  0  3.305303  0  0  -0.1755  0  3.570117  0  0  -0.190331  0  3.586455  0  0  -0.311767  -0.165562  0  3.559316  0
N  N25  1  0.83097975  0.50874116  0.40603887  1  0  -0.2573  0  3.305271  0  0  -0.175117  0  3.570082  0  0  -0.189934  0  3.586388  0  0  -0.311599  -0.165187  0  3.559285  0
