# generated using pymatgen
data_CoH10C18S2(NO)4
_symmetry_space_group_name_H-M   'P 1'
_cell_length_a   14.70538631
_cell_length_b   14.69476378
_cell_length_c   14.69429906
_cell_angle_alpha   69.62509595
_cell_angle_beta   85.28381632
_cell_angle_gamma   85.28376072
_symmetry_Int_Tables_number   1
_chemical_formula_structural   CoH10C18S2(NO)4
_chemical_formula_sum   'Co6 H60 C108 S12 N24 O24'
_cell_volume   2961.69391741
_cell_formula_units_Z   6
loop_
 _symmetry_equiv_pos_site_id
 _symmetry_equiv_pos_as_xyz
  1  'x, y, z'
loop_
 _atom_site_type_symbol
 _atom_site_label
 _atom_site_symmetry_multiplicity
 _atom_site_fract_x
 _atom_site_fract_y
 _atom_site_fract_z
 _atom_site_occupancy
 _atom_site_pbe_bader_charge
 _atom_site_pbe_bader_spin_density
 _atom_site_pbe_cm5_charge
 _atom_site_pbe_ddec_charge
 _atom_site_pbe_ddec_spin_density
 _atom_site_pbe_ddec_sum_bond_order
 _atom_site_pbe_magmom
Co  Co0  1  0.22354054  0.26447051  0.13448651  1  1.243583  2.57704  0.679073  0.771122  2.818531  2.591047  2.547
Co  Co1  1  0.27646207  0.86551249  0.73552157  1  1.243997  2.57699  0.679014  0.77113  2.818517  2.591076  2.547
Co  Co2  1  0.77646712  0.73553211  0.86550978  1  1.243593  2.57704  0.678998  0.771069  2.818509  2.591132  2.547
Co  Co3  1  0.72354131  0.13448143  0.26447589  1  1.24358  2.577053  0.679051  0.771126  2.818522  2.591065  2.547
Co  Co4  1  0.75000264  0.60369238  0.39630985  1  1.252965  2.586289  0.670143  0.750566  2.843888  2.625627  2.566
Co  Co5  1  0.24999476  0.39631078  0.60369392  1  1.252896  2.58628  0.670164  0.750616  2.843875  2.625708  2.566
H  H6  1  0.18468636  0.02774719  0.94596939  1  0.198322  0.000355  0.118189  0.165479  0.000186  1.019834  0.0
H  H7  1  0.31531094  0.05402426  0.97225555  1  0.197316  0.00035  0.118227  0.165563  0.000186  1.019796  0.0
H  H8  1  0.81531563  0.97225908  0.05402412  1  0.198473  0.000355  0.118211  0.165556  0.000186  1.019862  0.0
H  H9  1  0.68469523  0.94599226  0.02773151  1  0.197221  0.00035  0.118262  0.165569  0.000186  1.020098  0.0
H  H10  1  0.95469149  0.77092825  0.09695415  1  0.069387  0.00074  0.098738  0.110746  0.000264  1.02849  0.0
H  H11  1  0.54531418  0.90304593  0.22906453  1  0.069367  0.00074  0.098758  0.110794  0.000264  1.028508  0.0
H  H12  1  0.04530980  0.22906640  0.90304256  1  0.069417  0.000739  0.098769  0.110785  0.000264  1.028536  0.0
H  H13  1  0.45468198  0.09696668  0.77093622  1  0.069509  0.00074  0.098837  0.110914  0.000264  1.028323  0.0
H  H14  1  0.84613474  0.65488261  0.20503195  1  0.119694  0.001277  0.113034  0.091205  4.1e-05  1.037687  0.001
H  H15  1  0.65387513  0.79497242  0.34511271  1  0.119774  0.001278  0.113004  0.091215  4.1e-05  1.037679  0.001
H  H16  1  0.15386268  0.34512001  0.79496314  1  0.11994  0.001277  0.112971  0.091137  4.1e-05  1.037666  0.001
H  H17  1  0.34612440  0.20504094  0.65488683  1  0.12008  0.001277  0.113009  0.091264  4.1e-05  1.037499  0.001
H  H18  1  0.84008417  0.78426754  0.41509031  1  0.124828  0.001681  0.11666  0.093582  0.000536  1.03883  0.001
H  H19  1  0.65992244  0.58491673  0.21572754  1  0.125032  0.001681  0.116643  0.09361  0.000537  1.038737  0.001
H  H20  1  0.15991619  0.21573144  0.58490642  1  0.124727  0.001682  0.116662  0.093582  0.000537  1.038787  0.001
H  H21  1  0.34006754  0.41508472  0.78428760  1  0.125324  0.00168  0.11665  0.093626  0.000537  1.038745  0.001
H  H22  1  0.95134791  0.90421409  0.31786273  1  0.151615  0.001012  0.119764  0.142843  0.000439  0.982526  0.0
H  H23  1  0.54866096  0.68214775  0.09577389  1  0.152163  0.001012  0.119811  0.142916  0.000439  0.982532  0.0
H  H24  1  0.04865466  0.09578202  0.68213339  1  0.151842  0.001012  0.119743  0.142807  0.000439  0.982478  0.0
H  H25  1  0.45133683  0.31786039  0.90423296  1  0.151927  0.001012  0.119715  0.142704  0.000439  0.982623  0.0
H  H26  1  0.16485419  0.54632349  0.81342681  1  0.236269  0.000414  0.122511  0.166729  0.000105  1.028183  0.0
H  H27  1  0.33515383  0.18657952  0.45368377  1  0.236759  0.000414  0.12258  0.166833  0.000105  1.028063  0.0
H  H28  1  0.83514636  0.45368403  0.18657594  1  0.236741  0.000414  0.122526  0.166708  0.000105  1.028164  0.0
H  H29  1  0.66485806  0.81342070  0.54632385  1  0.236594  0.000414  0.12249  0.166636  0.000105  1.028194  0.0
H  H30  1  0.87842137  0.35087053  0.94272468  1  0.050809  0.001028  0.097292  0.101707  0.000444  1.034036  0.0
H  H31  1  0.62158723  0.05727057  0.64913157  1  0.05095  0.001027  0.097316  0.101792  0.000443  1.033992  0.0
H  H32  1  0.12158520  0.64913912  0.05728027  1  0.050713  0.001028  0.097295  0.101752  0.000444  1.033959  0.0
H  H33  1  0.37841074  0.94272246  0.35087276  1  0.050849  0.001027  0.097354  0.101828  0.000443  1.033931  0.0
H  H34  1  0.75046863  0.26308425  0.05113822  1  0.130542  0.001695  0.120913  0.099566  0.000467  0.993055  0.001
H  H35  1  0.74953780  0.94885301  0.73691477  1  0.130534  0.001695  0.120939  0.09961  0.000467  0.992976  0.001
H  H36  1  0.24953597  0.73692413  0.94885846  1  0.130494  0.001695  0.120893  0.099562  0.000467  0.992959  0.001
H  H37  1  0.25046281  0.05114161  0.26308338  1  0.130561  0.001695  0.1209  0.099595  0.000467  0.992964  0.001
H  H38  1  0.90274289  0.18830377  0.29415292  1  0.168827  0.002051  0.1296  0.109734  0.000784  0.968937  0.001
H  H39  1  0.59725562  0.70585006  0.81169704  1  0.168928  0.002052  0.129561  0.10967  0.000784  0.968843  0.001
H  H40  1  0.09725886  0.81168278  0.70585119  1  0.168907  0.002052  0.129535  0.109639  0.000784  0.969001  0.001
H  H41  1  0.40274393  0.29413919  0.18831589  1  0.169069  0.002051  0.12954  0.109602  0.000784  0.969095  0.001
H  H42  1  0.03431073  0.27868383  0.19763628  1  0.118627  -2.1e-05  0.113391  0.117796  -0.000528  1.029022  0.0
H  H43  1  0.46569076  0.80237392  0.72131616  1  0.118629  -2.2e-05  0.113359  0.117769  -0.000528  1.02893  0.0
H  H44  1  0.96569493  0.72130616  0.80237659  1  0.118376  -2.2e-05  0.113289  0.117749  -0.000528  1.028915  0.0
H  H45  1  0.53430722  0.19761897  0.27869501  1  0.118532  -2.1e-05  0.113271  0.117651  -0.000528  1.028876  0.0
H  H46  1  0.55123504  0.48067289  0.71146753  1  0.162772  0.000363  0.130866  0.171768  0.000138  0.973713  0.0
H  H47  1  0.94875915  0.28852775  0.51932875  1  0.162778  0.000364  0.130861  0.171762  0.000138  0.973761  0.0
H  H48  1  0.44875350  0.51932990  0.28851871  1  0.162671  0.000363  0.130849  0.171776  0.000138  0.973865  0.0
H  H49  1  0.05124248  0.71147276  0.48066396  1  0.162717  0.000364  0.13092  0.171822  0.000138  0.973758  0.0
H  H50  1  0.69086403  0.21945857  0.57284715  1  0.091601  0.001002  0.104127  0.110458  0.000474  1.00826  0.0
H  H51  1  0.80915143  0.42714669  0.78056512  1  0.089649  0.001003  0.104108  0.110488  0.000475  1.008067  0.0
H  H52  1  0.30914777  0.78055502  0.42714245  1  0.09156  0.001003  0.104078  0.110437  0.000475  1.008171  0.0
H  H53  1  0.19084535  0.57284338  0.21944301  1  0.089978  0.001003  0.104121  0.110491  0.000474  1.008233  0.0
H  H54  1  0.71991080  0.11689138  0.46905821  1  0.112751  0.001826  0.119516  0.089115  0.000392  1.014946  0.001
H  H55  1  0.78010919  0.53094142  0.88312488  1  0.127559  0.001829  0.119567  0.08917  0.000392  1.014913  0.001
H  H56  1  0.28010471  0.88311707  0.53093619  1  0.127653  0.00183  0.119555  0.089085  0.000392  1.014988  0.001
H  H57  1  0.21990107  0.46905153  0.11688458  1  0.127873  0.00183  0.119603  0.089244  0.000392  1.01494  0.001
H  H58  1  0.65602289  0.35004896  0.22009385  1  0.188263  0.002171  0.129974  0.113051  0.000937  0.976928  0.001
H  H59  1  0.84397839  0.77989653  0.64994587  1  0.18802  0.002172  0.130002  0.113146  0.000937  0.977026  0.001
H  H60  1  0.34397678  0.64995010  0.77989882  1  0.187956  0.002172  0.129995  0.113168  0.000937  0.976931  0.001
H  H61  1  0.15601813  0.22009803  0.35005467  1  0.187907  0.002172  0.130006  0.113119  0.000937  0.976999  0.001
H  H62  1  0.61979680  0.45957810  0.31487034  1  0.081755  0.000873  0.113921  0.117993  0.00039  1.023759  0.0
H  H63  1  0.88019589  0.68511362  0.54041722  1  0.106374  0.000852  0.113888  0.117893  0.00039  1.023952  0.0
H  H64  1  0.38019464  0.54042177  0.68511730  1  0.106428  0.000852  0.113873  0.117917  0.00039  1.023844  0.0
H  H65  1  0.11979248  0.31488022  0.45958219  1  0.106291  0.000852  0.113903  0.117935  0.00039  1.023868  0.0
C  C66  1  0.16676188  0.12241525  0.09293303  1  1.570179  -0.00324  0.189917  0.524788  -0.00399  4.234982  -0.004
C  C67  1  0.33323867  0.90706539  0.87757743  1  1.569856  -0.00324  0.190104  0.52507  -0.00399  4.235004  -0.004
C  C68  1  0.83323852  0.87758296  0.90706599  1  1.570297  -0.00324  0.19004  0.525117  -0.003991  4.234918  -0.004
C  C69  1  0.66675752  0.09293497  0.12242191  1  1.570551  -0.003239  0.190025  0.525073  -0.00399  4.235067  -0.004
C  C70  1  0.12376519  0.03591514  0.08847237  1  0.511254  0.003195  0.074094  0.066507  0.001623  4.054909  0.002
C  C71  1  0.37623341  0.91152999  0.96407913  1  0.510749  0.003195  0.07405  0.066361  0.001624  4.055129  0.002
C  C72  1  0.87623670  0.96408095  0.91152450  1  0.511038  0.003194  0.074115  0.066345  0.001623  4.055151  0.002
C  C73  1  0.62375720  0.08847242  0.03592475  1  0.510792  0.003195  0.074107  0.066331  0.001624  4.055203  0.002
C  C74  1  0.14136794  0.00083892  0.01214962  1  -0.312053  -0.004507  -0.083408  -0.223963  -0.004896  3.929553  -0.003
C  C75  1  0.35862787  0.98784385  0.99915878  1  -0.311993  -0.004503  -0.083434  -0.224053  -0.004893  3.929643  -0.003
C  C76  1  0.85863233  0.99916152  0.98784663  1  -0.312007  -0.004508  -0.083469  -0.224069  -0.004898  3.929737  -0.003
C  C77  1  0.64137224  0.01215951  0.00083584  1  -0.311785  -0.004506  -0.083432  -0.22397  -0.004896  3.929917  -0.003
C  C78  1  0.03440221  0.91150533  0.14104639  1  0.459325  0.001456  0.110362  0.084781  0.000489  4.063352  0.002
C  C79  1  0.46559267  0.85895604  0.08848329  1  0.459375  0.001454  0.110328  0.084594  0.000489  4.063194  0.002
C  C80  1  0.96559807  0.08849509  0.85895055  1  0.459508  0.001457  0.110256  0.084595  0.00049  4.063306  0.002
C  C81  1  0.53440114  0.14105011  0.91151502  1  0.459508  0.001456  0.110357  0.084706  0.000489  4.062826  0.002
C  C82  1  0.96707197  0.84485721  0.20047339  1  -0.015299  -0.010432  0.004109  0.084269  -0.011013  4.039565  -0.007
C  C83  1  0.53293403  0.79952584  0.15513729  1  -0.015352  -0.010426  0.004192  0.084546  -0.011006  4.039356  -0.007
C  C84  1  0.03292907  0.15514177  0.79952328  1  -0.015545  -0.010432  0.004126  0.084268  -0.011013  4.039791  -0.007
C  C85  1  0.46706440  0.20048311  0.84486584  1  -0.015606  -0.010429  0.003992  0.084127  -0.01101  4.039435  -0.007
C  C86  1  0.93369271  0.77500089  0.16841015  1  -0.041738  0.005946  -0.093523  -0.183168  0.002892  3.977344  0.005
C  C87  1  0.56631241  0.83159318  0.22499321  1  -0.041367  0.005945  -0.093624  -0.183416  0.002892  3.977542  0.005
C  C88  1  0.06630794  0.22499295  0.83159029  1  -0.041645  0.005945  -0.093579  -0.183322  0.002892  3.977871  0.005
C  C89  1  0.43368444  0.16841936  0.77501022  1  -0.041499  0.005944  -0.093579  -0.183353  0.002892  3.977484  0.005
C  C90  1  0.87220713  0.71031100  0.22768238  1  0.473436  -0.007849  0.03636  0.087203  -0.008777  3.964229  -0.005
C  C91  1  0.62780087  0.77232110  0.28968732  1  0.473474  -0.007844  0.036414  0.087224  -0.008773  3.964169  -0.005
C  C92  1  0.12779198  0.28968584  0.77231312  1  0.473378  -0.00785  0.036401  0.087312  -0.008779  3.964151  -0.005
C  C93  1  0.37220224  0.22768932  0.71031494  1  0.472979  -0.007845  0.036461  0.087277  -0.008775  3.964046  -0.005
C  C94  1  0.86972849  0.78112367  0.34573336  1  0.468978  -0.006021  0.041485  0.083858  -0.006333  3.926758  -0.003
C  C95  1  0.63027387  0.65427722  0.21887046  1  0.469038  -0.006016  0.041478  0.083736  -0.006328  3.927018  -0.003
C  C96  1  0.13027456  0.21887602  0.65426427  1  0.469353  -0.006021  0.041508  0.083866  -0.00633  3.926901  -0.003
C  C97  1  0.36971424  0.34573304  0.78113785  1  0.469908  -0.00602  0.041486  0.083672  -0.006331  3.92692  -0.003
C  C98  1  0.93180136  0.84861208  0.29107541  1  -0.023793  0.007131  -0.073448  -0.13646  0.003502  3.863772  0.005
C  C99  1  0.56820493  0.70893391  0.15137932  1  -0.024687  0.00713  -0.073526  -0.136676  0.0035  3.864223  0.005
C  C100  1  0.06820032  0.15138769  0.70891823  1  -0.023905  0.007132  -0.07344  -0.136413  0.003503  3.863535  0.005
C  C101  1  0.43179052  0.29107932  0.84862605  1  -0.025201  0.007133  -0.073314  -0.136166  0.003502  3.863719  0.005
C  C102  1  0.28536080  0.42377950  0.96873479  1  1.609848  -0.000251  0.197971  0.542862  -0.000492  4.26705  -0.001
C  C103  1  0.21464672  0.03127166  0.57622025  1  1.609686  -0.000249  0.198187  0.54342  -0.000492  4.266974  -0.001
C  C104  1  0.71464308  0.57622944  0.03126925  1  1.608879  -0.000251  0.198017  0.542905  -0.000491  4.2674  -0.001
C  C105  1  0.78535448  0.96872444  0.42377599  1  1.608834  -0.000252  0.198229  0.543314  -0.000494  4.267038  -0.001
C  C106  1  0.18490819  0.42798719  0.95582428  1  0.467409  -0.000458  0.073965  0.052705  -0.001443  4.034999  0.0
C  C107  1  0.31509868  0.04417816  0.57201099  1  0.467586  -0.000458  0.074064  0.052715  -0.001443  4.035081  0.0
C  C108  1  0.81509862  0.57201820  0.04417728  1  0.467741  -0.000459  0.074062  0.052757  -0.001443  4.034976  0.0
C  C109  1  0.68490138  0.95581423  0.42798998  1  0.467224  -0.000456  0.074137  0.052857  -0.001442  4.03499  0.0
C  C110  1  0.13935190  0.48960992  0.87794797  1  -0.277837  0.001085  -0.074278  -0.189972  0.000422  3.893721  0.001
C  C111  1  0.36065455  0.12205705  0.51039185  1  -0.2785  0.001085  -0.074445  -0.190209  0.000422  3.893667  0.001
C  C112  1  0.86065300  0.51039316  0.12205996  1  -0.27845  0.001086  -0.074324  -0.189923  0.000422  3.893526  0.001
C  C113  1  0.63934803  0.87793886  0.48961387  1  -0.278202  0.001083  -0.074316  -0.189952  0.000421  3.89375  0.001
C  C114  1  0.04517274  0.37246534  0.00164583  1  0.420591  -0.006376  0.117416  0.102605  -0.007188  4.009209  -0.003
C  C115  1  0.45483823  0.99835454  0.62752921  1  0.421218  -0.006378  0.117385  0.102654  -0.007186  4.009273  -0.003
C  C116  1  0.95483634  0.62753622  0.99836635  1  0.420936  -0.006373  0.117372  0.102512  -0.007185  4.00939  -0.003
C  C117  1  0.54516565  0.00163055  0.37247589  1  0.420428  -0.006376  0.117471  0.102752  -0.007183  4.009079  -0.003
C  C118  1  0.96905642  0.32010357  0.06106618  1  -0.034856  -0.007603  -0.000481  0.068633  -0.00839  4.053222  -0.004
C  C119  1  0.53094884  0.93893412  0.67989231  1  -0.035347  -0.007603  -0.000406  0.068862  -0.008389  4.05308  -0.004
C  C120  1  0.03094567  0.67990091  0.93894357  1  -0.035711  -0.007603  -0.000488  0.068772  -0.008389  4.053057  -0.004
C  C121  1  0.46905368  0.06105101  0.32011084  1  -0.034935  -0.007603  -0.00044  0.068745  -0.008389  4.053042  -0.004
C  C122  1  0.88670705  0.31646963  0.02058425  1  -0.032006  0.003017  -0.095514  -0.192883  0.001281  4.010418  0.003
C  C123  1  0.61330216  0.97941277  0.68352754  1  -0.032183  0.003018  -0.095611  -0.193136  0.001281  4.010229  0.003
C  C124  1  0.11330102  0.68353784  0.97942130  1  -0.031692  0.003016  -0.09557  -0.193011  0.001281  4.010381  0.003
C  C125  1  0.38669854  0.02058033  0.31647382  1  -0.032555  0.003018  -0.095656  -0.193169  0.001281  4.010344  0.003
C  C126  1  0.81546645  0.26694696  0.07992535  1  0.492897  -0.003982  0.042549  0.089733  -0.004469  3.96063  -0.002
C  C127  1  0.68454236  0.92006654  0.73304831  1  0.492883  -0.003982  0.042597  0.089774  -0.004468  3.960466  -0.002
C  C128  1  0.18453575  0.73305555  0.92007551  1  0.492781  -0.003979  0.04258  0.089797  -0.004466  3.960663  -0.002
C  C129  1  0.31546178  0.07992597  0.26694751  1  0.493086  -0.003983  0.042576  0.089749  -0.004469  3.960535  -0.002
C  C130  1  0.90025035  0.22561678  0.21608734  1  0.418934  -0.005613  0.063256  0.126186  -0.006166  3.868525  -0.003
C  C131  1  0.59975170  0.78391909  0.77437886  1  0.418887  -0.005612  0.063385  0.126367  -0.006166  3.868393  -0.003
C  C132  1  0.09975445  0.77437624  0.78391847  1  0.419358  -0.005612  0.06342  0.12645  -0.006165  3.868779  -0.003
C  C133  1  0.40025041  0.21607317  0.22562810  1  0.419275  -0.005611  0.063309  0.126309  -0.006164  3.868927  -0.003
C  C134  1  0.97388378  0.27493859  0.16184468  1  0.077041  0.001839  -0.067675  -0.111386  0.000266  3.88273  0.002
C  C135  1  0.52611771  0.83816175  0.72505535  1  0.077181  0.001839  -0.067718  -0.111588  0.000266  3.882889  0.002
C  C136  1  0.02611953  0.72505657  0.83816191  1  0.077453  0.001838  -0.067628  -0.111582  0.000266  3.882901  0.002
C  C137  1  0.47388119  0.16182695  0.27494897  1  0.076958  0.001839  -0.067599  -0.111381  0.000267  3.882762  0.002
C  C138  1  0.64422114  0.63522505  0.55808203  1  1.627139  -0.000526  0.196845  0.53592  -0.000715  4.263716  -0.001
C  C139  1  0.85576538  0.44192317  0.36477112  1  1.627945  -0.000529  0.196804  0.535856  -0.000718  4.263464  -0.001
C  C140  1  0.35576418  0.36477444  0.44192325  1  1.62835  -0.000528  0.196833  0.535906  -0.000716  4.263731  -0.001
C  C141  1  0.14423021  0.55807569  0.63523080  1  1.627878  -0.000527  0.196736  0.535665  -0.000716  4.263479  -0.001
C  C142  1  0.62184546  0.53514913  0.56603051  1  0.454441  -0.000133  0.074261  0.06784  -0.001299  4.04436  0.0
C  C143  1  0.87814809  0.43396305  0.46485062  1  0.454661  -0.000133  0.074293  0.067889  -0.001299  4.044557  0.0
C  C144  1  0.37814854  0.46485353  0.43396212  1  0.45459  -0.000132  0.074304  0.067943  -0.001298  4.044438  0.0
C  C145  1  0.12184771  0.56603225  0.53514906  1  0.454651  -0.000132  0.074255  0.067941  -0.001298  4.044303  0.0
C  C146  1  0.57874164  0.46923848  0.64518903  1  -0.234353  -0.000813  -0.081417  -0.220894  -0.001268  3.914891  -0.001
C  C147  1  0.92125208  0.35480607  0.53076474  1  -0.234426  -0.000814  -0.081431  -0.220976  -0.001268  3.914984  -0.001
C  C148  1  0.42124810  0.53076718  0.35479820  1  -0.234621  -0.000814  -0.081494  -0.221143  -0.001269  3.915236  -0.001
C  C149  1  0.07874649  0.64518843  0.46923837  1  -0.234164  -0.000813  -0.081463  -0.221033  -0.001268  3.915023  -0.001
C  C150  1  0.63090466  0.40929610  0.51305512  1  0.455245  -0.004208  0.125859  0.126886  -0.005405  3.96407  -0.001
C  C151  1  0.86908765  0.48693730  0.59071198  1  0.454363  -0.004211  0.125851  0.126814  -0.005409  3.964149  -0.001
C  C152  1  0.36908978  0.59071097  0.48693399  1  0.454657  -0.004204  0.125805  0.126793  -0.005403  3.964194  -0.001
C  C153  1  0.13090226  0.51305356  0.40929169  1  0.455357  -0.004209  0.125903  0.12689  -0.005406  3.964102  -0.001
C  C154  1  0.65112066  0.34866627  0.45256987  1  -0.03324  -0.013714  0.005979  0.080581  -0.014775  4.021416  -0.009
C  C155  1  0.84888349  0.54742035  0.65134399  1  -0.033878  -0.013712  0.005933  0.080734  -0.014775  4.021035  -0.009
C  C156  1  0.34887971  0.65134443  0.54741891  1  -0.033879  -0.013712  0.005996  0.080805  -0.014775  4.021032  -0.009
C  C157  1  0.15110702  0.45257197  0.34865915  1  -0.034064  -0.013713  0.005908  0.080643  -0.014774  4.021401  -0.009
C  C158  1  0.67986643  0.25037472  0.49528215  1  -0.014383  0.003784  -0.088639  -0.181016  0.001491  3.982183  0.003
C  C159  1  0.82014845  0.50471247  0.74964156  1  -0.012341  0.003782  -0.088489  -0.181094  0.001491  3.981875  0.003
C  C160  1  0.32014422  0.74963518  0.50471149  1  -0.01415  0.003784  -0.088459  -0.181023  0.001491  3.982011  0.003
C  C161  1  0.17985085  0.49528130  0.25036241  1  -0.012257  0.003783  -0.088565  -0.181134  0.001491  3.982013  0.003
C  C162  1  0.69689943  0.19302183  0.43767699  1  0.474234  -0.008678  0.044009  0.094518  -0.009417  3.960283  -0.005
C  C163  1  0.80311328  0.56231700  0.80699041  1  0.459358  -0.008679  0.043967  0.094674  -0.009415  3.960347  -0.005
C  C164  1  0.30311271  0.80698595  0.56231450  1  0.459329  -0.008683  0.043965  0.094674  -0.009417  3.960277  -0.005
C  C165  1  0.19688767  0.43767170  0.19301442  1  0.458929  -0.008678  0.043956  0.094605  -0.009415  3.960397  -0.005
C  C166  1  0.66139162  0.32241177  0.29879463  1  0.398947  -0.007912  0.06232  0.110818  -0.008364  3.872695  -0.004
C  C167  1  0.83861403  0.70119487  0.67758478  1  0.399607  -0.007916  0.062179  0.110496  -0.008367  3.872855  -0.004
C  C168  1  0.33861290  0.67758589  0.70119675  1  0.399607  -0.007916  0.062184  0.110463  -0.008368  3.872805  -0.004
C  C169  1  0.16138105  0.29880112  0.32241609  1  0.399567  -0.007915  0.062133  0.110524  -0.008367  3.872998  -0.004
C  C170  1  0.64200570  0.38428140  0.35185116  1  0.092366  0.004857  -0.065399  -0.116812  0.001996  3.883042  0.005
C  C171  1  0.85799135  0.64813314  0.61571691  1  0.068094  0.004875  -0.065438  -0.116686  0.001994  3.88299  0.005
C  C172  1  0.35799247  0.61572001  0.64813269  1  0.068127  0.004877  -0.065394  -0.116694  0.001996  3.882883  0.005
C  C173  1  0.14199626  0.35186212  0.38428346  1  0.068286  0.004876  -0.065426  -0.116774  0.001995  3.883281  0.005
S  S174  1  0.08226942  0.90101250  0.03155282  1  0.235025  -0.001763  0.110009  0.157099  -0.002453  2.952101  -0.001
S  S175  1  0.41773303  0.96844183  0.09898970  1  0.234797  -0.00176  0.109997  0.157103  -0.002451  2.951875  -0.001
S  S176  1  0.91772672  0.09898866  0.96844285  1  0.23487  -0.001764  0.110065  0.157197  -0.002454  2.952164  -0.001
S  S177  1  0.58227383  0.03157465  0.90099936  1  0.234751  -0.001762  0.109974  0.157048  -0.002453  2.952039  -0.001
S  S178  1  0.02751027  0.46382953  0.88987784  1  0.240738  0.005548  0.122315  0.163504  0.000161  2.936554  0.003
S  S179  1  0.47249968  0.11012680  0.53617063  1  0.240911  0.005549  0.12241  0.163594  0.000163  2.936302  0.003
S  S180  1  0.97249284  0.53616917  0.11013236  1  0.240839  0.005546  0.122351  0.163554  0.00016  2.936572  0.003
S  S181  1  0.52750657  0.88986467  0.46384034  1  0.241583  0.005546  0.122363  0.163482  0.000161  2.936567  0.003
S  S182  1  0.57450419  0.36141602  0.62698102  1  0.256866  0.005489  0.122124  0.162632  0.000106  2.903292  0.003
S  S183  1  0.92548566  0.37301349  0.63858944  1  0.256797  0.005487  0.122193  0.162826  0.000103  2.903349  0.003
S  S184  1  0.42548286  0.63858900  0.37300188  1  0.25679  0.005491  0.122208  0.162834  0.000107  2.903475  0.003
S  S185  1  0.07451009  0.62698253  0.36141000  1  0.256681  0.00549  0.122133  0.162704  0.000105  2.903308  0.003
N  N186  1  0.06339805  0.98460899  0.16070373  1  -1.113523  -0.002479  -0.310951  -0.274603  -0.003001  3.277195  -0.002
N  N187  1  0.43660220  0.83929980  0.01538384  1  -1.113548  -0.002473  -0.310954  -0.2744  -0.002994  3.277203  -0.002
N  N188  1  0.93660452  0.01538707  0.83929445  1  -1.113464  -0.00248  -0.310893  -0.2744  -0.003001  3.277072  -0.002
N  N189  1  0.56339038  0.16070398  0.98462420  1  -1.113797  -0.002476  -0.31097  -0.274426  -0.002997  3.276787  -0.002
N  N190  1  0.84168278  0.71100558  0.31655240  1  -1.215656  0.069659  -0.329713  -0.249612  0.037637  3.592618  0.061
N  N191  1  0.65832093  0.68345586  0.28898877  1  -1.215577  0.069669  -0.329643  -0.249391  0.037638  3.592501  0.061
N  N192  1  0.15831694  0.28899273  0.68344188  1  -1.216082  0.069669  -0.329699  -0.249589  0.037641  3.592732  0.061
N  N193  1  0.34167409  0.31655301  0.71101807  1  -1.215715  0.069668  -0.329793  -0.249586  0.037639  3.592691  0.061
N  N194  1  0.13129100  0.36268105  0.02563265  1  -1.167386  0.043439  -0.316129  -0.302958  0.022621  3.537503  0.04
N  N195  1  0.36872007  0.97437097  0.63731172  1  -1.167616  0.043436  -0.316116  -0.302941  0.022619  3.537688  0.04
N  N196  1  0.86871863  0.63732286  0.97437053  1  -1.167504  0.043433  -0.316068  -0.302887  0.02262  3.537732  0.04
N  N197  1  0.63128279  0.02562002  0.36268743  1  -1.167515  0.043432  -0.316176  -0.303038  0.022617  3.537693  0.04
N  N198  1  0.82233656  0.22010960  0.17626936  1  -1.224521  0.062639  -0.32841  -0.238615  0.034157  3.58117  0.05
N  N199  1  0.67766872  0.82372986  0.77988380  1  -1.2246  0.062635  -0.328511  -0.238669  0.034154  3.581236  0.05
N  N200  1  0.17766389  0.77988781  0.82373332  1  -1.224679  0.062633  -0.328454  -0.238703  0.034154  3.581375  0.05
N  N201  1  0.32233799  0.17626555  0.22011153  1  -1.224682  0.062636  -0.328415  -0.238591  0.034155  3.581491  0.05
N  N202  1  0.65099873  0.50092609  0.49171602  1  -1.215084  0.040518  -0.316795  -0.301738  0.022065  3.510599  0.034
N  N203  1  0.84899650  0.50827721  0.49907679  1  -1.214592  0.04052  -0.316806  -0.301831  0.022069  3.510761  0.034
N  N204  1  0.34899912  0.49908094  0.50827554  1  -1.214653  0.040513  -0.316779  -0.30181  0.022063  3.510693  0.034
N  N205  1  0.15099529  0.49171659  0.50092507  1  -1.215263  0.040512  -0.31677  -0.301762  0.022067  3.51066  0.034
N  N206  1  0.68761128  0.22744084  0.34078233  1  -1.22979  0.064829  -0.32626  -0.247759  0.035084  3.603718  0.052
N  N207  1  0.81240060  0.65921175  0.77256244  1  -1.229666  0.064833  -0.32618  -0.247794  0.035083  3.603695  0.052
N  N208  1  0.31239654  0.77255894  0.65921148  1  -1.229807  0.064836  -0.32623  -0.247797  0.035083  3.603751  0.052
N  N209  1  0.18760351  0.34078134  0.22744000  1  -1.230002  0.064831  -0.326133  -0.247723  0.035083  3.603812  0.052
O  O210  1  0.13791629  0.15555562  0.16128135  1  -1.138591  0.09855  -0.317123  -0.526783  0.051178  2.316825  0.081
O  O211  1  0.36208509  0.83871933  0.84444147  1  -1.138725  0.098536  -0.317101  -0.526827  0.051172  2.316905  0.081
O  O212  1  0.86208812  0.84444405  0.83871685  1  -1.138759  0.09856  -0.317129  -0.526861  0.051184  2.316774  0.081
O  O213  1  0.63791195  0.16127801  0.15556424  1  -1.138775  0.098551  -0.317106  -0.526822  0.051176  2.316759  0.081
O  O214  1  0.23010427  0.16088901  0.03127157  1  -1.155426  0.048029  -0.316546  -0.529087  0.024038  2.104182  0.041
O  O215  1  0.26989964  0.96872671  0.83909975  1  -1.155343  0.048082  -0.316688  -0.529227  0.024041  2.104102  0.041
O  O216  1  0.76989182  0.83911295  0.96872044  1  -1.15551  0.048028  -0.316621  -0.52924  0.024038  2.104181  0.041
O  O217  1  0.73010306  0.03127895  0.16088846  1  -1.155473  0.048037  -0.316606  -0.529191  0.024043  2.104234  0.041
O  O218  1  0.31214398  0.35225482  0.04462872  1  -1.11968  0.113903  -0.321205  -0.536818  0.05871  2.329931  0.093
O  O219  1  0.18786343  0.95537061  0.64774146  1  -1.119577  0.113922  -0.321427  -0.537223  0.058724  2.329943  0.093
O  O220  1  0.68786387  0.64775639  0.95537084  1  -1.119774  0.113904  -0.321307  -0.536939  0.058714  2.330071  0.093
O  O221  1  0.81214007  0.04462107  0.35225946  1  -1.119558  0.113884  -0.321502  -0.53723  0.058706  2.330223  0.093
O  O222  1  0.33503360  0.48408904  0.90905891  1  -1.167957  0.021048  -0.329019  -0.528371  0.01043  2.069619  0.017
O  O223  1  0.16497315  0.09094420  0.51591684  1  -1.167915  0.021048  -0.329062  -0.528506  0.01043  2.069902  0.017
O  O224  1  0.66496979  0.51592846  0.09095052  1  -1.166921  0.021047  -0.328981  -0.528298  0.010429  2.069977  0.017
O  O225  1  0.83502660  0.90904160  0.48408836  1  -1.167109  0.021049  -0.329079  -0.528491  0.010431  2.069658  0.017
O  O226  1  0.69896987  0.67754428  0.48401915  1  -1.150001  0.086567  -0.319738  -0.546426  0.045566  2.385294  0.072
O  O227  1  0.80103095  0.51598628  0.32244995  1  -1.150265  0.086531  -0.319783  -0.546335  0.045548  2.385434  0.072
O  O228  1  0.30103102  0.32245729  0.51599166  1  -1.150415  0.086555  -0.319745  -0.54633  0.045556  2.385383  0.072
O  O229  1  0.19896677  0.48401119  0.67754953  1  -1.150282  0.086548  -0.319713  -0.54627  0.045556  2.385431  0.072
O  O230  1  0.61133283  0.66986171  0.62065109  1  -1.163293  0.017386  -0.322195  -0.52283  0.008606  2.104729  0.014
O  O231  1  0.88865268  0.37934596  0.33012512  1  -1.163861  0.017386  -0.322156  -0.522906  0.008606  2.104015  0.014
O  O232  1  0.38864740  0.33013137  0.37934924  1  -1.164078  0.017389  -0.322182  -0.522908  0.008607  2.104561  0.014
O  O233  1  0.11134388  0.62064792  0.66987360  1  -1.163787  0.01739  -0.322131  -0.522773  0.008608  2.104324  0.014
