# generated using pymatgen
data_ZnH24C26(N2O3)2
_symmetry_space_group_name_H-M   'P 1'
_cell_length_a   9.34114709
_cell_length_b   11.85734345
_cell_length_c   13.09527709
_cell_angle_alpha   109.19911274
_cell_angle_beta   97.74373182
_cell_angle_gamma   113.10279379
_symmetry_Int_Tables_number   1
_chemical_formula_structural   ZnH24C26(N2O3)2
_chemical_formula_sum   'Zn2 H48 C52 N8 O12'
_cell_volume   1200.42818428
_cell_formula_units_Z   2
loop_
 _symmetry_equiv_pos_site_id
 _symmetry_equiv_pos_as_xyz
  1  'x, y, z'
loop_
 _atom_site_type_symbol
 _atom_site_label
 _atom_site_symmetry_multiplicity
 _atom_site_fract_x
 _atom_site_fract_y
 _atom_site_fract_z
 _atom_site_occupancy
 _atom_site_hle17_bader_spin_density
 _atom_site_hle17_ddec_charge
 _atom_site_hle17_ddec_spin_density
 _atom_site_hle17_ddec_sum_bond_order
 _atom_site_hle17_magmom
 _atom_site_hse06_10hf_bader_spin_density
 _atom_site_hse06_10hf_ddec_charge
 _atom_site_hse06_10hf_ddec_spin_density
 _atom_site_hse06_10hf_ddec_sum_bond_order
 _atom_site_hse06_10hf_magmom
 _atom_site_hse06_bader_spin_density
 _atom_site_hse06_ddec_charge
 _atom_site_hse06_ddec_spin_density
 _atom_site_hse06_ddec_sum_bond_order
 _atom_site_hse06_magmom
 _atom_site_pbe_bader_spin_density
 _atom_site_pbe_cm5_charge
 _atom_site_pbe_ddec_charge
 _atom_site_pbe_ddec_spin_density
 _atom_site_pbe_ddec_sum_bond_order
 _atom_site_pbe_magmom
Zn  Zn0  1  0.63479473  0.20695062  0.21482176  1  0  0.980812  0  1.876421  0  0  0.782598  0  2.356648  0  0  0.830681  0  2.302177  0  0  0.694955  0.749322  0  2.393513  0
Zn  Zn1  1  0.36520651  0.79305010  0.78517677  1  0  0.980842  0  1.876361  0  0  0.782627  0  2.356602  0  0  0.830705  0  2.302131  0  0  0.694979  0.74935  0  2.393464  0
H  H2  1  0.62146767  0.42500522  0.39741233  1  0  0.09491  0  0.967324  0  0  0.102202  0  1.031758  0  0  0.105804  0  1.027858  0  0  0.117973  0.099375  0  1.034876  0
H  H3  1  0.37852972  0.57499247  0.60258647  1  0  0.094971  0  0.96725  0  0  0.102247  0  1.031691  0  0  0.105849  0  1.027793  0  0  0.117994  0.099421  0  1.034808  0
H  H4  1  0.75737414  0.56203696  0.61087019  1  0  0.125509  0  0.916139  0  0  0.13905  0  0.964569  0  0  0.14263  0  0.963606  0  0  0.120455  0.13643  0  0.96554  0
H  H5  1  0.24262381  0.43796175  0.38912973  1  0  0.125521  0  0.916194  0  0  0.139053  0  0.964626  0  0  0.142636  0  0.963661  0  0  0.120442  0.136434  0  0.965596  0
H  H6  1  0.08968498  0.21637926  0.47512194  1  0  0.300014  0  0.940008  0  0  0.281567  0  1.008377  0  0  0.289477  0  1.002152  0  0  0.302828  0.276029  0  1.012753  0
H  H7  1  0.91031462  0.78362046  0.52487767  1  0  0.299973  0  0.940007  0  0  0.28153  0  1.00837  0  0  0.289439  0  1.002143  0  0  0.30282  0.275986  0  1.012747  0
H  H8  1  0.95296104  0.50799611  0.70837153  1  0  0.135224  0  0.95241  0  0  0.141785  0  1.014161  0  0  0.14654  0  1.008422  0  0  0.118861  0.138234  0  1.01827  0
H  H9  1  0.04703963  0.49200360  0.29162589  1  0  0.135211  0  0.952411  0  0  0.1418  0  1.014137  0  0  0.146553  0  1.008399  0  0  0.118853  0.138248  0  1.018247  0
H  H10  1  0.07828776  0.21962880  0.74474381  1  0  0.289975  0  0.952756  0  0  0.270463  0  1.022566  0  0  0.278479  0  1.01648  0  0  0.30269  0.264901  0  1.026641  0
H  H11  1  0.92171291  0.78037091  0.25525514  1  0  0.289965  0  0.952769  0  0  0.270445  0  1.022585  0  0  0.278455  0  1.016501  0  0  0.30268  0.264887  0  1.026664  0
H  H12  1  0.87547548  0.20513280  0.38201625  1  0  0.096822  0  0.951296  0  0  0.102989  0  1.0197  0  0  0.106517  0  1.016088  0  0  0.124244  0.100292  0  1.022432  0
H  H13  1  0.12452464  0.79486592  0.61798388  1  0  0.096846  0  0.951285  0  0  0.103007  0  1.019697  0  0  0.106533  0  1.016086  0  0  0.124242  0.100309  0  1.022431  0
H  H14  1  0.31879510  0.33567341  0.70395091  1  0  0.06199  0  0.920439  0  0  0.07325  0  0.982273  0  0  0.073336  0  0.983089  0  0  0.115327  0.073299  0  0.981647  0
H  H15  1  0.68120558  0.66432631  0.29604804  1  0  0.06201  0  0.920418  0  0  0.073248  0  0.982275  0  0  0.073329  0  0.9831  0  0  0.11532  0.073297  0  0.981648  0
H  H16  1  0.42497945  0.33710228  0.54260155  1  0  0.075877  0  0.930379  0  0  0.094285  0  0.989485  0  0  0.094593  0  0.990348  0  0  0.092704  0.09396  0  0.989118  0
H  H17  1  0.57502123  0.66289744  0.45739740  1  0  0.075835  0  0.930386  0  0  0.094206  0  0.989488  0  0  0.094506  0  0.99036  0  0  0.092682  0.093882  0  0.98912  0
H  H18  1  0.30713417  0.15992970  0.46870927  1  0  0.065421  0  0.967987  0  0  0.081117  0  1.034255  0  0  0.081647  0  1.034941  0  0  0.087421  0.080729  0  1.033705  0
H  H19  1  0.69286429  0.84006799  0.53128811  1  0  0.065428  0  0.967973  0  0  0.081104  0  1.034212  0  0  0.081635  0  1.034899  0  0  0.087415  0.080718  0  1.033665  0
H  H20  1  0.58849108  0.21302071  0.55347799  1  0  0.056631  0  0.961309  0  0  0.073045  0  1.026208  0  0  0.072678  0  1.028814  0  0  0.082521  0.07313  0  1.024877  0
H  H21  1  0.41150739  0.78697699  0.44652092  1  0  0.056622  0  0.961301  0  0  0.07303  0  1.026221  0  0  0.072667  0  1.028828  0  0  0.082526  0.073116  0  1.024888  0
H  H22  1  0.59263986  0.31356307  0.68858912  1  0  0.066206  0  0.929331  0  0  0.087959  0  0.984327  0  0  0.087865  0  0.985724  0  0  0.090312  0.088051  0  0.983165  0
H  H23  1  0.40736077  0.68643465  0.31141000  1  0  0.06625  0  0.929262  0  0  0.088002  0  0.984268  0  0  0.08791  0  0.985667  0  0  0.090334  0.088093  0  0.983107  0
H  H24  1  0.54826131  0.09104815  0.68060987  1  0  0.060645  0  0.956716  0  0  0.077567  0  1.019595  0  0  0.077233  0  1.022241  0  0  0.083105  0.0772  0  1.018879  0
H  H25  1  0.45173881  0.90895057  0.31938949  1  0  0.060674  0  0.956742  0  0  0.077606  0  1.019597  0  0  0.077273  0  1.022241  0  0  0.083124  0.077238  0  1.01888  0
H  H26  1  0.37834142  0.00699221  0.55757000  1  0  0.052853  0  0.933793  0  0  0.073934  0  0.993019  0  0  0.074431  0  0.993618  0  0  0.082538  0.073761  0  0.992256  0
H  H27  1  0.62165704  0.99300549  0.44242814  1  0  0.052875  0  0.933806  0  0  0.073965  0  0.993018  0  0  0.074461  0  0.993618  0  0  0.082545  0.073791  0  0.992257  0
H  H28  1  0.40267155  0.20208559  0.79070511  1  0  0.07652  0  0.928853  0  0  0.095449  0  0.988353  0  0  0.095333  0  0.990475  0  0  0.091547  0.095455  0  0.987322  0
H  H29  1  0.59732805  0.79791413  0.20929527  1  0  0.076499  0  0.928851  0  0  0.095439  0  0.988354  0  0  0.095323  0  0.990477  0  0  0.091546  0.095444  0  0.987323  0
H  H30  1  0.28693126  0.02483747  0.73329863  1  0  0.090102  0  0.966197  0  0  0.100868  0  1.036329  0  0  0.102405  0  1.035952  0  0  0.090854  0.0999  0  1.03663  0
H  H31  1  0.71306780  0.97516324  0.26669969  1  0  0.090065  0  0.966241  0  0  0.100841  0  1.036377  0  0  0.102378  0  1.035999  0  0  0.090843  0.099874  0  1.036675  0
H  H32  1  0.12288813  0.02906600  0.56761907  1  0  0.041896  0  0.915812  0  0  0.05402  0  0.980784  0  0  0.054762  0  0.980129  0  0  0.105357  0.0538  0  0.981135  0
H  H33  1  0.87711146  0.97093371  0.43237977  1  0  0.041896  0  0.915828  0  0  0.053999  0  0.98081  0  0  0.054738  0  0.980158  0  0  0.105363  0.05378  0  0.98116  0
H  H34  1  0.67515175  0.83367401  0.71021199  1  0  0.093919  0  0.933273  0  0  0.100314  0  1.00103  0  0  0.103846  0  0.997015  0  0  0.123645  0.097715  0  1.003855  0
H  H35  1  0.32484619  0.16632467  0.28978487  1  0  0.093879  0  0.933387  0  0  0.100294  0  1.001104  0  0  0.103829  0  0.997091  0  0  0.12363  0.097696  0  1.003929  0
H  H36  1  0.79393610  0.28438453  0.97921172  1  0  0.121589  0  0.945188  0  0  0.13214  0  0.99929  0  0  0.135591  0  0.998122  0  0  0.117272  0.129707  0  1.000277  0
H  H37  1  0.20606132  0.71561517  0.02078614  1  0  0.121592  0  0.945158  0  0  0.132161  0  0.999247  0  0  0.135613  0  0.998077  0  0  0.117261  0.129727  0  1.000236  0
H  H38  1  0.52940348  0.08104191  0.92775001  1  0  0.098801  0  0.942795  0  0  0.104965  0  1.008649  0  0  0.108464  0  1.004837  0  0  0.12387  0.102196  0  1.01189  0
H  H39  1  0.47059612  0.91895782  0.07225037  1  0  0.098794  0  0.942798  0  0  0.104958  0  1.008658  0  0  0.108457  0  1.004847  0  0  0.123874  0.10219  0  1.011898  0
H  H40  1  0.99928902  0.26267370  0.87995170  1  0  0.108107  0  0.929899  0  0  0.122379  0  0.983152  0  0  0.1249  0  0.981257  0  0  0.119118  0.120453  0  0.98474  0
H  H41  1  0.00071444  0.73732907  0.12004993  1  0  0.108103  0  0.92984  0  0  0.122363  0  0.983111  0  0  0.124883  0  0.981217  0  0  0.119097  0.120436  0  0.9847  0
H  H42  1  0.72155472  0.43462029  0.01040243  1  0  0.096511  0  0.957929  0  0  0.107804  0  1.016184  0  0  0.111145  0  1.013911  0  0  0.103617  0.10554  0  1.017724  0
H  H43  1  0.27844713  0.56538348  0.98959935  1  0  0.096542  0  0.957887  0  0  0.107792  0  1.016189  0  0  0.111132  0  1.013917  0  0  0.103606  0.10553  0  1.017726  0
H  H44  1  0.68143547  0.54040936  0.87896012  1  0  0.102298  0  0.948514  0  0  0.113369  0  1.007534  0  0  0.117256  0  1.00462  0  0  0.106115  0.110425  0  1.010045  0
H  H45  1  0.31856304  0.45959035  0.12103862  1  0  0.10228  0  0.948529  0  0  0.113349  0  1.007553  0  0  0.117236  0  1.004639  0  0  0.10611  0.110405  0  1.010064  0
H  H46  1  0.72423602  0.88680586  0.01931531  1  0  0.100281  0  0.952764  0  0  0.109425  0  1.016485  0  0  0.11255  0  1.015062  0  0  0.100382  0.107072  0  1.017861  0
H  H47  1  0.27576367  0.11319790  0.98068702  1  0  0.100299  0  0.952733  0  0  0.109442  0  1.016454  0  0  0.11257  0  1.015028  0  0  0.100369  0.10709  0  1.017828  0
H  H48  1  0.82887035  0.75223290  0.88830776  1  0  0.097928  0  0.971466  0  0  0.104761  0  1.038829  0  0  0.108244  0  1.03647  0  0  0.099742  0.102114  0  1.040814  0
H  H49  1  0.17113148  0.24776887  0.11169572  1  0  0.097985  0  0.971471  0  0  0.104823  0  1.03882  0  0  0.108302  0  1.036467  0  0  0.099787  0.102177  0  1.040807  0
C  C50  1  0.70884265  0.40802030  0.44654309  1  0  0.121134  0  3.677978  0  0  0.084167  0  3.933568  0  0  0.092466  0  3.950676  0  0  0.048196  0.078863  0  3.922247  0
C  C51  1  0.29115531  0.59197841  0.55345759  1  0  0.121074  0  3.677974  0  0  0.08414  0  3.933542  0  0  0.092436  0  3.950648  0  0  0.048158  0.078836  0  3.92222  0
C  C52  1  0.78339737  0.48182564  0.56283526  1  0  -0.104477  0  3.706248  0  0  -0.117352  0  3.966131  0  0  -0.125639  0  3.986444  0  0  -0.072662  -0.112283  0  3.952586  0
C  C53  1  0.21660223  0.51817409  0.43716588  1  0  -0.10455  0  3.706323  0  0  -0.117425  0  3.966196  0  0  -0.125712  0  3.986502  0  0  -0.072639  -0.112357  0  3.952649  0
C  C54  1  0.89244833  0.45169204  0.61750787  1  0  0.010426  0  3.640352  0  0  -0.0239  0  3.890648  0  0  -0.016208  0  3.903896  0  0  -0.046888  -0.028515  0  3.881765  0
C  C55  1  0.10755070  0.54830667  0.38249138  1  0  0.010468  0  3.640374  0  0  -0.023881  0  3.89066  0  0  -0.016188  0  3.903911  0  0  -0.046877  -0.028495  0  3.881777  0
C  C56  1  0.92880598  0.35130899  0.55428504  1  0  -0.110193  0  3.749608  0  0  -0.082301  0  3.985414  0  0  -0.094672  0  4.009474  0  0  -0.008483  -0.075267  0  3.970782  0
C  C57  1  0.07119470  0.64869073  0.44571391  1  0  -0.110129  0  3.749615  0  0  -0.082254  0  3.985447  0  0  -0.094624  0  4.009512  0  0  -0.008496  -0.07522  0  3.970816  0
C  C58  1  0.85147341  0.28298061  0.43733054  1  0  0.11323  0  3.653767  0  0  0.06988  0  3.903566  0  0  0.079456  0  3.920109  0  0  0.055576  0.064238  0  3.892621  0
C  C59  1  0.14852618  0.71701910  0.56266830  1  0  0.113177  0  3.653789  0  0  0.069841  0  3.903592  0  0  0.079415  0  3.920131  0  0  0.055602  0.064193  0  3.89266  0
C  C60  1  0.04817458  0.32494796  0.61928447  1  0  0.536899  0  3.852909  0  0  0.48724  0  4.143095  0  0  0.516993  0  4.143679  0  0  0.237498  0.466899  0  4.142757  0
C  C61  1  0.95182609  0.67505177  0.38071524  1  0  0.536834  0  3.85294  0  0  0.487167  0  4.143134  0  0  0.516912  0  4.143731  0  0  0.23747  0.466818  0  4.142791  0
C  C62  1  0.25505482  0.24575639  0.62237413  1  0  0.128037  0  3.576223  0  0  0.1067  0  3.817553  0  0  0.111251  0  3.831775  0  0  0.013726  0.103782  0  3.807483  0
C  C63  1  0.74494477  0.75424333  0.37762472  1  0  0.128114  0  3.576235  0  0  0.106746  0  3.817538  0  0  0.111294  0  3.831754  0  0  0.013776  0.103819  0  3.807462  0
C  C64  1  0.37489791  0.24266383  0.55380526  1  0  -0.15287  0  3.665483  0  0  -0.196019  0  3.923509  0  0  -0.197224  0  3.937116  0  0  -0.163001  -0.194976  0  3.913616  0
C  C65  1  0.62510492  0.75733590  0.44619313  1  0  -0.152937  0  3.665644  0  0  -0.19594  0  3.923541  0  0  -0.197135  0  3.937136  0  0  -0.163009  -0.194902  0  3.913654  0
C  C66  1  0.51253808  0.22290029  0.60965091  1  0  -0.106848  0  3.698813  0  0  -0.144847  0  3.957738  0  0  -0.145844  0  3.973308  0  0  -0.170095  -0.143854  0  3.946587  0
C  C67  1  0.48746313  0.77709844  0.39034933  1  0  -0.106813  0  3.69884  0  0  -0.144861  0  3.957786  0  0  -0.145873  0  3.973367  0  0  -0.170129  -0.143869  0  3.946633  0
C  C68  1  0.44668944  0.09992602  0.63708475  1  0  -0.097947  0  3.700007  0  0  -0.136354  0  3.960815  0  0  -0.137268  0  3.975713  0  0  -0.169031  -0.135585  0  3.950697  0
C  C69  1  0.55330903  0.90007168  0.36291416  1  0  -0.098035  0  3.700009  0  0  -0.136436  0  3.96084  0  0  -0.137345  0  3.975737  0  0  -0.169024  -0.135668  0  3.950728  0
C  C70  1  0.33437384  0.11061405  0.71032463  1  0  -0.171935  0  3.656141  0  0  -0.21271  0  3.91134  0  0  -0.215229  0  3.925698  0  0  -0.170796  -0.210794  0  3.901511  0
C  C71  1  0.66562849  0.88938669  0.28967478  1  0  -0.171831  0  3.656099  0  0  -0.212647  0  3.911323  0  0  -0.215166  0  3.925684  0  0  -0.170791  -0.210731  0  3.901493  0
C  C72  1  0.19148415  0.12040157  0.64826075  1  0  0.14  0  3.593036  0  0  0.116233  0  3.838853  0  0  0.120676  0  3.852831  0  0  0.012316  0.113926  0  3.82878  0
C  C73  1  0.80851436  0.87959814  0.35173876  1  0  0.139941  0  3.593121  0  0  0.116216  0  3.838896  0  0  0.120654  0  3.852869  0  0  0.012287  0.113905  0  3.828832  0
C  C74  1  0.96347967  0.01935058  0.71884642  1  0  0.549868  0  3.856893  0  0  0.496938  0  4.151207  0  0  0.527055  0  4.150844  0  0  0.242543  0.476312  0  4.151458  0
C  C75  1  0.03651884  0.98064914  0.28115385  1  0  0.549754  0  3.856777  0  0  0.496846  0  4.15104  0  0  0.526953  0  4.150672  0  0  0.242519  0.47622  0  4.15129  0
C  C76  1  0.85013707  0.04569637  0.78299938  1  0  -0.106934  0  3.749749  0  0  -0.081098  0  3.987635  0  0  -0.093282  0  4.011911  0  0  -0.006487  -0.073836  0  3.972313  0
C  C77  1  0.14986088  0.95430233  0.21699901  1  0  -0.10689  0  3.74979  0  0  -0.081023  0  3.987615  0  0  -0.093208  0  4.011895  0  0  -0.006458  -0.07376  0  3.972286  0
C  C78  1  0.70267645  0.93596984  0.76525330  1  0  0.125845  0  3.669711  0  0  0.081917  0  3.921379  0  0  0.091321  0  3.938125  0  0  0.060729  0.076573  0  3.909913  0
C  C79  1  0.29732311  0.06402788  0.23474725  1  0  0.125831  0  3.669792  0  0  0.081881  0  3.921454  0  0  0.091281  0  3.938204  0  0  0.060704  0.076536  0  3.909988  0
C  C80  1  0.77000017  0.18809852  0.91470170  1  0  -0.106986  0  3.704818  0  0  -0.118872  0  3.958017  0  0  -0.127453  0  3.9784  0  0  -0.074228  -0.113872  0  3.945338  0
C  C81  1  0.23000103  0.81190021  0.08529930  1  0  -0.106983  0  3.704811  0  0  -0.118891  0  3.958009  0  0  -0.127473  0  3.978392  0  0  -0.074206  -0.113891  0  3.945331  0
C  C82  1  0.62368948  0.07454158  0.88916433  1  0  0.155777  0  3.637663  0  0  0.11883  0  3.893088  0  0  0.128487  0  3.908255  0  0  0.061081  0.112247  0  3.883528  0
C  C83  1  0.37630959  0.92545913  0.11083476  1  0  0.155816  0  3.637611  0  0  0.118854  0  3.893072  0  0  0.128512  0  3.908242  0  0  0.061083  0.112272  0  3.88351  0
C  C84  1  0.88398777  0.17417331  0.86024519  1  0  -0.000737  0  3.668575  0  0  -0.030721  0  3.913286  0  0  -0.023713  0  3.929405  0  0  -0.048382  -0.035151  0  3.903206  0
C  C85  1  0.11601346  0.82582741  0.13975181  1  0  -0.00073  0  3.668639  0  0  -0.030711  0  3.91335  0  0  -0.023702  0  3.929468  0  0  -0.048374  -0.03514  0  3.903266  0
C  C86  1  0.54220073  0.37241508  0.14872702  1  0  0.638827  0  3.924938  0  0  0.587223  0  4.22339  0  0  0.621371  0  4.215829  0  0  0.20075  0.564026  0  4.227728  0
C  C87  1  0.45779995  0.62758465  0.85127346  1  0  0.638773  0  3.924886  0  0  0.587165  0  4.223337  0  0  0.62131  0  4.215781  0  0  0.200711  0.563968  0  4.227676  0
C  C88  1  0.52167231  0.43949702  0.07267584  1  0  -0.049906  0  3.750915  0  0  -0.027947  0  3.985314  0  0  -0.033872  0  4.006965  0  0  -0.015322  -0.024203  0  3.970987  0
C  C89  1  0.47832343  0.56049966  0.92732327  1  0  -0.049901  0  3.750843  0  0  -0.027916  0  3.98519  0  0  -0.033838  0  4.00684  0  0  -0.015302  -0.024171  0  3.970863  0
C  C90  1  0.62409823  0.46286414  0.00471456  1  0  -0.07189  0  3.744849  0  0  -0.095758  0  3.995808  0  0  -0.095883  0  4.014919  0  0  -0.086257  -0.095625  0  3.982961  0
C  C91  1  0.37589972  0.53713456  0.99528459  1  0  -0.071907  0  3.744805  0  0  -0.09574  0  3.995737  0  0  -0.095866  0  4.014847  0  0  -0.086231  -0.09561  0  3.982891  0
C  C92  1  0.60250756  0.52234660  0.93229096  1  0  -0.091514  0  3.754766  0  0  -0.114476  0  4.005524  0  0  -0.115865  0  4.025661  0  0  -0.087586  -0.113491  0  3.992271  0
C  C93  1  0.39749203  0.47765313  0.06770942  1  0  -0.091486  0  3.754835  0  0  -0.11444  0  4.005585  0  0  -0.115827  0  4.025721  0  0  -0.087575  -0.113456  0  3.992333  0
C  C94  1  0.87836436  0.15833665  0.14515166  1  0  0.633819  0  3.940792  0  0  0.582126  0  4.236665  0  0  0.615954  0  4.229587  0  0  0.195005  0.559351  0  4.240241  0
C  C95  1  0.12163583  0.84166412  0.85485289  1  0  0.633936  0  3.940608  0  0  0.582152  0  4.236661  0  0  0.615976  0  4.229584  0  0  0.195008  0.559377  0  4.240238  0
C  C96  1  0.94190095  0.07506401  0.07232090  1  0  -0.062022  0  3.772954  0  0  -0.037236  0  3.999356  0  0  -0.044013  0  4.023061  0  0  -0.021047  -0.032666  0  3.982816  0
C  C97  1  0.05809871  0.92493775  0.92768237  1  0  -0.062009  0  3.772797  0  0  -0.037279  0  3.999352  0  0  -0.044054  0  4.023057  0  0  -0.021037  -0.03271  0  3.982812  0
C  C98  1  0.84506994  0.93525979  0.01058508  1  0  -0.076508  0  3.731936  0  0  -0.101239  0  3.983422  0  0  -0.102426  0  4.005056  0  0  -0.090519  -0.100544  0  3.968829  0
C  C99  1  0.15493191  0.06474398  0.98941670  1  0  -0.076474  0  3.731888  0  0  -0.101184  0  3.9834  0  0  -0.102372  0  4.005032  0  0  -0.09046  -0.10049  0  3.968808  0
C  C100  1  0.90285184  0.86063028  0.93829829  1  0  -0.082512  0  3.750858  0  0  -0.104655  0  4.000162  0  0  -0.106614  0  4.021963  0  0  -0.090235  -0.102918  0  3.985207  0
C  C101  1  0.09715161  0.13937052  0.06170888  1  0  -0.082635  0  3.750941  0  0  -0.104804  0  4.000229  0  0  -0.106762  0  4.022032  0  0  -0.090343  -0.103066  0  3.985271  0
N  N102  1  0.74217795  0.31002424  0.38538705  1  0  -0.331476  0  3.31844  0  0  -0.242403  0  3.603994  0  0  -0.262943  0  3.617158  0  0  -0.331887  -0.228826  0  3.594744  0
N  N103  1  0.25781891  0.68997445  0.61461200  1  0  -0.331465  0  3.318482  0  0  -0.242406  0  3.604029  0  0  -0.262936  0  3.617185  0  0  -0.331902  -0.228828  0  3.594778  0
N  N104  1  0.59046996  0.95048047  0.81520638  1  0  -0.334857  0  3.298536  0  0  -0.248764  0  3.580259  0  0  -0.269158  0  3.594274  0  0  -0.327163  -0.235099  0  3.570375  0
N  N105  1  0.40953019  0.04952025  0.18479281  1  0  -0.334877  0  3.298507  0  0  -0.248778  0  3.580236  0  0  -0.269179  0  3.594257  0  0  -0.327154  -0.235115  0  3.570351  0
N  N106  1  0.12312021  0.26002719  0.56237529  1  0  -0.461453  0  3.28906  0  0  -0.410994  0  3.543254  0  0  -0.433714  0  3.552824  0  0  -0.414427  -0.395305  0  3.536343  0
N  N107  1  0.87688047  0.73997253  0.43762365  1  0  -0.461429  0  3.289073  0  0  -0.410957  0  3.543247  0  0  -0.433671  0  3.552824  0  0  -0.414405  -0.395233  0  3.536306  0
N  N108  1  0.07876474  0.12791377  0.71396637  1  0  -0.456279  0  3.319495  0  0  -0.402486  0  3.569072  0  0  -0.425239  0  3.578941  0  0  -0.416078  -0.386055  0  3.561214  0
N  N109  1  0.92123377  0.87208595  0.28603389  1  0  -0.456267  0  3.319596  0  0  -0.402477  0  3.569146  0  0  -0.4252  0  3.578992  0  0  -0.416081  -0.386052  0  3.561289  0
O  O110  1  0.61623974  0.29979561  0.11931806  1  0  -0.641193  0  2.056532  0  0  -0.564959  0  2.335197  0  0  -0.594392  0  2.319904  0  0  -0.329477  -0.544439  0  2.345194  0
O  O111  1  0.38376203  0.70020412  0.88068253  1  0  -0.641179  0  2.056525  0  0  -0.56495  0  2.335183  0  0  -0.594381  0  2.319891  0  0  -0.329449  -0.544429  0  2.34518  0
O  O112  1  0.48777933  0.38632237  0.23201540  1  0  -0.621687  0  1.888887  0  0  -0.574268  0  2.108325  0  0  -0.596515  0  2.098283  0  0  -0.326707  -0.558419  0  2.114587  0
O  O113  1  0.51222079  0.61367636  0.76798550  1  0  -0.621643  0  1.888799  0  0  -0.574229  0  2.108251  0  0  -0.596476  0  2.098212  0  0  -0.3267  -0.55838  0  2.114512  0
O  O114  1  0.73288903  0.09080559  0.15074639  1  0  -0.669524  0  2.084691  0  0  -0.58941  0  2.361888  0  0  -0.618611  0  2.347505  0  0  -0.337703  -0.568798  0  2.370424  0
O  O115  1  0.26710896  0.90919513  0.84925413  1  0  -0.669634  0  2.0846  0  0  -0.58945  0  2.361777  0  0  -0.61867  0  2.347445  0  0  -0.337748  -0.568839  0  2.370314  0
O  O116  1  0.95949889  0.28386478  0.19285948  1  0  -0.608685  0  1.930315  0  0  -0.563222  0  2.157747  0  0  -0.586256  0  2.148647  0  0  -0.319338  -0.546658  0  2.163317  0
O  O117  1  0.04050999  0.71613606  0.80714898  1  0  -0.608693  0  1.930304  0  0  -0.563183  0  2.157749  0  0  -0.586211  0  2.148649  0  0  -0.319299  -0.546619  0  2.163319  0
O  O118  1  0.07623300  0.36575361  0.72463564  1  0  -0.553226  0  1.924999  0  0  -0.511984  0  2.144143  0  0  -0.533635  0  2.138307  0  0  -0.300766  -0.497234  0  2.147819  0
O  O119  1  0.92376824  0.63424712  0.27536442  1  0  -0.553189  0  1.924982  0  0  -0.511941  0  2.144133  0  0  -0.533588  0  2.138304  0  0  -0.300749  -0.497195  0  2.147812  0
O  O120  1  0.94585839  0.90209899  0.67115336  1  0  -0.573069  0  1.960758  0  0  -0.524604  0  2.191185  0  0  -0.545774  0  2.183738  0  0  -0.300333  -0.51091  0  2.196338  0
O  O121  1  0.05414012  0.09790072  0.32884537  1  0  -0.572965  0  1.960572  0  0  -0.524513  0  2.190978  0  0  -0.545689  0  2.183541  0  0  -0.300293  -0.51082  0  2.196132  0
