# generated using pymatgen
data_ZnH12(C4N3)2
_symmetry_space_group_name_H-M   'P 1'
_cell_length_a   9.44081264
_cell_length_b   9.44081655
_cell_length_c   12.96197154
_cell_angle_alpha   90.00003719
_cell_angle_beta   90.00002551
_cell_angle_gamma   90.03484753
_symmetry_Int_Tables_number   1
_chemical_formula_structural   ZnH12(C4N3)2
_chemical_formula_sum   'Zn4 H48 C32 N24'
_cell_volume   1155.28709017
_cell_formula_units_Z   4
loop_
 _symmetry_equiv_pos_site_id
 _symmetry_equiv_pos_as_xyz
  1  'x, y, z'
loop_
 _atom_site_type_symbol
 _atom_site_label
 _atom_site_symmetry_multiplicity
 _atom_site_fract_x
 _atom_site_fract_y
 _atom_site_fract_z
 _atom_site_occupancy
 _atom_site_pbe_bader_spin_density
 _atom_site_pbe_cm5_charge
 _atom_site_pbe_ddec_charge
 _atom_site_pbe_ddec_spin_density
 _atom_site_pbe_ddec_sum_bond_order
 _atom_site_pbe_magmom
Zn  Zn0  1  0.33663155  0.66336929  0.24999999  1  0  0.73446  0.630978  0  2.566092  0
Zn  Zn1  1  0.66336863  0.33662955  0.74999952  1  0  0.734452  0.630989  0  2.566079  0
Zn  Zn2  1  0.83666764  0.83666835  0.00000033  1  0  0.733627  0.630876  0  2.562327  0
Zn  Zn3  1  0.16333133  0.16333133  0.49999962  1  0  0.733619  0.630855  0  2.562326  0
H  H4  1  0.31311754  0.99374145  0.32008045  1  0  0.129465  0.093946  0  1.055487  0
H  H5  1  0.68688268  0.00625851  0.82007983  1  0  0.129454  0.093936  0  1.055508  0
H  H6  1  0.50633304  0.81330087  0.07034142  1  0  0.129391  0.093675  0  1.055859  0
H  H7  1  0.49366808  0.18670099  0.57033929  1  0  0.129376  0.093644  0  1.055866  0
H  H8  1  0.18670200  0.49366896  0.42966086  1  0  0.129393  0.093661  0  1.055879  0
H  H9  1  0.81329828  0.50633005  0.92966052  1  0  0.129385  0.093649  0  1.05588  0
H  H10  1  0.99374193  0.31311762  0.67991995  1  0  0.129459  0.093933  0  1.055507  0
H  H11  1  0.00625821  0.68688328  0.17991955  1  0  0.129452  0.093925  0  1.055502  0
H  H12  1  0.13762170  0.89124159  0.66625382  1  0  0.098927  0.101294  0  0.991491  0
H  H13  1  0.86237842  0.10875824  0.16625419  1  0  0.098921  0.101293  0  0.99151  0
H  H14  1  0.60846896  0.63739285  0.41644230  1  0  0.098638  0.100904  0  0.991368  0
H  H15  1  0.39153132  0.36260615  0.91644253  1  0  0.098626  0.10088  0  0.991384  0
H  H16  1  0.36260591  0.39153198  0.08355611  1  0  0.098641  0.100911  0  0.991359  0
H  H17  1  0.63739416  0.60846884  0.58355731  1  0  0.098622  0.100887  0  0.991362  0
H  H18  1  0.89124070  0.13762371  0.33374570  1  0  0.098906  0.101279  0  0.991551  0
H  H19  1  0.10875847  0.86237733  0.83374530  1  0  0.098923  0.101307  0  0.991509  0
H  H20  1  0.97820237  0.89277779  0.59736937  1  0  0.099235  0.104526  0  0.97515  0
H  H21  1  0.02179665  0.10722198  0.09736870  1  0  0.099258  0.104551  0  0.975134  0
H  H22  1  0.60703711  0.47800997  0.34752219  1  0  0.098995  0.10443  0  0.974777  0
H  H23  1  0.39296418  0.52198790  0.84752249  1  0  0.098987  0.104417  0  0.974747  0
H  H24  1  0.52198778  0.39296383  0.15247698  1  0  0.098986  0.104445  0  0.974732  0
H  H25  1  0.47801127  0.60703599  0.65247735  1  0  0.098991  0.104435  0  0.974734  0
H  H26  1  0.89277801  0.97820408  0.40263048  1  0  0.09926  0.104547  0  0.97515  0
H  H27  1  0.10722120  0.02179596  0.90263046  1  0  0.099266  0.104562  0  0.975147  0
H  H28  1  0.98338167  0.68603352  0.71617455  1  0  0.08338  0.111438  0  1.036736  0
H  H29  1  0.01661849  0.31396530  0.21617475  1  0  0.08336  0.11143  0  1.036747  0
H  H30  1  0.81396065  0.48354917  0.46630354  1  0  0.08336  0.11126  0  1.036726  0
H  H31  1  0.18604072  0.51644986  0.96630300  1  0  0.083352  0.111254  0  1.036715  0
H  H32  1  0.51644966  0.18604036  0.03369716  1  0  0.083358  0.111261  0  1.036708  0
H  H33  1  0.48355039  0.81395935  0.53369763  1  0  0.083353  0.111256  0  1.03672  0
H  H34  1  0.68603357  0.98338329  0.28382522  1  0  0.083374  0.111441  0  1.036724  0
H  H35  1  0.31396557  0.01661665  0.78382526  1  0  0.083371  0.111431  0  1.036722  0
H  H36  1  0.14216438  0.62183405  0.65807136  1  0  0.085986  0.116095  0  1.012986  0
H  H37  1  0.85783574  0.37816577  0.15807186  1  0  0.085983  0.116093  0  1.012987  0
H  H38  1  0.87787423  0.64249234  0.40812648  1  0  0.086038  0.115991  0  1.01268  0
H  H39  1  0.12212604  0.35750664  0.90812662  1  0  0.086046  0.115994  0  1.012644  0
H  H40  1  0.35750641  0.12212575  0.09187346  1  0  0.086044  0.115991  0  1.012637  0
H  H41  1  0.64249367  0.87787401  0.59187401  1  0  0.086041  0.115983  0  1.012648  0
H  H42  1  0.62183412  0.14216639  0.34192806  1  0  0.085975  0.116087  0  1.012971  0
H  H43  1  0.37816505  0.85783360  0.84192774  1  0  0.085968  0.116072  0  1.01301  0
H  H44  1  0.98253763  0.62402903  0.58692028  1  0  0.086319  0.115256  0  1.022322  0
H  H45  1  0.01746244  0.37597073  0.08691974  1  0  0.086322  0.115259  0  1.022315  0
H  H46  1  0.87573157  0.48288046  0.33697909  1  0  0.086274  0.115144  0  1.021835  0
H  H47  1  0.12426972  0.51711846  0.83697930  1  0  0.086283  0.115152  0  1.021848  0
H  H48  1  0.51711835  0.12426948  0.16302084  1  0  0.086282  0.115145  0  1.021853  0
H  H49  1  0.48288177  0.87573034  0.66302134  1  0  0.086277  0.115143  0  1.021851  0
H  H50  1  0.62402915  0.98253935  0.41308024  1  0  0.086325  0.115265  0  1.022306  0
H  H51  1  0.37597112  0.01746070  0.91307953  1  0  0.086331  0.115263  0  1.022304  0
C  C52  1  0.15907089  0.83837125  0.50868133  1  0  0.206382  0.304582  0  4.013586  0
C  C53  1  0.84092808  0.16162843  0.00868250  1  0  0.206393  0.30459  0  4.013574  0
C  C54  1  0.66149530  0.65905639  0.25886135  1  0  0.206299  0.304625  0  4.013304  0
C  C55  1  0.33850594  0.34094352  0.75886077  1  0  0.206284  0.304585  0  4.013323  0
C  C56  1  0.34094233  0.33850674  0.24113861  1  0  0.20628  0.304616  0  4.013376  0
C  C57  1  0.65905678  0.66149422  0.74113906  1  0  0.206301  0.304617  0  4.013357  0
C  C58  1  0.83837152  0.15907301  0.49131818  1  0  0.206446  0.304645  0  4.013571  0
C  C59  1  0.16162774  0.84092711  0.99131778  1  0  0.206417  0.304622  0  4.013581  0
C  C60  1  0.26903437  0.92019100  0.37623624  1  0  0.13186  0.132362  0  4.001076  0
C  C61  1  0.73096589  0.07980902  0.87623644  1  0  0.131856  0.132346  0  4.001117  0
C  C62  1  0.57986521  0.76914170  0.12644786  1  0  0.132048  0.132279  0  4.001925  0
C  C63  1  0.42013489  0.23086022  0.62644572  1  0  0.132069  0.132325  0  4.001871  0
C  C64  1  0.23086015  0.42013575  0.37355365  1  0  0.132059  0.132328  0  4.001884  0
C  C65  1  0.76913905  0.57986320  0.87355410  1  0  0.132041  0.132311  0  4.001822  0
C  C66  1  0.92019140  0.26903442  0.62376335  1  0  0.131866  0.13236  0  4.001052  0
C  C67  1  0.07980976  0.73096537  0.12376377  1  0  0.131887  0.1324  0  4.001029  0
C  C68  1  0.07735585  0.83256729  0.60726277  1  0  -0.15231  -0.184357  0  3.986643  0
C  C69  1  0.92264318  0.16743355  0.10726319  1  0  -0.152333  -0.184396  0  3.986691  0
C  C70  1  0.66720090  0.57727181  0.35743275  1  0  -0.151881  -0.184013  0  3.984919  0
C  C71  1  0.33280040  0.42272607  0.85743222  1  0  -0.151849  -0.183935  0  3.984858  0
C  C72  1  0.42272590  0.33280007  0.14256796  1  0  -0.151883  -0.184053  0  3.984923  0
C  C73  1  0.57727315  0.66719974  0.64256762  1  0  -0.151885  -0.184016  0  3.98485  0
C  C74  1  0.83256642  0.07735792  0.39273670  1  0  -0.152348  -0.18442  0  3.986775  0
C  C75  1  0.16743278  0.92264211  0.89273712  1  0  -0.152362  -0.184465  0  3.986735  0
C  C76  1  0.04482681  0.68256720  0.64432499  1  0  -0.24544  -0.345467  0  3.958569  0
C  C77  1  0.95517330  0.31743261  0.14432550  1  0  -0.245423  -0.345456  0  3.958585  0
C  C78  1  0.81723433  0.54501093  0.39445183  1  0  -0.245396  -0.345003  0  3.957849  0
C  C79  1  0.18276699  0.45498805  0.89445126  1  0  -0.245402  -0.345012  0  3.957789  0
C  C80  1  0.45498787  0.18276669  0.10554887  1  0  -0.245409  -0.344996  0  3.957805  0
C  C81  1  0.54501222  0.81723414  0.60554859  1  0  -0.245386  -0.344974  0  3.957772  0
C  C82  1  0.68256624  0.04482781  0.35567441  1  0  -0.245426  -0.345464  0  3.958551  0
C  C83  1  0.31743294  0.95517113  0.85567412  1  0  -0.245427  -0.345428  0  3.958577  0
N  N84  1  0.27179533  0.77939362  0.37048168  1  0  -0.275001  -0.210075  0  3.610789  0
N  N85  1  0.72820386  0.22060639  0.87048195  1  0  -0.274975  -0.210036  0  3.610809  0
N  N86  1  0.72066851  0.77177645  0.12063550  1  0  -0.274526  -0.2097  0  3.609276  0
N  N87  1  0.27933158  0.22822440  0.62063408  1  0  -0.274481  -0.209648  0  3.609179  0
N  N88  1  0.22822433  0.27933251  0.37936523  1  0  -0.274467  -0.209647  0  3.609224  0
N  N89  1  0.77177592  0.72066645  0.87936575  1  0  -0.274454  -0.209621  0  3.609142  0
N  N90  1  0.77939397  0.27179645  0.62951785  1  0  -0.274966  -0.210026  0  3.610803  0
N  N91  1  0.22060613  0.72820441  0.12951831  1  0  -0.274973  -0.210037  0  3.610823  0
N  N92  1  0.20121631  0.72592449  0.45529360  1  0  -0.241864  -0.279829  0  3.178394  0
N  N93  1  0.79878293  0.27407560  0.95529391  1  0  -0.241885  -0.279859  0  3.178422  0
N  N94  1  0.77401534  0.70111450  0.20543972  1  0  -0.242057  -0.280566  0  3.178646  0
N  N95  1  0.22598481  0.29888642  0.70543909  1  0  -0.242095  -0.280606  0  3.178563  0
N  N96  1  0.29888526  0.22598569  0.29456023  1  0  -0.242066  -0.280584  0  3.178638  0
N  N97  1  0.70111388  0.77401425  0.79456152  1  0  -0.242078  -0.280594  0  3.178565  0
N  N98  1  0.72592475  0.20121739  0.54470588  1  0  -0.241925  -0.279906  0  3.1785  0
N  N99  1  0.27407530  0.79878233  0.04470562  1  0  -0.241907  -0.279887  0  3.178482  0
N  N100  1  0.19943356  0.96256133  0.46194773  1  0  -0.374054  -0.375209  0  3.554978  0
N  N101  1  0.80056674  0.03743770  0.96194794  1  0  -0.374049  -0.375192  0  3.554941  0
N  N102  1  0.53739434  0.69956068  0.21215393  1  0  -0.374108  -0.3745  0  3.556435  0
N  N103  1  0.46260581  0.30044025  0.71215261  1  0  -0.37411  -0.374518  0  3.556396  0
N  N104  1  0.30044014  0.46260659  0.28784680  1  0  -0.374135  -0.374555  0  3.556441  0
N  N105  1  0.69955900  0.53739334  0.78784644  1  0  -0.374117  -0.374551  0  3.55644  0
N  N106  1  0.96256275  0.19943464  0.53805184  1  0  -0.374077  -0.375202  0  3.554872  0
N  N107  1  0.03743836  0.80056507  0.03805151  1  0  -0.37407  -0.375226  0  3.554895  0
