# generated using pymatgen
data_CuH5C5BrN3
_symmetry_space_group_name_H-M   'P 1'
_cell_length_a   19.44028716
_cell_length_b   19.44018737
_cell_length_c   19.44008247
_cell_angle_alpha   109.47136477
_cell_angle_beta   109.47124722
_cell_angle_gamma   109.47158959
_symmetry_Int_Tables_number   1
_chemical_formula_structural   CuH5C5BrN3
_chemical_formula_sum   'Cu24 H120 C120 Br24 N72'
_cell_volume   5655.57077648
_cell_formula_units_Z   24
loop_
 _symmetry_equiv_pos_site_id
 _symmetry_equiv_pos_as_xyz
  1  'x, y, z'
loop_
 _atom_site_type_symbol
 _atom_site_label
 _atom_site_symmetry_multiplicity
 _atom_site_fract_x
 _atom_site_fract_y
 _atom_site_fract_z
 _atom_site_occupancy
 _atom_site_pbe_bader_charge
 _atom_site_pbe_bader_spin_density
 _atom_site_pbe_cm5_charge
 _atom_site_pbe_ddec_charge
 _atom_site_pbe_ddec_spin_density
 _atom_site_pbe_ddec_sum_bond_order
 _atom_site_pbe_magmom
Cu  Cu0  1  0.61831790  0.78719352  0.23291918  1  0.467749  0  0.274978  0.187154  0  2.683655  0
Cu  Cu1  1  0.94572787  0.71280948  0.83112701  1  0.467091  0  0.275002  0.187213  0  2.683877  0
Cu  Cu2  1  0.55426235  0.88538969  0.26706482  1  0.468483  0  0.274983  0.187136  0  2.683839  0
Cu  Cu3  1  0.88168162  0.61460218  0.66887437  1  0.470291  0  0.27502  0.187226  0  2.683732  0
Cu  Cu4  1  0.21279892  0.83112554  0.44573732  1  0.467124  0  0.275006  0.187166  0  2.683911  0
Cu  Cu5  1  0.28720733  0.23294734  0.11832958  1  0.466606  0  0.274989  0.187151  0  2.683856  0
Cu  Cu6  1  0.11459932  0.66886952  0.38167863  1  0.470244  0  0.274988  0.187154  0  2.683918  0
Cu  Cu7  1  0.38540748  0.26708279  0.05427791  1  0.469285  0  0.275011  0.18725  0  2.68394  0
Cu  Cu8  1  0.16887611  0.38167660  0.61460520  1  0.470412  0  0.274972  0.187122  0  2.684032  0
Cu  Cu9  1  0.76707346  0.05426392  0.88539034  1  0.468547  0  0.274996  0.187153  0  2.683998  0
Cu  Cu10  1  0.33112570  0.44572712  0.71280401  1  0.467163  0  0.27497  0.187125  0  2.683954  0
Cu  Cu11  1  0.73291117  0.11831408  0.78718236  1  0.467489  0  0.275034  0.187192  0  2.683941  0
Cu  Cu12  1  0.83112574  0.21280690  0.94572851  1  0.467085  0  0.274986  0.187138  0  2.684033  0
Cu  Cu13  1  0.23292238  0.28718502  0.61832032  1  0.467416  0  0.27498  0.187111  0  2.684049  0
Cu  Cu14  1  0.66887506  0.11460538  0.88168318  1  0.470386  0  0.274978  0.187142  0  2.683964  0
Cu  Cu15  1  0.26707508  0.38539057  0.55426433  1  0.468553  0  0.275035  0.187192  0  2.68394  0
Cu  Cu16  1  0.38169458  0.16888655  0.11462612  1  0.469636  0  0.274995  0.187165  0  2.683927  0
Cu  Cu17  1  0.05426513  0.76707064  0.38539534  1  0.469235  0  0.274975  0.187124  0  2.684025  0
Cu  Cu18  1  0.44573222  0.33113506  0.21281249  1  0.467856  0  0.275  0.187093  0  2.684206  0
Cu  Cu19  1  0.11831323  0.73293260  0.28719466  1  0.466718  0  0.275012  0.187182  0  2.683859  0
Cu  Cu20  1  0.78718968  0.61830657  0.73292015  1  0.46672  0  0.275  0.187216  0  2.683678  0
Cu  Cu21  1  0.71280560  0.94573010  0.33111182  1  0.466999  0  0.275008  0.187231  0  2.683579  0
Cu  Cu22  1  0.88539199  0.55425768  0.76707802  1  0.469289  0  0.275086  0.187216  0  2.684042  0
Cu  Cu23  1  0.61460345  0.88168072  0.16885563  1  0.470373  0  0.275029  0.187098  0  2.684123  0
H  H24  1  0.51808307  0.72036748  0.30536241  1  0.098621  0  0.119219  0.06974  0  1.002859  0
H  H25  1  0.08499023  0.77962454  0.79771609  1  0.135281  0  0.11923  0.069725  0  1.002895  0
H  H26  1  0.41500212  0.71271904  0.19462893  1  0.100769  0  0.119246  0.069801  0  1.002833  0
H  H27  1  0.98191430  0.78728164  0.70228341  1  0.094527  0  0.119242  0.069776  0  1.002956  0
H  H28  1  0.27962874  0.79771417  0.58499546  1  0.135686  0  0.119226  0.06974  0  1.00291  0
H  H29  1  0.22036623  0.30536852  0.01808634  1  0.098893  0  0.119249  0.069815  0  1.002897  0
H  H30  1  0.28727627  0.70228253  0.48191707  1  0.094546  0  0.119253  0.069756  0  1.002945  0
H  H31  1  0.21273013  0.19463837  0.91501549  1  0.101163  0  0.119221  0.069708  0  1.002989  0
H  H32  1  0.20228186  0.48191608  0.78727431  1  0.09455  0  0.119247  0.069716  0  1.002956  0
H  H33  1  0.69463853  0.91500470  0.71272020  1  0.100416  0  0.119231  0.069733  0  1.002864  0
H  H34  1  0.29771849  0.58499113  0.77963018  1  0.135744  0  0.119241  0.069702  0  1.003009  0
H  H35  1  0.80535679  0.01808393  0.72036209  1  0.098312  0  0.119271  0.069738  0  1.003009  0
H  H36  1  0.79771544  0.27962681  0.08498994  1  0.135278  0  0.119258  0.06975  0  1.002945  0
H  H37  1  0.30536115  0.22036964  0.51808916  1  0.098764  0  0.119228  0.069705  0  1.002911  0
H  H38  1  0.70228384  0.28727800  0.98191490  1  0.094557  0  0.119245  0.069757  0  1.002877  0
H  H39  1  0.19463615  0.21272289  0.41501070  1  0.100871  0  0.119197  0.069672  0  1.002853  0
H  H40  1  0.48191801  0.20228338  0.28728477  1  0.094486  0  0.119262  0.069824  0  1.003017  0
H  H41  1  0.91500293  0.69463293  0.21271946  1  0.100568  0  0.119228  0.069798  0  1.002882  0
H  H42  1  0.58498726  0.29771915  0.27962535  1  0.135336  0  0.119216  0.069719  0  1.00302  0
H  H43  1  0.01808149  0.80536159  0.22036648  1  0.098402  0  0.119225  0.069715  0  1.002835  0
H  H44  1  0.72037637  0.51809015  0.80536931  1  0.098704  0  0.119264  0.069783  0  1.002848  0
H  H45  1  0.77961883  0.08499163  0.29771085  1  0.135155  0  0.119226  0.069766  0  1.002926  0
H  H46  1  0.71272609  0.41501088  0.69463630  1  0.101032  0  0.119228  0.069753  0  1.002944  0
H  H47  1  0.78727850  0.98191682  0.20228859  1  0.094474  0  0.119248  0.069743  0  1.002856  0
H  H48  1  0.64763915  0.54663672  0.26781403  1  0.080581  0  0.116027  0.152496  0  0.988499  0
H  H49  1  0.22118633  0.95337384  0.10100979  1  0.113997  0  0.116021  0.152521  0  0.988449  0
H  H50  1  0.27881576  0.87982585  0.23218473  1  0.080785  0  0.116031  0.152535  0  0.988368  0
H  H51  1  0.85236071  0.62017401  0.39899628  1  0.114993  0  0.116013  0.152468  0  0.988565  0
H  H52  1  0.45336740  0.10100358  0.72117964  1  0.11409  0  0.116021  0.152458  0  0.988506  0
H  H53  1  0.04663353  0.26781404  0.14763882  1  0.080525  0  0.115999  0.152413  0  0.988531  0
H  H54  1  0.12017424  0.39898903  0.35235904  1  0.115018  0  0.116009  0.152453  0  0.988411  0
H  H55  1  0.37982130  0.23218023  0.77881481  1  0.080992  0  0.115965  0.152424  0  0.988477  0
H  H56  1  0.89899549  0.35236306  0.62017248  1  0.115058  0  0.116024  0.152491  0  0.988503  0
H  H57  1  0.73218761  0.77881851  0.87982666  1  0.08066  0  0.116009  0.152466  0  0.988466  0
H  H58  1  0.60100568  0.72118042  0.95336345  1  0.113954  0  0.115976  0.152459  0  0.988572  0
H  H59  1  0.76781753  0.14764034  0.54663003  1  0.080468  0  0.115993  0.152485  0  0.988441  0
H  H60  1  0.10100596  0.45336541  0.22118171  1  0.114081  0  0.116003  0.152491  0  0.988541  0
H  H61  1  0.26781523  0.04663246  0.64764064  1  0.080359  0  0.115997  0.152496  0  0.988514  0
H  H62  1  0.39899463  0.12017437  0.85236345  1  0.114976  0  0.116025  0.152515  0  0.98853  0
H  H63  1  0.23218634  0.37982411  0.27882067  1  0.080832  0  0.116042  0.152541  0  0.988495  0
H  H64  1  0.35236078  0.89899443  0.12017320  1  0.115047  0  0.115995  0.152409  0  0.988522  0
H  H65  1  0.77881269  0.73218405  0.37982502  1  0.080827  0  0.115999  0.152485  0  0.988331  0
H  H66  1  0.72118957  0.60101152  0.45337114  1  0.114084  0  0.115994  0.152477  0  0.988394  0
H  H67  1  0.14764203  0.76782039  0.04663700  1  0.080616  0  0.115983  0.152487  0  0.988487  0
H  H68  1  0.54663293  0.64763812  0.76781536  1  0.080536  0  0.116029  0.152509  0  0.98849  0
H  H69  1  0.95336762  0.22118539  0.60100652  1  0.114158  0  0.116007  0.15249  0  0.98847  0
H  H70  1  0.87982592  0.27881870  0.73218033  1  0.0812  0  0.115992  0.152466  0  0.988467  0
H  H71  1  0.62017663  0.85235944  0.89899121  1  0.114824  0  0.116007  0.152519  0  0.988442  0
H  H72  1  0.46049672  0.43936544  0.35128191  1  0.106374  0  0.090106  0.115254  0  1.051243  0
H  H73  1  0.41191419  0.06063525  0.02112171  1  0.133529  0  0.09017  0.115334  0  1.051299  0
H  H74  1  0.08808717  0.60920605  0.14872021  1  0.101877  0  0.090165  0.115334  0  1.051317  0
H  H75  1  0.03950558  0.89078319  0.47887020  1  0.098186  0  0.09014  0.115308  0  1.051179  0
H  H76  1  0.56063470  0.02112260  0.91191303  1  0.133587  0  0.090196  0.115338  0  1.051286  0
H  H77  1  0.93936919  0.35128000  0.96049107  1  0.106409  0  0.09015  0.115351  0  1.051347  0
H  H78  1  0.39078982  0.47888237  0.53951071  1  0.098187  0  0.090144  0.115292  0  1.05134  0
H  H79  1  0.10921444  0.14871972  0.58808725  1  0.102107  0  0.090108  0.115249  0  1.051372  0
H  H80  1  0.97887423  0.53950769  0.89078558  1  0.098213  0  0.090156  0.115293  0  1.05129  0
H  H81  1  0.64872314  0.58808691  0.60921346  1  0.101984  0  0.090184  0.115346  0  1.051233  0
H  H82  1  0.52112721  0.91191146  0.06063243  1  0.133638  0  0.090152  0.11534  0  1.051331  0
H  H83  1  0.85127958  0.96049315  0.43936602  1  0.10635  0  0.090169  0.115333  0  1.051286  0
H  H84  1  0.02112326  0.56063221  0.41191346  1  0.133632  0  0.090145  0.115283  0  1.051307  0
H  H85  1  0.35127649  0.93936752  0.46048626  1  0.106403  0  0.090144  0.115261  0  1.05136  0
H  H86  1  0.47887609  0.39078676  0.03950714  1  0.098206  0  0.090179  0.115351  0  1.051345  0
H  H87  1  0.14872360  0.10920869  0.08808768  1  0.101884  0  0.090169  0.115338  0  1.051274  0
H  H88  1  0.53950372  0.97887502  0.39078591  1  0.098287  0  0.090139  0.115289  0  1.051323  0
H  H89  1  0.58808362  0.64872301  0.10920764  1  0.101724  0  0.090172  0.115304  0  1.051364  0
H  H90  1  0.91191542  0.52112982  0.56064172  1  0.133534  0  0.090164  0.115318  0  1.051316  0
H  H91  1  0.96049992  0.85128438  0.93937074  1  0.106453  0  0.090116  0.115269  0  1.051309  0
H  H92  1  0.43936414  0.46048982  0.85128146  1  0.106297  0  0.090162  0.115294  0  1.05135  0
H  H93  1  0.06063586  0.41191947  0.52112369  1  0.133556  0  0.090166  0.115301  0  1.05132  0
H  H94  1  0.60921097  0.08808652  0.64871817  1  0.102094  0  0.090152  0.115316  0  1.051323  0
H  H95  1  0.89079158  0.03951272  0.97887895  1  0.09802  0  0.090169  0.115319  0  1.051285  0
H  H96  1  0.52544966  0.54215611  0.44361008  1  0.022259  0  0.099518  0.112768  0  1.006139  0
H  H97  1  0.40144884  0.95785129  0.98329182  1  0.02901  0  0.099531  0.112796  0  1.006031  0
H  H98  1  0.09855009  0.58183979  0.05639952  1  0.075328  0  0.099517  0.112779  0  1.006147  0
H  H99  1  0.97455147  0.91815521  0.51670489  1  0.027579  0  0.099527  0.112795  0  1.005982  0
H  H100  1  0.45784916  0.98328613  0.90144982  1  0.029131  0  0.099522  0.11279  0  1.006106  0
H  H101  1  0.04215549  0.44359987  0.02544518  1  0.022148  0  0.099529  0.112816  0  1.0061  0
H  H102  1  0.41815476  0.51670965  0.47455673  1  0.026685  0  0.099514  0.112789  0  1.006077  0
H  H103  1  0.08183892  0.05639545  0.59854884  1  0.075262  0  0.099531  0.112764  0  1.006127  0
H  H104  1  0.01670604  0.47455418  0.91815564  1  0.027196  0  0.099525  0.112798  0  1.006026  0
H  H105  1  0.55640119  0.59855021  0.58184475  1  0.075388  0  0.099506  0.112775  0  1.006046  0
H  H106  1  0.48329405  0.90144781  0.95784649  1  0.028899  0  0.099562  0.11284  0  1.006014  0
H  H107  1  0.94359974  0.02544773  0.54214899  1  0.022122  0  0.099525  0.112819  0  1.006117  0
H  H108  1  0.98328902  0.45784765  0.40144811  1  0.029224  0  0.099498  0.112755  0  1.006086  0
H  H109  1  0.44359750  0.04215081  0.52544445  1  0.022191  0  0.099519  0.112809  0  1.006098  0
H  H110  1  0.51670974  0.41815800  0.97455782  1  0.026766  0  0.099513  0.112782  0  1.006086  0
H  H111  1  0.05640142  0.08184262  0.09855303  1  0.075004  0  0.099525  0.112833  0  1.006086  0
H  H112  1  0.47455229  0.01670575  0.41815284  1  0.027534  0  0.099554  0.11283  0  1.006126  0
H  H113  1  0.59855093  0.55640348  0.08184327  1  0.075301  0  0.099559  0.112839  0  1.006241  0
H  H114  1  0.90144911  0.48329432  0.45785408  1  0.029114  0  0.099513  0.112819  0  1.006093  0
H  H115  1  0.02545008  0.94360621  0.04215750  1  0.022301  0  0.099554  0.112815  0  1.006194  0
H  H116  1  0.54215211  0.52544200  0.94360211  1  0.022112  0  0.09951  0.112773  0  1.006236  0
H  H117  1  0.95784906  0.40145073  0.48328887  1  0.028993  0  0.099541  0.112822  0  1.006197  0
H  H118  1  0.58184470  0.09855388  0.55639784  1  0.075139  0  0.09954  0.11282  0  1.00621  0
H  H119  1  0.91815766  0.97455968  0.01671104  1  0.026813  0  0.099539  0.112838  0  1.006046  0
H  H120  1  0.45088741  0.52695170  0.34798098  1  0.106334  0  0.111491  0.134069  0  1.002862  0
H  H121  1  0.32102752  0.97305203  0.92393407  1  0.120365  0  0.111506  0.134046  0  1.003065  0
H  H122  1  0.17897269  0.60291021  0.15202438  1  0.120527  0  0.111492  0.134041  0  1.003055  0
H  H123  1  0.04911188  0.89708890  0.57606408  1  0.115765  0  0.111491  0.134032  0  1.002924  0
H  H124  1  0.47305292  0.92393280  0.82102454  1  0.120321  0  0.111535  0.134124  0  1.003061  0
H  H125  1  0.02694831  0.34797373  0.95088386  1  0.106447  0  0.111496  0.134083  0  1.003056  0
H  H126  1  0.39708897  0.57606693  0.54911489  1  0.115721  0  0.111515  0.134046  0  1.003053  0
H  H127  1  0.10290790  0.15202454  0.67897452  1  0.120495  0  0.111498  0.134049  0  1.002899  0
H  H128  1  0.07606496  0.54911673  0.89708984  1  0.115805  0  0.111484  0.134025  0  1.002938  0
H  H129  1  0.65202747  0.67897355  0.60291110  1  0.120551  0  0.111479  0.134004  0  1.002987  0
H  H130  1  0.42393865  0.82102534  0.97305093  1  0.120509  0  0.111495  0.134055  0  1.002961  0
H  H131  1  0.84797713  0.95088755  0.52694788  1  0.106383  0  0.111488  0.134045  0  1.002906  0
H  H132  1  0.92393529  0.47304799  0.32102539  1  0.120435  0  0.11151  0.134074  0  1.003052  0
H  H133  1  0.34797559  0.02695158  0.45088613  1  0.106441  0  0.111509  0.134066  0  1.003069  0
H  H134  1  0.57606450  0.39709066  0.04911558  1  0.11578  0  0.111499  0.13406  0  1.003057  0
H  H135  1  0.15202459  0.10290844  0.17897515  1  0.120438  0  0.111511  0.134099  0  1.003032  0
H  H136  1  0.54911015  0.07606326  0.39708627  1  0.115827  0  0.111511  0.134055  0  1.003012  0
H  H137  1  0.67897019  0.65202819  0.10290671  1  0.120686  0  0.111511  0.134053  0  1.002982  0
H  H138  1  0.82103129  0.42393905  0.47306242  1  0.120452  0  0.111521  0.134061  0  1.003051  0
H  H139  1  0.95089175  0.84798051  0.02695450  1  0.106247  0  0.11148  0.134057  0  1.003006  0
H  H140  1  0.52694274  0.45088013  0.84797489  1  0.105849  0  0.111494  0.134002  0  1.003041  0
H  H141  1  0.97305598  0.32103517  0.42393491  1  0.12045  0  0.111506  0.134053  0  1.003029  0
H  H142  1  0.60291088  0.17897506  0.65202336  1  0.120504  0  0.111503  0.134068  0  1.003028  0
H  H143  1  0.89709075  0.04911543  0.07606839  1  0.115683  0  0.111505  0.13405  0  1.003065  0
C  C144  1  0.54684387  0.68090268  0.29725311  1  1.105925  0  0.175777  0.268062  0  3.984028  0
C  C145  1  0.11635159  0.81909394  0.86594139  1  1.077413  0  0.175861  0.268232  0  3.984185  0
C  C146  1  0.38364671  0.74958546  0.20273990  1  1.091443  0  0.17581  0.26808  0  3.984214  0
C  C147  1  0.95315828  0.75041569  0.63406380  1  1.118204  0  0.175809  0.268141  0  3.983714  0
C  C148  1  0.31909233  0.86593724  0.61635229  1  1.077214  0  0.175807  0.26813  0  3.984025  0
C  C149  1  0.18090472  0.29725734  0.04684095  1  1.1053  0  0.175775  0.268017  0  3.984019  0
C  C150  1  0.25041008  0.63406377  0.45315909  1  1.118188  0  0.175736  0.26814  0  3.984156  0
C  C151  1  0.24959362  0.20274714  0.88365611  1  1.090344  0  0.17578  0.268131  0  3.98412  0
C  C152  1  0.13406354  0.45315883  0.75041150  1  1.11853  0  0.175784  0.268197  0  3.984084  0
C  C153  1  0.70274569  0.88364911  0.74958715  1  1.091611  0  0.17577  0.268124  0  3.983989  0
C  C154  1  0.36593729  0.61634825  0.81909334  1  1.076619  0  0.175783  0.268158  0  3.984183  0
C  C155  1  0.79725143  0.04683941  0.68090510  1  1.106045  0  0.175765  0.268253  0  3.983622  0
C  C156  1  0.86593689  0.31909092  0.11634966  1  1.077571  0  0.175749  0.268136  0  3.984091  0
C  C157  1  0.29725411  0.18090111  0.54684524  1  1.105705  0  0.175831  0.268235  0  3.983878  0
C  C158  1  0.63405954  0.25041358  0.95315595  1  1.118301  0  0.17585  0.268175  0  3.984296  0
C  C159  1  0.20274485  0.24958864  0.38364735  1  1.091596  0  0.175894  0.268189  0  3.984369  0
C  C160  1  0.45316251  0.13406966  0.25042154  1  1.11803  0  0.175806  0.268099  0  3.984074  0
C  C161  1  0.88364720  0.70274194  0.24958650  1  1.091371  0  0.17577  0.268031  0  3.983745  0
C  C162  1  0.61634937  0.36594196  0.31909661  1  1.076007  0  0.175741  0.268046  0  3.983775  0
C  C163  1  0.04684071  0.79725295  0.18090119  1  1.106103  0  0.175806  0.268138  0  3.984415  0
C  C164  1  0.68090792  0.54684608  0.79726083  1  1.105368  0  0.175796  0.268068  0  3.984136  0
C  C165  1  0.81908974  0.11634987  0.36593430  1  1.077599  0  0.175789  0.267977  0  3.984435  0
C  C166  1  0.74959024  0.38365130  0.70274443  1  1.090796  0  0.175775  0.268018  0  3.984115  0
C  C167  1  0.75041177  0.95315835  0.13406022  1  1.1189  0  0.175804  0.268097  0  3.984473  0
C  C168  1  0.57148048  0.58088627  0.31912160  1  1.011633  0  0.237535  0.370068  0  4.069415  0
C  C169  1  0.23823825  0.91911908  0.99059384  1  1.003362  0  0.237581  0.370259  0  4.069323  0
C  C170  1  0.26176267  0.75235730  0.18088018  1  1.008418  0  0.237587  0.370161  0  4.069489  0
C  C171  1  0.92852258  0.74764618  0.50940496  1  0.961004  0  0.237597  0.370168  0  4.069239  0
C  C172  1  0.41911691  0.99059143  0.73823878  1  1.003416  0  0.237474  0.369995  0  4.069299  0
C  C173  1  0.08088184  0.31912142  0.07147401  1  1.012314  0  0.237563  0.370092  0  4.069461  0
C  C174  1  0.24764210  0.50940417  0.42852276  1  0.960929  0  0.237715  0.370301  0  4.069306  0
C  C175  1  0.25235450  0.18087741  0.76176466  1  1.008592  0  0.237581  0.370194  0  4.069481  0
C  C176  1  0.00940681  0.42852365  0.74764186  1  0.960922  0  0.237642  0.370285  0  4.069461  0
C  C177  1  0.68088128  0.76176180  0.75235767  1  1.00869  0  0.237676  0.370236  0  4.069408  0
C  C178  1  0.49059449  0.73824055  0.91911578  1  1.003874  0  0.237558  0.370054  0  4.069163  0
C  C179  1  0.81912253  0.07147612  0.58088043  1  1.012271  0  0.237539  0.370128  0  4.06955  0
C  C180  1  0.99059260  0.41911374  0.23823836  1  1.003607  0  0.23761  0.370142  0  4.069388  0
C  C181  1  0.31911718  0.08087940  0.57147415  1  1.011969  0  0.237625  0.370226  0  4.069286  0
C  C182  1  0.50940767  0.24764686  0.92852232  1  0.960913  0  0.237625  0.370128  0  4.069144  0
C  C183  1  0.18088259  0.25235576  0.26176644  1  1.008907  0  0.237487  0.370115  0  4.069217  0
C  C184  1  0.42852347  0.00940647  0.24764841  1  0.961247  0  0.23764  0.370179  0  4.069513  0
C  C185  1  0.76175692  0.68087823  0.25235149  1  1.009111  0  0.237568  0.370135  0  4.069563  0
C  C186  1  0.73823975  0.49059384  0.41911870  1  1.003382  0  0.237491  0.36998  0  4.069536  0
C  C187  1  0.07148081  0.81912534  0.08088870  1  1.011801  0  0.237644  0.370063  0  4.069315  0
C  C188  1  0.58088681  0.57147512  0.81912410  1  1.012041  0  0.237513  0.370056  0  4.069378  0
C  C189  1  0.91911333  0.23823610  0.49058510  1  1.003843  0  0.23751  0.370067  0  4.069351  0
C  C190  1  0.75235621  0.26176495  0.68087643  1  1.008651  0  0.237564  0.370121  0  4.069461  0
C  C191  1  0.74764446  0.92852364  0.00940802  1  0.960345  0  0.237506  0.370024  0  4.069335  0
C  C192  1  0.62040781  0.58693230  0.27912328  1  0.032141  0  -0.097986  -0.358518  0  3.938851  0
C  C193  1  0.19219354  0.91307385  0.03348256  1  0.007875  0  -0.097967  -0.358576  0  3.93885  0
C  C194  1  0.30780630  0.84128693  0.22087657  1  0.087659  0  -0.097917  -0.358528  0  3.93882  0
C  C195  1  0.87958722  0.65870772  0.46652061  1  0.06865  0  -0.097952  -0.358463  0  3.938729  0
C  C196  1  0.41306531  0.03347228  0.69218719  1  0.04825  0  -0.097925  -0.358391  0  3.938934  0
C  C197  1  0.08693581  0.27911904  0.12040828  1  0.032119  0  -0.097948  -0.358388  0  3.938822  0
C  C198  1  0.15871255  0.46652686  0.37959335  1  0.068181  0  -0.09791  -0.358478  0  3.938874  0
C  C199  1  0.34128249  0.22087468  0.80781016  1  0.01789  0  -0.097856  -0.358434  0  3.939022  0
C  C200  1  0.96652420  0.37959406  0.65871103  1  0.06824  0  -0.097966  -0.358531  0  3.938803  0
C  C201  1  0.72087983  0.80781077  0.84128913  1  0.087678  0  -0.09795  -0.358507  0  3.938833  0
C  C202  1  0.53348139  0.69218732  0.91306710  1  0.008111  0  -0.097946  -0.358449  0  3.938449  0
C  C203  1  0.77912042  0.12041099  0.58693427  1  0.062862  0  -0.097919  -0.358492  0  3.938867  0
C  C204  1  0.03348090  0.41306740  0.19219098  1  0.008056  0  -0.097917  -0.358436  0  3.938861  0
C  C205  1  0.27911862  0.08692851  0.62041310  1  0.062823  0  -0.097945  -0.358529  0  3.938638  0
C  C206  1  0.46651830  0.15870697  0.87958853  1  0.06892  0  -0.097965  -0.358498  0  3.93861  0
C  C207  1  0.22087779  0.34128564  0.30780665  1  0.087263  0  -0.097965  -0.358552  0  3.938839  0
C  C208  1  0.37959107  0.96652778  0.15870967  1  0.067902  0  -0.097901  -0.358344  0  3.9387  0
C  C209  1  0.80781216  0.72087648  0.34128596  1  0.087666  0  -0.097878  -0.358497  0  3.938814  0
C  C210  1  0.69218891  0.53347496  0.41306509  1  0.007935  0  -0.097912  -0.358444  0  3.939009  0
C  C211  1  0.12041090  0.77912347  0.08693532  1  0.032042  0  -0.097931  -0.358462  0  3.938664  0
C  C212  1  0.58693339  0.62040972  0.77912453  1  0.031903  0  -0.097897  -0.358441  0  3.938841  0
C  C213  1  0.91306845  0.19219301  0.53347548  1  0.047964  0  -0.097855  -0.358417  0  3.938847  0
C  C214  1  0.84128714  0.30781066  0.72087366  1  0.087166  0  -0.097876  -0.358449  0  3.938922  0
C  C215  1  0.65871294  0.87959022  0.96651741  1  0.068853  0  -0.09789  -0.358454  0  3.938759  0
C  C216  1  0.62995195  0.64419656  0.25119172  1  0.872088  0  0.22126  0.351591  0  4.019466  0
C  C217  1  0.10700330  0.85580834  0.98576117  1  0.876388  0  0.221263  0.351691  0  4.019974  0
C  C218  1  0.39299667  0.87875431  0.24880056  1  0.820717  0  0.221244  0.35172  0  4.019689  0
C  C219  1  0.87004811  0.62124316  0.51424519  1  0.833858  0  0.221184  0.351559  0  4.019946  0
C  C220  1  0.35579855  0.98575451  0.60699927  1  0.835952  0  0.221171  0.351583  0  4.020117  0
C  C221  1  0.14419853  0.25119766  0.12995382  1  0.871958  0  0.221224  0.351645  0  4.020057  0
C  C222  1  0.12124183  0.51424017  0.37004695  1  0.83422  0  0.2213  0.351858  0  4.019843  0
C  C223  1  0.37876017  0.24880392  0.89300078  1  0.89017  0  0.221197  0.351677  0  4.019823  0
C  C224  1  0.01424442  0.37004722  0.62123955  1  0.834136  0  0.221267  0.351643  0  4.019569  0
C  C225  1  0.74880503  0.89300183  0.87875871  1  0.820631  0  0.221278  0.351718  0  4.019752  0
C  C226  1  0.48575456  0.60699504  0.85580041  1  0.87626  0  0.221242  0.351521  0  4.019883  0
C  C227  1  0.75119604  0.12995486  0.64419296  1  0.841119  0  0.221182  0.35163  0  4.020114  0
C  C228  1  0.98575638  0.35580068  0.10699945  1  0.875884  0  0.22122  0.35155  0  4.01989  0
C  C229  1  0.25119546  0.14419566  0.62995675  1  0.841204  0  0.221242  0.351707  0  4.020039  0
C  C230  1  0.51424411  0.12124052  0.87004772  1  0.833671  0  0.221225  0.351572  0  4.019875  0
C  C231  1  0.24880192  0.37875737  0.39300260  1  0.82074  0  0.221248  0.351548  0  4.019658  0
C  C232  1  0.37004849  0.01424631  0.12124375  1  0.834369  0  0.221217  0.351683  0  4.020063  0
C  C233  1  0.89299574  0.74879945  0.37875648  1  0.820431  0  0.221224  0.351807  0  4.020231  0
C  C234  1  0.60700498  0.48576514  0.35580868  1  0.876288  0  0.221252  0.351731  0  4.020312  0
C  C235  1  0.12995266  0.75119580  0.14420081  1  0.872107  0  0.221255  0.351685  0  4.019678  0
C  C236  1  0.64419925  0.62995456  0.75119931  1  0.872003  0  0.22125  0.35167  0  4.019964  0
C  C237  1  0.85580126  0.10700180  0.48575465  1  0.835857  0  0.221206  0.351712  0  4.019998  0
C  C238  1  0.87875870  0.39299974  0.74880155  1  0.820484  0  0.22127  0.351781  0  4.01989  0
C  C239  1  0.62124255  0.87004717  0.01424141  1  0.833853  0  0.221279  0.351705  0  4.019814  0
C  C240  1  0.49479107  0.50730306  0.37449627  1  0.246051  0  -0.137095  -0.257435  0  3.888147  0
C  C241  1  0.36719391  0.99270461  0.98748207  1  0.190575  0  -0.137216  -0.257425  0  3.88808  0
C  C242  1  0.13280399  0.62028687  0.12550757  1  0.183661  0  -0.137203  -0.25745  0  3.888119  0
C  C243  1  0.00520995  0.87970077  0.51251029  1  0.22438  0  -0.137087  -0.257361  0  3.887859  0
C  C244  1  0.49270151  0.98747927  0.86719309  1  0.190459  0  -0.137218  -0.257507  0  3.887997  0
C  C245  1  0.00729936  0.37449208  0.99477986  1  0.245736  0  -0.137168  -0.257517  0  3.888065  0
C  C246  1  0.37970898  0.51251915  0.50521757  1  0.22512  0  -0.137126  -0.257367  0  3.888031  0
C  C247  1  0.12029236  0.12550719  0.63280810  1  0.183381  0  -0.137104  -0.257348  0  3.888054  0
C  C248  1  0.01251311  0.50521425  0.87970410  1  0.22459  0  -0.137106  -0.257348  0  3.888026  0
C  C249  1  0.62551059  0.63280699  0.62029387  1  0.183535  0  -0.137134  -0.257369  0  3.888026  0
C  C250  1  0.48748640  0.86719361  0.99270128  1  0.190601  0  -0.137144  -0.257443  0  3.887923  0
C  C251  1  0.87449287  0.99478496  0.50729675  1  0.245754  0  -0.137164  -0.257423  0  3.887968  0
C  C252  1  0.98748325  0.49269966  0.36719048  1  0.190342  0  -0.137117  -0.257385  0  3.88811  0
C  C253  1  0.37448975  0.00729969  0.49478100  1  0.24558  0  -0.137126  -0.257329  0  3.888063  0
C  C254  1  0.51251730  0.37971027  0.00521865  1  0.224914  0  -0.137153  -0.257443  0  3.88807  0
C  C255  1  0.12551042  0.12028916  0.13280819  1  0.184057  0  -0.137271  -0.257646  0  3.888252  0
C  C256  1  0.50521518  0.01251552  0.37970808  1  0.224114  0  -0.137152  -0.257409  0  3.888073  0
C  C257  1  0.63279908  0.62550703  0.12028222  1  0.183588  0  -0.137245  -0.257483  0  3.88794  0
C  C258  1  0.86719713  0.48748334  0.49270864  1  0.190378  0  -0.137171  -0.257471  0  3.88797  0
C  C259  1  0.99478851  0.87449596  0.00730354  1  0.245725  0  -0.137115  -0.257458  0  3.888305  0
C  C260  1  0.50729629  0.49477771  0.87449386  1  0.246496  0  -0.137183  -0.257372  0  3.888003  0
C  C261  1  0.99270426  0.36719957  0.48747961  1  0.190251  0  -0.137258  -0.257514  0  3.888083  0
C  C262  1  0.62029033  0.13280734  0.62550606  1  0.183704  0  -0.137176  -0.257492  0  3.888316  0
C  C263  1  0.87971068  0.00522113  0.01251932  1  0.225122  0  -0.137216  -0.257549  0  3.888104  0
Br  Br264  1  0.76316039  0.86192314  0.26060974  1  -0.506237  0  -0.253811  -0.350784  0  1.625153  0
Br  Br265  1  0.89870170  0.63808796  0.90122912  1  -0.506744  0  -0.253812  -0.350763  0  1.625788  0
Br  Br266  1  0.60129831  0.00252475  0.23938270  1  -0.506652  0  -0.253767  -0.350699  0  1.62578  0
Br  Br267  1  0.73684272  0.49745052  0.59876160  1  -0.507509  0  -0.25385  -0.350825  0  1.625332  0
Br  Br268  1  0.13806737  0.90122112  0.39869088  1  -0.506684  0  -0.253786  -0.350738  0  1.6256  0
Br  Br269  1  0.36192427  0.26061796  0.26315028  1  -0.506321  0  -0.253798  -0.350734  0  1.625673  0
Br  Br270  1  0.99746907  0.59876810  0.23685540  1  -0.507706  0  -0.253835  -0.350762  0  1.625652  0
Br  Br271  1  0.50253173  0.23938416  0.10129803  1  -0.506598  0  -0.253792  -0.350743  0  1.625631  0
Br  Br272  1  0.09877792  0.23685341  0.49747097  1  -0.507609  0  -0.253826  -0.350762  0  1.625785  0
Br  Br273  1  0.73938344  0.10130033  0.00252445  1  -0.506701  0  -0.253819  -0.35077  0  1.625827  0
Br  Br274  1  0.40122501  0.39869420  0.63807653  1  -0.50675  0  -0.253823  -0.35078  0  1.625647  0
Br  Br275  1  0.76061934  0.26314531  0.86192000  1  -0.506213  0  -0.253805  -0.350769  0  1.62577  0
Br  Br276  1  0.90122466  0.13807995  0.89869996  1  -0.506658  0  -0.253811  -0.350756  0  1.625676  0
Br  Br277  1  0.26061457  0.36192068  0.76314452  1  -0.506236  0  -0.253792  -0.350721  0  1.625722  0
Br  Br278  1  0.59877462  0.99746414  0.73686012  1  -0.507683  0  -0.253846  -0.35077  0  1.625805  0
Br  Br279  1  0.23938426  0.50252421  0.60130314  1  -0.506625  0  -0.253799  -0.350735  0  1.625727  0
Br  Br280  1  0.23686642  0.09878916  0.99748557  1  -0.507495  0  -0.253829  -0.350747  0  1.625596  0
Br  Br281  1  0.10129771  0.73938414  0.50253181  1  -0.506587  0  -0.253811  -0.350768  0  1.625662  0
Br  Br282  1  0.39869672  0.40123482  0.13808164  1  -0.506667  0  -0.253828  -0.350805  0  1.625554  0
Br  Br283  1  0.26314386  0.76062067  0.36192917  1  -0.506113  0  -0.253809  -0.350755  0  1.62552  0
Br  Br284  1  0.86191427  0.76314576  0.76060833  1  -0.506295  0  -0.253803  -0.350797  0  1.625442  0
Br  Br285  1  0.63808181  0.89869206  0.40122469  1  -0.506703  0  -0.253795  -0.35076  0  1.62536  0
Br  Br286  1  0.00253038  0.60129687  0.73939606  1  -0.506541  0  -0.253837  -0.350832  0  1.625747  0
Br  Br287  1  0.49746530  0.73686004  0.09876542  1  -0.507608  0  -0.253833  -0.350762  0  1.625722  0
N  N288  1  0.59446763  0.69363987  0.26067913  1  -1.210691  0  -0.368231  -0.312169  0  3.549479  0
N  N289  1  0.06704652  0.80636132  0.90083567  1  -1.21574  0  -0.368267  -0.312273  0  3.549457  0
N  N290  1  0.43294745  0.83377871  0.23930794  1  -1.22115  0  -0.368215  -0.312168  0  3.549598  0
N  N291  1  0.90552801  0.66620764  0.59916874  1  -1.216848  0  -0.368268  -0.312225  0  3.549192  0
N  N292  1  0.30635400  0.90083218  0.56704634  1  -1.216107  0  -0.368249  -0.312209  0  3.549411  0
N  N293  1  0.19364017  0.26068749  0.09447433  1  -1.210453  0  -0.368232  -0.312117  0  3.549358  0
N  N294  1  0.16621029  0.59916512  0.40553051  1  -1.216572  0  -0.368232  -0.312261  0  3.54953  0
N  N295  1  0.33379328  0.23931831  0.93296111  1  -1.220489  0  -0.368207  -0.312235  0  3.549376  0
N  N296  1  0.09916959  0.40553013  0.66621277  1  -1.216913  0  -0.368225  -0.312184  0  3.549509  0
N  N297  1  0.73931526  0.93295406  0.83378737  1  -1.22103  0  -0.368256  -0.31218  0  3.549545  0
N  N298  1  0.40083430  0.56704402  0.80635971  1  -1.21583  0  -0.368247  -0.312136  0  3.549455  0
N  N299  1  0.76068014  0.09447313  0.69363477  1  -1.210495  0  -0.368211  -0.31215  0  3.549288  0
N  N300  1  0.90083268  0.30635460  0.06704487  1  -1.215732  0  -0.368239  -0.312198  0  3.549388  0
N  N301  1  0.26068528  0.19363831  0.59447808  1  -1.210022  0  -0.368227  -0.312194  0  3.549505  0
N  N302  1  0.59916611  0.16621312  0.90552829  1  -1.216494  0  -0.368219  -0.312155  0  3.549415  0
N  N303  1  0.23931162  0.33378348  0.43295292  1  -1.221294  0  -0.368239  -0.312051  0  3.549686  0
N  N304  1  0.40553187  0.09917027  0.16621687  1  -1.216919  0  -0.368272  -0.312222  0  3.549585  0
N  N305  1  0.93295046  0.73931017  0.33379073  1  -1.220815  0  -0.368251  -0.312178  0  3.549336  0
N  N306  1  0.56704415  0.40084179  0.30636343  1  -1.214923  0  -0.368286  -0.312247  0  3.549479  0
N  N307  1  0.09446553  0.76068217  0.19363698  1  -1.210692  0  -0.368268  -0.312221  0  3.549757  0
N  N308  1  0.69364048  0.59447317  0.76068817  1  -1.210159  0  -0.36832  -0.312302  0  3.549583  0
N  N309  1  0.80636061  0.06705041  0.40083171  1  -1.215883  0  -0.368285  -0.312217  0  3.549684  0
N  N310  1  0.83378973  0.43295527  0.73931686  1  -1.220876  0  -0.36831  -0.3122  0  3.549675  0
N  N311  1  0.66621683  0.90553221  0.09916812  1  -1.216857  0  -0.368331  -0.312246  0  3.549908  0
N  N312  1  0.53387799  0.62807659  0.32653417  1  -1.202197  0  -0.326446  -0.369735  0  3.253845  0
N  N313  1  0.19844948  0.87192161  0.90580174  1  -1.20991  0  -0.326611  -0.369933  0  3.254443  0
N  N314  1  0.30154567  0.70734875  0.17346796  1  -1.182113  0  -0.326535  -0.3698  0  3.254126  0
N  N315  1  0.96611986  0.79265532  0.59419883  1  -1.213639  0  -0.326488  -0.369836  0  3.254068  0
N  N316  1  0.37192127  0.90579866  0.69845209  1  -1.209982  0  -0.326576  -0.36981  0  3.254224  0
N  N317  1  0.12807573  0.32652859  0.03387896  1  -1.202395  0  -0.326561  -0.369852  0  3.254338  0
N  N318  1  0.29264997  0.59419780  0.46611986  1  -1.213682  0  -0.326548  -0.369966  0  3.254037  0
N  N319  1  0.20735004  0.17346978  0.80155033  1  -1.182111  0  -0.326513  -0.369838  0  3.254022  0
N  N320  1  0.09419790  0.46612221  0.79265051  1  -1.213789  0  -0.326532  -0.369914  0  3.254067  0
N  N321  1  0.67347258  0.80154534  0.70734735  1  -1.182004  0  -0.326547  -0.369884  0  3.254062  0
N  N322  1  0.40580319  0.69844811  0.87191998  1  -1.209806  0  -0.326591  -0.369834  0  3.254358  0
N  N323  1  0.82652844  0.03387778  0.62807261  1  -1.20217  0  -0.32652  -0.369971  0  3.25406  0
N  N324  1  0.90580133  0.37192006  0.19844991  1  -1.209829  0  -0.326615  -0.369905  0  3.254321  0
N  N325  1  0.32652586  0.12807398  0.53387562  1  -1.202376  0  -0.326596  -0.369958  0  3.254255  0
N  N326  1  0.59419971  0.29265079  0.96611853  1  -1.214001  0  -0.326607  -0.369905  0  3.254354  0
N  N327  1  0.17347260  0.20734726  0.30154911  1  -1.182359  0  -0.326562  -0.369831  0  3.254161  0
N  N328  1  0.46611903  0.09419540  0.29265202  1  -1.21329  0  -0.326575  -0.369911  0  3.254257  0
N  N329  1  0.80154290  0.67347057  0.20734481  1  -1.18243  0  -0.326474  -0.369863  0  3.254105  0
N  N330  1  0.69845517  0.40580139  0.37192650  1  -1.209526  0  -0.326464  -0.369731  0  3.254037  0
N  N331  1  0.03388245  0.82653073  0.12808036  1  -1.202194  0  -0.326627  -0.369835  0  3.254411  0
N  N332  1  0.62808186  0.53388111  0.82653504  1  -1.20223  0  -0.326538  -0.369778  0  3.254112  0
N  N333  1  0.87191628  0.19845055  0.40579586  1  -1.210108  0  -0.32657  -0.369771  0  3.254229  0
N  N334  1  0.70734854  0.30154571  0.67346632  1  -1.181968  0  -0.326549  -0.369787  0  3.254127  0
N  N335  1  0.79265089  0.96612234  0.09420129  1  -1.214222  0  -0.326535  -0.369792  0  3.254272  0
N  N336  1  0.55773090  0.52541862  0.34803931  1  -1.229001  0  -0.262409  -0.112681  0  3.648147  0
N  N337  1  0.32262133  0.97459149  0.03231201  1  -1.19819  0  -0.262264  -0.112877  0  3.647909  0
N  N338  1  0.17737980  0.70969224  0.15197125  1  -1.228622  0  -0.262244  -0.112754  0  3.647745  0
N  N339  1  0.94226834  0.79030081  0.46768492  1  -1.216331  0  -0.262394  -0.112909  0  3.648376  0
N  N340  1  0.47458678  0.03231019  0.82262071  1  -1.198377  0  -0.262278  -0.112675  0  3.64773  0
N  N341  1  0.02541632  0.34803297  0.05772590  1  -1.228957  0  -0.262336  -0.112707  0  3.647881  0
N  N342  1  0.29030523  0.46768964  0.44227456  1  -1.2161  0  -0.26242  -0.112829  0  3.648065  0
N  N343  1  0.20969288  0.15196385  0.67738441  1  -1.228429  0  -0.262358  -0.11275  0  3.648039  0
N  N344  1  0.96768689  0.44227084  0.79030153  1  -1.216152  0  -0.262438  -0.112955  0  3.648364  0
N  N345  1  0.65196852  0.67738182  0.70969572  1  -1.228634  0  -0.262402  -0.112829  0  3.648224  0
N  N346  1  0.53231387  0.82261663  0.97458126  1  -1.198698  0  -0.262365  -0.112776  0  3.648135  0
N  N347  1  0.84803373  0.05773099  0.52541636  1  -1.228662  0  -0.262284  -0.112792  0  3.6482  0
N  N348  1  0.03231054  0.47458106  0.32261719  1  -1.198654  0  -0.262401  -0.112812  0  3.648039  0
N  N349  1  0.34802716  0.02541052  0.55772406  1  -1.228793  0  -0.262359  -0.112854  0  3.648203  0
N  N350  1  0.46768907  0.29030591  0.94227067  1  -1.216063  0  -0.262356  -0.112782  0  3.64803  0
N  N351  1  0.15197030  0.20969060  0.17737858  1  -1.228594  0  -0.262202  -0.112678  0  3.64781  0
N  N352  1  0.44227043  0.96768845  0.29030298  1  -1.216132  0  -0.262385  -0.112864  0  3.648182  0
N  N353  1  0.67738229  0.65196933  0.20969056  1  -1.228724  0  -0.262322  -0.112645  0  3.647609  0
N  N354  1  0.82262045  0.53231048  0.47458808  1  -1.19819  0  -0.262271  -0.112624  0  3.647594  0
N  N355  1  0.05773378  0.84804213  0.02542133  1  -1.228812  0  -0.26242  -0.112682  0  3.64807  0
N  N356  1  0.52541290  0.55772208  0.84803181  1  -1.22889  0  -0.26229  -0.112626  0  3.647611  0
N  N357  1  0.97458722  0.32261998  0.53230468  1  -1.198268  0  -0.262235  -0.112645  0  3.647549  0
N  N358  1  0.70969090  0.17738103  0.65196382  1  -1.228671  0  -0.262318  -0.112753  0  3.647952  0
N  N359  1  0.79030967  0.94227553  0.96768930  1  -1.215486  0  -0.262261  -0.112625  0  3.64785  0
