# generated using pymatgen
data_ZnH8(C5N2)2
_symmetry_space_group_name_H-M   'P 1'
_cell_length_a   16.34630546
_cell_length_b   16.79660344
_cell_length_c   18.72545886
_cell_angle_alpha   88.84002234
_cell_angle_beta   88.20634778
_cell_angle_gamma   90.42465032
_symmetry_Int_Tables_number   1
_chemical_formula_structural   ZnH8(C5N2)2
_chemical_formula_sum   'Zn8 H64 C80 N32'
_cell_volume   5137.56845434
_cell_formula_units_Z   8
loop_
 _symmetry_equiv_pos_site_id
 _symmetry_equiv_pos_as_xyz
  1  'x, y, z'
loop_
 _atom_site_type_symbol
 _atom_site_label
 _atom_site_symmetry_multiplicity
 _atom_site_fract_x
 _atom_site_fract_y
 _atom_site_fract_z
 _atom_site_occupancy
 _atom_site_pbe_bader_charge
 _atom_site_pbe_bader_spin_density
 _atom_site_pbe_cm5_charge
 _atom_site_pbe_ddec_charge
 _atom_site_pbe_ddec_spin_density
 _atom_site_pbe_ddec_sum_bond_order
 _atom_site_pbe_magmom
Zn  Zn0  1  0.64185371  0.54623434  0.01991039  1  1.180334  0  0.744068  0.605304  0  2.4848  0
Zn  Zn1  1  0.51923472  0.40255458  0.98221180  1  1.185715  0  0.746334  0.595502  0  2.529151  0
Zn  Zn2  1  0.36494090  0.52115772  0.96519986  1  1.18772  0  0.738885  0.621211  0  2.379677  0
Zn  Zn3  1  0.49033520  0.67428334  0.99275149  1  1.195503  0  0.736426  0.638831  0  2.319669  0
Zn  Zn4  1  0.11698137  0.95834559  0.47575651  1  1.194728  0  0.744673  0.615953  0  2.480802  0
Zn  Zn5  1  0.99826250  0.78586101  0.48690033  1  1.171067  0  0.74053  0.620567  0  2.38191  0
Zn  Zn6  1  0.88235230  0.91717762  0.47436132  1  1.178617  0  0.753987  0.609123  0  2.533725  0
Zn  Zn7  1  0.98746187  0.10461154  0.51449217  1  1.196588  0  0.738057  0.591705  0  2.562835  0
H  H8  1  0.73045942  0.57231736  0.85825105  1  0.102004  0  0.114583  0.104556  0  1.007134  0
H  H9  1  0.86642379  0.62777649  0.42942313  1  0.083148  0  0.118552  0.110365  0  0.991114  0
H  H10  1  0.75608661  0.99235155  0.35818911  1  0.051124  0  0.116694  0.106068  0  1.000386  0
H  H11  1  0.06282551  0.23984119  0.40546856  1  0.073672  0  0.116198  0.104655  0  0.997186  0
H  H12  1  0.86825058  0.98949184  0.64061820  1  0.157655  0  0.117338  0.110386  0  1.027096  0
H  H13  1  0.14188117  0.66220870  0.52760955  1  0.067698  0  0.118552  0.108233  0  0.99248  0
H  H14  1  0.22584553  0.96537577  0.61852627  1  0.077233  0  0.11112  0.099133  0  1.01663  0
H  H15  1  0.95410458  0.30763750  0.54995179  1  0.063338  0  0.100642  0.088751  0  1.023018  0
H  H16  1  0.39834638  0.25926717  0.22215541  1  0.016167  0  0.092577  0.087777  0  1.005697  0
H  H17  1  0.09635368  0.66982222  0.12851575  1  0.027928  0  0.092338  0.089174  0  1.00106  0
H  H18  1  0.52533174  0.73540858  0.30024286  1  0.013169  0  0.09356  0.091786  0  0.996776  0
H  H19  1  0.45854745  0.24567322  0.88994060  1  0.075444  0  0.11731  0.106859  0  0.993025  0
H  H20  1  0.74247436  0.36220370  0.26059737  1  0.033666  0  0.092257  0.087157  0  1.001436  0
H  H21  1  0.60387920  0.38018454  0.70637485  1  0.012216  0  0.091594  0.08625  0  1.002958  0
H  H22  1  0.89599831  0.74154837  0.90496467  1  0.049932  0  0.092356  0.088279  0  1.000315  0
H  H23  1  0.45727662  0.77386970  0.68913869  1  0.046097  0  0.093428  0.091483  0  0.998743  0
H  H24  1  0.22170665  0.31205838  0.75776372  1  0.049833  0  0.09111  0.084925  0  1.001949  0
H  H25  1  0.96647287  0.77335391  0.79345663  1  0.029715  0  0.092871  0.088438  0  1.001407  0
H  H26  1  0.68060179  0.29325105  0.63631096  1  0.050659  0  0.090115  0.086218  0  1.00962  0
H  H27  1  0.15653456  0.22371475  0.68388371  1  0.046619  0  0.093698  0.088313  0  1.008985  0
H  H28  1  0.38143593  0.81607743  0.58923097  1  0.001194  0  0.092229  0.085825  0  1.002143  0
H  H29  1  0.02711076  0.72345395  0.23115772  1  0.032612  0  0.094165  0.090254  0  0.995107  0
H  H30  1  0.36211841  0.52364011  0.79771674  1  0.097827  0  0.115422  0.102236  0  1.011866  0
H  H31  1  0.32952600  0.17403933  0.30618914  1  0.043307  0  0.09171  0.087026  0  1.003721  0
H  H32  1  0.79969339  0.27810430  0.35042180  1  0.028824  0  0.095888  0.093023  0  0.998781  0
H  H33  1  0.60656626  0.76289409  0.40024020  1  0.041115  0  0.093106  0.086245  0  1.004928  0
H  H34  1  0.25531869  0.37684304  0.23289286  1  0.044687  0  0.097589  0.09712  0  0.997633  0
H  H35  1  0.20975603  0.81621007  0.13393796  1  0.042399  0  0.097917  0.094688  0  0.999786  0
H  H36  1  0.60449252  0.57024031  0.29900899  1  0.028865  0  0.098268  0.095009  0  0.995679  0
H  H37  1  0.71035112  0.21055049  0.17612410  1  0.010277  0  0.098154  0.098248  0  0.997521  0
H  H38  1  0.76008382  0.47521046  0.73654510  1  0.029142  0  0.095316  0.097521  0  0.998742  0
H  H39  1  0.75553420  0.84043042  0.84463140  1  0.029199  0  0.096969  0.095679  0  1.00341  0
H  H40  1  0.36412232  0.61463082  0.68400250  1  0.052886  0  0.097885  0.094405  0  0.997387  0
H  H41  1  0.60760707  0.81447316  0.91389726  1  0.072897  0  0.115454  0.10275  0  0.996157  0
H  H42  1  0.33459233  0.17892461  0.80963206  1  0.044296  0  0.097759  0.098019  0  0.994767  0
H  H43  1  0.84681990  0.91221130  0.77540913  1  0.059921  0  0.099919  0.10067  0  0.992884  0
H  H44  1  0.83418430  0.39833210  0.64769449  1  0.036721  0  0.091533  0.090193  0  1.002243  0
H  H45  1  0.25970209  0.08332817  0.73664012  1  0.054971  0  0.097455  0.098443  0  0.996455  0
H  H46  1  0.28645809  0.65716448  0.60049912  1  0.063016  0  0.097536  0.097633  0  1.002757  0
H  H47  1  0.10876140  0.88473758  0.19245743  1  0.019941  0  0.099656  0.101165  0  0.996185  0
H  H48  1  0.18457908  0.28971645  0.30740704  1  0.051094  0  0.09703  0.09629  0  0.99768  0
H  H49  1  0.72525742  0.13451662  0.27532914  1  0.01023  0  0.097498  0.095256  0  0.999711  0
H  H50  1  0.71038339  0.61745770  0.35975771  1  0.041108  0  0.096746  0.097564  0  1.003351  0
H  H51  1  0.25278451  0.40106231  0.85587574  1  0.073845  0  0.115291  0.101537  0  1.002178  0
H  H52  1  0.27380462  0.49344431  0.12140156  1  0.095349  0  0.1135  0.100661  0  1.01295  0
H  H53  1  0.51595603  0.73249908  0.82041719  1  0.076613  0  0.115628  0.100737  0  1.006881  0
H  H54  1  0.80005038  0.66142268  0.98840520  1  0.071493  0  0.117211  0.103634  0  0.995606  0
H  H55  1  0.54033536  0.39939885  0.81605659  1  0.096544  0  0.115761  0.101717  0  1.015226  0
H  H56  1  0.75333893  0.44544430  0.14066512  1  0.068872  0  0.11795  0.104656  0  0.994301  0
H  H57  1  0.45884113  0.70795750  0.16775580  1  0.112256  0  0.115425  0.101544  0  1.005148  0
H  H58  1  0.19083149  0.60156788  0.03380182  1  0.091825  0  0.116263  0.101574  0  0.998052  0
H  H59  1  0.47876533  0.33272627  0.14053170  1  0.066935  0  0.114063  0.097968  0  1.022036  0
H  H60  1  0.70925511  0.83325907  0.44843357  1  0.058239  0  0.121921  0.108131  0  0.993944  0
H  H61  1  0.88858352  0.20324726  0.41978752  1  0.070631  0  0.11914  0.101207  0  1.008931  0
H  H62  1  0.25408353  0.06666885  0.37010326  1  0.083296  0  0.115072  0.10165  0  1.002735  0
H  H63  1  0.60384863  0.25276811  0.06521019  1  0.094178  0  0.118411  0.107154  0  0.990202  0
H  H64  1  0.93615183  0.78664332  0.33304981  1  0.119679  0  0.119473  0.111598  0  1.008646  0
H  H65  1  0.28401360  0.88045866  0.51113838  1  0.085114  0  0.119963  0.105119  0  0.994612  0
H  H66  1  0.04479634  0.14728173  0.66006563  1  0.119596  0  0.121452  0.113581  0  1.004956  0
H  H67  1  0.76075395  0.17648142  0.66525588  1  0.042955  0  0.10474  0.091106  0  1.007612  0
H  H68  1  0.00218316  0.76849619  0.66557882  1  0.078528  0  0.118038  0.10298  0  0.995048  0
H  H69  1  0.61080124  0.49817861  0.18008510  1  0.085877  0  0.11296  0.098499  0  1.033582  0
H  H70  1  0.35513377  0.80070790  0.06342206  1  0.102243  0  0.116414  0.103413  0  0.994283  0
H  H71  1  0.11800512  0.97540386  0.31194515  1  0.097454  0  0.122103  0.110071  0  0.998299  0
C  C72  1  0.67830249  0.53175442  0.85897419  1  0.355821  0  0.005159  -0.055672  0  3.948402  0
C  C73  1  0.83854567  0.68527042  0.43888406  1  0.437251  0  0.005729  -0.062061  0  3.962065  0
C  C74  1  0.79566236  0.03669582  0.38114478  1  0.447039  0  0.004569  -0.067735  0  3.972342  0
C  C75  1  0.10271159  0.18836414  0.40437881  1  0.407567  0  0.005574  -0.061888  0  3.983583  0
C  C76  1  0.90210669  0.93422652  0.63495178  1  0.364744  0  0.019293  -0.025028  0  3.907959  0
C  C77  1  0.16602597  0.72206980  0.51789621  1  0.428716  0  0.004508  -0.065758  0  3.975401  0
C  C78  1  0.17364719  0.00507026  0.62006825  1  0.410361  0  -0.000251  -0.067919  0  3.968114  0
C  C79  1  0.91223710  0.26383264  0.57475221  1  0.35309  0  -0.021373  -0.09806  0  4.042305  0
C  C80  1  0.30934394  0.37274798  0.87111594  1  0.415788  0  0.00324  -0.062262  0  3.9825  0
C  C81  1  0.47919260  0.67854315  0.82677078  1  0.392445  0  0.013001  -0.04137  0  3.92175  0
C  C82  1  0.74344928  0.69214420  0.97725075  1  0.386054  0  0.006182  -0.05611  0  3.975603  0
C  C83  1  0.41368931  0.29310606  0.88912719  1  0.401062  0  0.00212  -0.071548  0  4.005012  0
C  C84  1  0.58083578  0.44421915  0.83692845  1  0.389795  0  0.009572  -0.042226  0  3.936495  0
C  C85  1  0.71070748  0.40710446  0.11381808  1  0.425572  0  0.006095  -0.060666  0  3.981231  0
C  C86  1  0.49586891  0.65548632  0.15865457  1  0.368222  0  0.011864  -0.041627  0  3.923506  0
C  C87  1  0.24122241  0.64408152  0.03471142  1  0.415397  0  0.007053  -0.052081  0  3.973086  0
C  C88  1  0.43408316  0.37701401  0.12553338  1  0.390349  0  0.010267  -0.04695  0  3.944672  0
C  C89  1  0.75776138  0.78946649  0.44924155  1  0.438317  0  0.013612  -0.04491  0  3.970544  0
C  C90  1  0.86366472  0.14400467  0.41240630  1  0.448123  0  0.01938  -0.029416  0  3.926477  0
C  C91  1  0.20070157  0.10053978  0.38675207  1  0.396729  0  0.002674  -0.066402  0  3.985689  0
C  C92  1  0.97892484  0.83563308  0.33934809  1  0.308763  0  0.004721  -0.055182  0  3.900112  0
C  C93  1  0.23856927  0.83300509  0.50967887  1  0.397479  0  0.011497  -0.048235  0  3.963473  0
C  C94  1  0.40100918  0.57164359  0.81546208  1  0.378343  0  0.009419  -0.05367  0  3.967373  0
C  C95  1  0.08182123  0.09838518  0.64073838  1  0.413129  0  0.01395  -0.043085  0  3.935163  0
C  C96  1  0.81330949  0.19548374  0.63194999  1  0.466186  0  -0.008989  -0.061147  0  4.049345  0
C  C97  1  0.97227526  0.82244857  0.64749616  1  0.390087  0  0.015102  -0.031565  0  3.946497  0
C  C98  1  0.65163839  0.48058005  0.80547820  1  0.062653  0  -0.037755  0.014777  0  4.11726  0
C  C99  1  0.34073572  0.29783225  0.85149483  1  -0.00909  0  -0.042723  0.005076  0  4.152944  0
C  C100  1  0.43252242  0.63807460  0.77618964  1  0.050834  0  -0.037109  0.008645  0  4.109878  0
C  C101  1  0.73042680  0.75904225  0.93248383  1  -0.000274  0  -0.041079  0.008532  0  4.135814  0
C  C102  1  0.35778129  0.39554440  0.15819999  1  0.071223  0  -0.039134  0.010163  0  4.131703  0
C  C103  1  0.68957155  0.32681100  0.12904673  1  -0.029071  0  -0.040851  0.006896  0  4.145577  0
C  C104  1  0.53889201  0.60749829  0.20771556  1  0.009485  0  -0.038018  0.008256  0  4.108237  0
C  C105  1  0.64499958  0.76927567  0.93903084  1  0.423271  0  0.004943  -0.059028  0  3.992974  0
C  C106  1  0.24508011  0.71871457  0.06797290  1  0.003669  0  -0.042336  0.002216  0  4.131382  0
C  C107  1  0.03692045  0.86938608  0.29071435  1  0.041462  0  -0.029795  0.027583  0  4.086371  0
C  C108  1  0.75775087  0.71025486  0.42615241  1  -0.032821  0  -0.037235  0.012823  0  4.121319  0
C  C109  1  0.80192363  0.11901447  0.36667955  1  -0.020075  0  -0.038196  0.008112  0  4.134479  0
C  C110  1  0.17786908  0.17859664  0.36691185  1  0.008287  0  -0.042386  0.006937  0  4.155626  0
C  C111  1  0.92577697  0.87784572  0.68710124  1  0.082761  0  -0.034754  0.013564  0  4.08768  0
C  C112  1  0.24245367  0.75396017  0.53592344  1  0.016709  0  -0.037243  0.017767  0  4.130762  0
C  C113  1  0.15956456  0.07287341  0.66163801  1  0.007055  0  -0.039905  0.007146  0  4.125254  0
C  C114  1  0.83827874  0.27476656  0.61357386  1  -0.026353  0  -0.055037  -0.012032  0  4.162922  0
C  C115  1  0.33925822  0.28122531  0.24204909  1  0.029481  0  -0.110988  -0.10406  0  4.088267  0
C  C116  1  0.32983016  0.45943201  0.11592104  1  0.382097  0  0.005552  -0.057047  0  3.953317  0
C  C117  1  0.11613017  0.72926542  0.14401983  1  -0.039641  0  -0.111201  -0.113418  0  4.065859  0
C  C118  1  0.56503994  0.68693538  0.31745323  1  -0.002304  0  -0.112438  -0.11515  0  4.079366  0
C  C119  1  0.74012241  0.29817030  0.25086989  1  0.060545  0  -0.108546  -0.102303  0  4.091519  0
C  C120  1  0.66834065  0.39748962  0.69898385  1  -0.00693  0  -0.110469  -0.095843  0  4.087411  0
C  C121  1  0.86618743  0.78435122  0.86960683  1  -0.056729  0  -0.108213  -0.101869  0  4.073316  0
C  C122  1  0.41534676  0.72922241  0.66882698  1  -0.044448  0  -0.111912  -0.115212  0  4.073273  0
C  C123  1  0.24472187  0.25109699  0.76127271  1  -0.10309  0  -0.11002  -0.101931  0  4.09231  0
C  C124  1  0.91397436  0.81089432  0.80703605  1  -0.014641  0  -0.110149  -0.109058  0  4.077966  0
C  C125  1  0.71498551  0.34536926  0.65332983  1  -0.058638  0  -0.11819  -0.121521  0  4.094676  0
C  C126  1  0.20309760  0.19586549  0.71659505  1  -0.080913  0  -0.108134  -0.101458  0  4.0762  0
C  C127  1  0.63547590  0.30856335  0.07469996  1  0.414982  0  0.004806  -0.06577  0  3.996592  0
C  C128  1  0.36740803  0.75556471  0.60904090  1  -0.039311  0  -0.105883  -0.094501  0  4.068388  0
C  C129  1  0.06699887  0.76523401  0.20049382  1  -0.097734  0  -0.102964  -0.090622  0  4.066737  0
C  C130  1  0.29617823  0.22797268  0.29177912  1  -0.031938  0  -0.111807  -0.107778  0  4.098318  0
C  C131  1  0.76804766  0.24735793  0.30819678  1  0.00083  0  -0.10829  -0.104817  0  4.071977  0
C  C132  1  0.62074758  0.70737621  0.37302864  1  -0.089807  0  -0.104675  -0.093275  0  4.060877  0
C  C133  1  0.31410294  0.35230428  0.21500245  1  -0.074759  0  -0.097818  -0.122121  0  4.032086  0
C  C134  1  0.18814651  0.75845684  0.11560331  1  -0.034536  0  -0.092835  -0.110865  0  4.031665  0
C  C135  1  0.56691824  0.61918435  0.27919364  1  -0.030878  0  -0.093644  -0.110031  0  4.031368  0
C  C136  1  0.71410651  0.27434054  0.18654453  1  -0.107108  0  -0.099864  -0.127519  0  4.039559  0
C  C137  1  0.69630620  0.45526617  0.74207926  1  -0.05962  0  -0.106268  -0.139791  0  4.03356  0
C  C138  1  0.57265419  0.54781843  0.16455498  1  0.412109  0  0.00714  -0.050151  0  3.96454  0
C  C139  1  0.78541289  0.79964739  0.88171362  1  -0.025281  0  -0.101084  -0.12909  0  4.041836  0
C  C140  1  0.40527673  0.65916525  0.70574759  1  -0.053882  0  -0.091957  -0.106401  0  4.024563  0
C  C141  1  0.30711051  0.23804206  0.80605574  1  0.010551  0  -0.100388  -0.12729  0  4.042007  0
C  C142  1  0.89514940  0.87049885  0.76030599  1  -0.048759  0  -0.094863  -0.118934  0  4.021436  0
C  C143  1  0.79684808  0.34568567  0.63713245  1  -0.029416  0  -0.101469  -0.116974  0  4.036218  0
C  C144  1  0.21216573  0.11597541  0.70879319  1  -0.026989  0  -0.095317  -0.119057  0  4.003009  0
C  C145  1  0.30204391  0.71756365  0.58151346  1  -0.038871  0  -0.103145  -0.136612  0  4.033507  0
C  C146  1  0.07038702  0.84158264  0.22289672  1  0.069608  0  -0.100337  -0.135585  0  4.01605  0
C  C147  1  0.21937065  0.23616824  0.32024327  1  -0.064142  0  -0.10033  -0.125293  0  4.047616  0
C  C148  1  0.76097336  0.16679675  0.31401783  1  -0.005259  0  -0.095335  -0.117334  0  4.030259  0
C  C149  1  0.32513542  0.74540203  0.04939024  1  0.385664  0  0.004321  -0.061662  0  4.000117  0
C  C150  1  0.69372913  0.67242397  0.38670158  1  0.037949  0  -0.101503  -0.134212  0  4.017847  0
C  C151  1  0.07073685  0.93271445  0.32919619  1  0.43302  0  0.023896  -0.022423  0  3.908484  0
N  N152  1  0.62835957  0.52407848  0.91755797  1  -0.783326  0  -0.291041  -0.18957  0  3.64414  0
N  N153  1  0.88264211  0.74547551  0.46632604  1  -0.813485  0  -0.274436  -0.197273  0  3.545336  0
N  N154  1  0.84971535  0.01576963  0.43133422  1  -0.81232  0  -0.290327  -0.169104  0  3.665737  0
N  N155  1  0.08322006  0.12243170  0.44331333  1  -0.785949  0  -0.273735  -0.173825  0  3.571437  0
N  N156  1  0.93095922  0.91261128  0.56996986  1  -0.815969  0  -0.293324  -0.205784  0  3.621197  0
N  N157  1  0.12018911  0.77799428  0.48535463  1  -0.778336  0  -0.280031  -0.182207  0  3.566964  0
N  N158  1  0.11021619  0.99371541  0.57637105  1  -0.801259  0  -0.287326  -0.187766  0  3.592927  0
N  N159  1  0.92740005  0.18482142  0.57072366  1  -0.830493  0  -0.300255  -0.200734  0  3.668467  0
N  N160  1  0.35939479  0.40879154  0.91647631  1  -0.782697  0  -0.261456  -0.180369  0  3.501643  0
N  N161  1  0.47328926  0.63964909  0.89052188  1  -0.756011  0  -0.267984  -0.172646  0  3.570399  0
N  N162  1  0.67214047  0.66464159  0.00661642  1  -0.780672  0  -0.275032  -0.181578  0  3.521467  0
N  N163  1  0.42454754  0.35913610  0.92726566  1  -0.795218  0  -0.276892  -0.173034  0  3.575265  0
N  N164  1  0.56868923  0.47011878  0.90381561  1  -0.818496  0  -0.291298  -0.191974  0  3.668275  0
N  N165  1  0.67136867  0.43407091  0.05605017  1  -0.79439  0  -0.269117  -0.176584  0  3.529936  0
N  N166  1  0.50656221  0.62690722  0.09223848  1  -0.765768  0  -0.270852  -0.175945  0  3.585394  0
N  N167  1  0.31257903  0.62819150  0.00029230  1  -0.78555  0  -0.261766  -0.178591  0  3.501559  0
N  N168  1  0.44828659  0.42460103  0.06812241  1  -0.792048  0  -0.28144  -0.171137  0  3.651248  0
N  N169  1  0.83158979  0.80971739  0.47219318  1  -0.795314  0  -0.28942  -0.174465  0  3.620796  0
N  N170  1  0.89191638  0.08214492  0.45006085  1  -0.765234  0  -0.264947  -0.158552  0  3.576112  0
N  N171  1  0.14406623  0.06796902  0.43234994  1  -0.801916  0  -0.272103  -0.17657  0  3.575862  0
N  N172  1  0.98188849  0.87348869  0.40340928  1  -0.830274  0  -0.298872  -0.220339  0  3.612954  0
N  N173  1  0.16582499  0.84739438  0.48063410  1  -0.794379  0  -0.274286  -0.177845  0  3.543498  0
N  N174  1  0.42479598  0.57412102  0.88334221  1  -0.795037  0  -0.285387  -0.181828  0  3.66074  0
N  N175  1  0.05374692  0.05158553  0.58953847  1  -0.784243  0  -0.280545  -0.168511  0  3.595501  0
N  N176  1  0.86637097  0.14220350  0.60673294  1  -0.745584  0  -0.277855  -0.24614  0  3.288915  0
N  N177  1  0.97428711  0.84352234  0.57801000  1  -0.81686  0  -0.28984  -0.202745  0  3.63403  0
N  N178  1  0.61039878  0.71309629  0.98278642  1  -0.802329  0  -0.273261  -0.193534  0  3.547186  0
N  N179  1  0.38446692  0.47547459  0.06179358  1  -0.79893  0  -0.285665  -0.18338  0  3.621593  0
N  N180  1  0.62378818  0.37277800  0.03206008  1  -0.788293  0  -0.277009  -0.175783  0  3.533139  0
N  N181  1  0.55469345  0.56113426  0.09577088  1  -0.7989  0  -0.2908  -0.196443  0  3.633928  0
N  N182  1  0.36510111  0.69160079  0.00950425  1  -0.794208  0  -0.268828  -0.185652  0  3.528756  0
N  N183  1  0.03933061  0.93345885  0.39623126  1  -0.799522  0  -0.281747  -0.188781  0  3.558654  0
