# generated using pymatgen
data_SnH22C26(N2O)2
_symmetry_space_group_name_H-M   'P 1'
_cell_length_a   12.28253782
_cell_length_b   14.05294902
_cell_length_c   17.82816738
_cell_angle_alpha   90.00065872
_cell_angle_beta   90.00072505
_cell_angle_gamma   93.44560431
_symmetry_Int_Tables_number   1
_chemical_formula_structural   SnH22C26(N2O)2
_chemical_formula_sum   'Sn4 H88 C104 N16 O8'
_cell_volume   3071.68376293
_cell_formula_units_Z   4
loop_
 _symmetry_equiv_pos_site_id
 _symmetry_equiv_pos_as_xyz
  1  'x, y, z'
loop_
 _atom_site_type_symbol
 _atom_site_label
 _atom_site_symmetry_multiplicity
 _atom_site_fract_x
 _atom_site_fract_y
 _atom_site_fract_z
 _atom_site_occupancy
 _atom_site_pbe_bader_charge
 _atom_site_pbe_bader_spin_density
 _atom_site_pbe_cm5_charge
 _atom_site_pbe_ddec_charge
 _atom_site_pbe_ddec_spin_density
 _atom_site_pbe_ddec_sum_bond_order
 _atom_site_pbe_magmom
Sn  Sn0  1  0.76769109  0.33751056  0.83113746  1  1.692105  0  0.535135  0.935374  0  3.46935  0
Sn  Sn1  1  0.23229741  0.16247512  0.33114629  1  1.692234  0  0.535128  0.935502  0  3.46914  0
Sn  Sn2  1  0.23230508  0.66249070  0.16885706  1  1.692241  0  0.535147  0.935391  0  3.469164  0
Sn  Sn3  1  0.76769763  0.83752114  0.66885945  1  1.692008  0  0.535127  0.935492  0  3.469159  0
H  H4  1  0.97988355  0.34790095  0.73544269  1  0.067179  0  0.095163  0.089767  0  1.043599  0
H  H5  1  0.02010624  0.15209395  0.23543720  1  0.066645  0  0.095155  0.089761  0  1.043453  0
H  H6  1  0.02011661  0.65209890  0.26456024  1  0.067194  0  0.095161  0.089744  0  1.043551  0
H  H7  1  0.97989310  0.84790590  0.76456404  1  0.066588  0  0.095134  0.089756  0  1.043479  0
H  H8  1  0.17604287  0.39029114  0.75307602  1  0.056546  0  0.0963  0.090745  0  1.003419  0
H  H9  1  0.82394884  0.10970332  0.25307390  1  0.056574  0  0.096299  0.090717  0  1.00345  0
H  H10  1  0.82395791  0.60970586  0.24692522  1  0.056531  0  0.09629  0.090714  0  1.003431  0
H  H11  1  0.17605105  0.89029225  0.74692511  1  0.056404  0  0.096309  0.090754  0  1.003409  0
H  H12  1  0.24777470  0.43445235  0.88036108  1  0.048912  0  0.093031  0.088609  0  1.02783  0
H  H13  1  0.75222579  0.06554127  0.38036016  1  0.048901  0  0.092975  0.088549  0  1.027888  0
H  H14  1  0.75222355  0.56554322  0.11964073  1  0.048889  0  0.093  0.088585  0  1.027881  0
H  H15  1  0.24777722  0.93445217  0.61964109  1  0.048878  0  0.093008  0.088565  0  1.027916  0
H  H16  1  0.12087308  0.43782190  0.98858758  1  0.078143  0  0.095411  0.090322  0  1.044  0
H  H17  1  0.87913138  0.06217769  0.48858719  1  0.078191  0  0.095428  0.090357  0  1.044019  0
H  H18  1  0.87912282  0.56217508  0.01141142  1  0.078092  0  0.095391  0.090278  0  1.043995  0
H  H19  1  0.12087181  0.93781861  0.51141517  1  0.078226  0  0.095427  0.090375  0  1.04399  0
H  H20  1  0.92374306  0.40174895  0.97094530  1  0.031459  0  0.093272  0.083448  0  1.045831  0
H  H21  1  0.07625799  0.09825321  0.47093982  1  0.031583  0  0.093317  0.083549  0  1.045768  0
H  H22  1  0.07625320  0.59825374  0.02905595  1  0.031534  0  0.09329  0.083514  0  1.045783  0
H  H23  1  0.92374289  0.90174522  0.52906255  1  0.031831  0  0.093286  0.08355  0  1.04582  0
H  H24  1  0.51809182  0.27691680  0.85542574  1  0.0302  0  0.102997  0.097472  0  1.001805  0
H  H25  1  0.48190213  0.22308354  0.35542554  1  0.030307  0  0.103041  0.097507  0  1.001844  0
H  H26  1  0.48191164  0.72308378  0.14457271  1  0.030298  0  0.103  0.097473  0  1.001852  0
H  H27  1  0.51810142  0.77691846  0.64457403  1  0.03034  0  0.102999  0.097459  0  1.001835  0
H  H28  1  0.40435131  0.20615373  0.95857685  1  0.05868  0  0.103163  0.098965  0  0.990751  0
H  H29  1  0.59564430  0.29384323  0.45857662  1  0.058675  0  0.103186  0.099003  0  0.99078  0
H  H30  1  0.59565807  0.79385044  0.04142776  1  0.058484  0  0.10316  0.098967  0  0.990706  0
H  H31  1  0.40435599  0.70615876  0.54142239  1  0.058684  0  0.103179  0.099029  0  0.990784  0
H  H32  1  0.49183423  0.15057349  0.07546266  1  0.109246  0  0.09951  0.099654  0  1.036539  0
H  H33  1  0.50817027  0.34942968  0.57546567  1  0.109127  0  0.099532  0.0997  0  1.036432  0
H  H34  1  0.50817285  0.84943280  0.92453859  1  0.109117  0  0.099578  0.099758  0  1.036416  0
H  H35  1  0.49183273  0.65057660  0.42453277  1  0.109161  0  0.099546  0.09968  0  1.036561  0
H  H36  1  0.69373983  0.15949631  0.08647538  1  0.057962  0  0.099663  0.093322  0  1.001132  0
H  H37  1  0.30626497  0.34050845  0.58647372  1  0.057981  0  0.099668  0.093308  0  1.001189  0
H  H38  1  0.30626557  0.84050926  0.91352699  1  0.058031  0  0.099651  0.093283  0  1.001137  0
H  H39  1  0.69373812  0.65949925  0.41352528  1  0.057903  0  0.099678  0.093324  0  1.001155  0
H  H40  1  0.80832859  0.23155754  0.98403229  1  0.072729  0  0.098102  0.089704  0  1.032017  0
H  H41  1  0.19167534  0.26844768  0.48402882  1  0.072794  0  0.098174  0.089814  0  1.031918  0
H  H42  1  0.19167668  0.76844590  0.01596783  1  0.072818  0  0.098138  0.089779  0  1.03196  0
H  H43  1  0.80833251  0.73155790  0.51597187  1  0.072688  0  0.098122  0.089719  0  1.031908  0
H  H44  1  0.55410308  0.45360782  0.80603070  1  0.013284  0  0.095545  0.086075  0  1.014489  0
H  H45  1  0.44589087  0.04638106  0.30602971  1  0.013223  0  0.095554  0.086096  0  1.014548  0
H  H46  1  0.44589368  0.54638988  0.19397110  1  0.013329  0  0.095526  0.086048  0  1.014569  0
H  H47  1  0.55411296  0.95362521  0.69396425  1  0.013348  0  0.09554  0.086107  0  1.014612  0
H  H48  1  0.47146592  0.53735282  0.70032720  1  0.069892  0  0.100412  0.095828  0  0.988601  0
H  H49  1  0.52853889  0.96264455  0.20032791  1  0.069775  0  0.100403  0.095774  0  0.988592  0
H  H50  1  0.52853342  0.46264702  0.29967348  1  0.069906  0  0.100403  0.095801  0  0.988634  0
H  H51  1  0.47145185  0.03736097  0.79966156  1  0.07003  0  0.100472  0.095964  0  0.988393  0
H  H52  1  0.56449027  0.54699057  0.57629135  1  0.089605  0  0.092919  0.085997  0  1.052726  0
H  H53  1  0.43551867  0.95301772  0.07628946  1  0.089561  0  0.092885  0.085958  0  1.052732  0
H  H54  1  0.43551061  0.45300786  0.42371102  1  0.089534  0  0.092905  0.085999  0  1.052771  0
H  H55  1  0.56446999  0.04699348  0.92370561  1  0.089398  0  0.092911  0.086006  0  1.052664  0
H  H56  1  0.74055535  0.47164047  0.55821870  1  0.056122  0  0.097314  0.091574  0  0.995563  0
H  H57  1  0.25945163  0.02836814  0.05821253  1  0.056096  0  0.097302  0.091548  0  0.995504  0
H  H58  1  0.25944820  0.52836153  0.44178030  1  0.056161  0  0.097298  0.09157  0  0.995625  0
H  H59  1  0.74053939  0.97164165  0.94178255  1  0.056062  0  0.097308  0.091586  0  0.995541  0
H  H60  1  0.82128591  0.38302109  0.66176267  1  0.068625  0  0.092585  0.082531  0  1.060285  0
H  H61  1  0.17871414  0.11697697  0.16176276  1  0.068624  0  0.092587  0.082517  0  1.060332  0
H  H62  1  0.17871732  0.61697592  0.33823633  1  0.068467  0  0.092624  0.08257  0  1.06031  0
H  H63  1  0.82128226  0.88302785  0.83823793  1  0.068609  0  0.092656  0.082656  0  1.060233  0
H  H64  1  0.63392093  0.90916116  0.50072917  1  0.119281  0  0.119385  0.108546  0  1.021111  0
H  H65  1  0.36608588  0.59082243  0.00073067  1  0.119487  0  0.119342  0.10844  0  1.021244  0
H  H66  1  0.36609185  0.09083232  0.49927096  1  0.119465  0  0.119412  0.108536  0  1.021122  0
H  H67  1  0.63390359  0.40917595  0.99926945  1  0.119513  0  0.119345  0.108409  0  1.021207  0
H  H68  1  0.57165094  0.08772624  0.46089943  1  0.105507  0  0.106704  0.127496  0  1.032463  0
H  H69  1  0.42835032  0.41225652  0.96089781  1  0.105401  0  0.106738  0.127505  0  1.032454  0
H  H70  1  0.42835451  0.91226721  0.53910014  1  0.105441  0  0.106759  0.127548  0  1.032363  0
H  H71  1  0.57164576  0.58774332  0.03910007  1  0.105404  0  0.10672  0.127491  0  1.032484  0
H  H72  1  0.67789394  0.20686820  0.56458187  1  0.172071  0  0.132186  0.125495  0  1.008996  0
H  H73  1  0.32210302  0.29312194  0.06458202  1  0.171927  0  0.132177  0.125518  0  1.009079  0
H  H74  1  0.32210268  0.79312736  0.43541994  1  0.172028  0  0.132183  0.125538  0  1.008946  0
H  H75  1  0.67789723  0.70687934  0.93541754  1  0.171854  0  0.132197  0.125524  0  1.009055  0
H  H76  1  0.02559250  0.06535122  0.67998505  1  0.130034  0  0.119282  0.114434  0  1.03735  0
H  H77  1  0.97441727  0.43465358  0.17999169  1  0.129889  0  0.119305  0.114425  0  1.037258  0
H  H78  1  0.97440951  0.93465220  0.32001283  1  0.129955  0  0.119275  0.114401  0  1.037328  0
H  H79  1  0.02558745  0.56534129  0.82001012  1  0.129745  0  0.119279  0.114333  0  1.037343  0
H  H80  1  0.16824619  0.20349237  0.61889590  1  0.083586  0  0.104738  0.12585  0  1.029047  0
H  H81  1  0.83175955  0.29651788  0.11889946  1  0.083676  0  0.104768  0.125787  0  1.029115  0
H  H82  1  0.83175831  0.79651177  0.38110535  1  0.083667  0  0.104725  0.125814  0  1.028975  0
H  H83  1  0.16823816  0.70348196  0.88109730  1  0.083721  0  0.104759  0.125769  0  1.029042  0
H  H84  1  0.03085874  0.33262802  0.55743359  1  0.072302  0  0.117989  0.103925  0  0.982309  0
H  H85  1  0.96913008  0.16737694  0.05743495  1  0.072223  0  0.117968  0.103902  0  0.982353  0
H  H86  1  0.96914096  0.66737753  0.44256654  1  0.072154  0  0.118002  0.104018  0  0.982282  0
H  H87  1  0.03087157  0.83262078  0.94255845  1  0.072299  0  0.118019  0.104008  0  0.982391  0
H  H88  1  0.82672753  0.04806940  0.69707159  1  0.143189  0  0.145372  0.097915  0  0.995685  0
H  H89  1  0.17328455  0.45192855  0.19707467  1  0.143216  0  0.14534  0.097954  0  0.995553  0
H  H90  1  0.17327588  0.95193046  0.30292685  1  0.143177  0  0.145352  0.097892  0  0.995697  0
H  H91  1  0.82672013  0.54806561  0.80292265  1  0.143089  0  0.145303  0.097775  0  0.995711  0
C  C92  1  0.93694125  0.37340169  0.85164020  1  -0.337653  0  -0.108781  -0.240615  0  3.952636  0
C  C93  1  0.06305285  0.12660215  0.35163711  1  -0.337326  0  -0.108767  -0.240616  0  3.952777  0
C  C94  1  0.06305556  0.62659672  0.14835993  1  -0.337641  0  -0.108764  -0.240572  0  3.952619  0
C  C95  1  0.93694486  0.87339769  0.64836694  1  -0.337042  0  -0.108682  -0.240462  0  3.952827  0
C  C96  1  0.00939578  0.36984400  0.79087437  1  -0.080338  0  -0.096551  -0.071335  0  4.039407  0
C  C97  1  0.99059539  0.13015675  0.29087053  1  -0.080507  0  -0.096627  -0.07143  0  4.039249  0
C  C98  1  0.99060175  0.63015299  0.20912744  1  -0.080332  0  -0.096593  -0.071376  0  4.039366  0
C  C99  1  0.00940377  0.86984024  0.70913127  1  -0.080489  0  -0.096564  -0.071455  0  4.039235  0
C  C100  1  0.12076440  0.39253993  0.80089450  1  -0.093756  0  -0.098356  -0.089441  0  4.022824  0
C  C101  1  0.87923058  0.10745386  0.30089116  1  -0.093456  0  -0.098285  -0.089295  0  4.02285  0
C  C102  1  0.87923571  0.60745920  0.19910618  1  -0.093782  0  -0.098316  -0.08936  0  4.022888  0
C  C103  1  0.12076998  0.89253957  0.69910840  1  -0.093887  0  -0.098328  -0.089324  0  4.022729  0
C  C104  1  0.16098413  0.41716737  0.87202100  1  -0.011816  0  -0.097336  -0.085803  0  4.015354  0
C  C105  1  0.83901420  0.08282041  0.37201708  1  -0.012168  0  -0.097267  -0.085759  0  4.015538  0
C  C106  1  0.83901426  0.58283033  0.12797968  1  -0.011834  0  -0.097311  -0.085803  0  4.01541  0
C  C107  1  0.16098727  0.91717445  0.62798304  1  -0.011859  0  -0.097319  -0.08579  0  4.015535  0
C  C108  1  0.08976718  0.41933380  0.93295854  1  -0.075492  0  -0.095117  -0.073543  0  3.983552  0
C  C109  1  0.91022929  0.08065848  0.43295466  1  -0.075449  0  -0.095178  -0.073592  0  3.983718  0
C  C110  1  0.91022799  0.58066460  0.06704103  1  -0.075504  0  -0.095156  -0.073534  0  3.983609  0
C  C111  1  0.08976906  0.91933851  0.56704714  1  -0.0754  0  -0.095146  -0.073544  0  3.98363  0
C  C112  1  0.97808211  0.39844247  0.92272576  1  -0.018274  0  -0.097104  -0.077608  0  4.054755  0
C  C113  1  0.02191398  0.10155964  0.42272095  1  -0.01819  0  -0.097071  -0.077693  0  4.054834  0
C  C114  1  0.02191248  0.60155950  0.07727493  1  -0.018271  0  -0.097045  -0.077635  0  4.054748  0
C  C115  1  0.97808454  0.89844021  0.57728254  1  -0.01845  0  -0.097161  -0.077887  0  4.055025  0
C  C116  1  0.67086750  0.26140132  0.91350129  1  -0.373553  0  -0.097134  -0.215549  0  3.938047  0
C  C117  1  0.32912638  0.23859421  0.41350045  1  -0.373109  0  -0.097155  -0.215465  0  3.937981  0
C  C118  1  0.32913605  0.73860068  0.08649771  1  -0.3735  0  -0.09714  -0.215539  0  3.93809  0
C  C119  1  0.67087291  0.76140492  0.58650024  1  -0.373156  0  -0.097173  -0.21557  0  3.937992  0
C  C120  1  0.55700359  0.25262490  0.90646582  1  -0.020681  0  -0.088864  -0.077352  0  4.04599  0
C  C121  1  0.44299183  0.24737125  0.40646437  1  -0.021166  0  -0.088865  -0.077419  0  4.045997  0
C  C122  1  0.44300045  0.74737212  0.09353263  1  -0.020795  0  -0.088878  -0.077331  0  4.045961  0
C  C123  1  0.55700810  0.75262504  0.59353575  1  -0.02118  0  -0.088825  -0.077312  0  4.045925  0
C  C124  1  0.49291316  0.21242710  0.96441803  1  -0.048114  0  -0.090169  -0.083501  0  4.004508  0
C  C125  1  0.50708066  0.28757849  0.46441639  1  -0.047837  0  -0.090258  -0.083607  0  4.00465  0
C  C126  1  0.50709518  0.78757349  0.03558266  1  -0.048228  0  -0.090151  -0.083515  0  4.004344  0
C  C127  1  0.49291886  0.71242421  0.53558261  1  -0.047981  0  -0.090206  -0.083668  0  4.00471  0
C  C128  1  0.54183027  0.18053785  0.02981390  1  -0.029223  0  -0.089616  -0.081259  0  3.99602  0
C  C129  1  0.45817286  0.31946959  0.52981340  1  -0.029335  0  -0.089621  -0.081271  0  3.995821  0
C  C130  1  0.45817839  0.81946774  0.97018734  1  -0.029277  0  -0.089702  -0.081407  0  3.995942  0
C  C131  1  0.54182938  0.68053739  0.47018336  1  -0.029219  0  -0.089639  -0.081183  0  3.995918  0
C  C132  1  0.65540321  0.18613022  0.03602539  1  -0.077081  0  -0.092302  -0.084611  0  4.009792  0
C  C133  1  0.34459592  0.31387658  0.53602327  1  -0.076905  0  -0.092292  -0.084542  0  4.00977  0
C  C134  1  0.34460369  0.81387322  0.96397642  1  -0.076667  0  -0.09231  -0.084496  0  4.009757  0
C  C135  1  0.65540310  0.68613110  0.46397574  1  -0.076986  0  -0.092303  -0.084628  0  4.009758  0
C  C136  1  0.71970214  0.22651831  0.97816139  1  -0.099556  0  -0.092855  -0.080686  0  4.047573  0
C  C137  1  0.28030149  0.27348396  0.47816043  1  -0.099948  0  -0.092935  -0.080914  0  4.047648  0
C  C138  1  0.28030227  0.77348440  0.02183817  1  -0.099753  0  -0.092838  -0.080784  0  4.04756  0
C  C139  1  0.71970219  0.72652018  0.52184082  1  -0.099684  0  -0.092868  -0.080695  0  4.047597  0
C  C140  1  0.69364750  0.41234065  0.74170147  1  -0.349368  0  -0.105781  -0.236496  0  3.960615  0
C  C141  1  0.30635481  0.08765724  0.24169737  1  -0.349314  0  -0.105797  -0.23658  0  3.960873  0
C  C142  1  0.30635189  0.58765991  0.25829753  1  -0.349412  0  -0.105785  -0.236547  0  3.960584  0
C  C143  1  0.69364164  0.91234830  0.75830107  1  -0.349276  0  -0.105805  -0.236583  0  3.960948  0
C  C144  1  0.59467329  0.45542916  0.75150482  1  -0.026356  0  -0.095068  -0.068545  0  4.048672  0
C  C145  1  0.40532617  0.04457244  0.25150401  1  -0.026349  0  -0.095133  -0.068648  0  4.049099  0
C  C146  1  0.40532605  0.54457069  0.24849587  1  -0.026508  0  -0.095082  -0.068507  0  4.048757  0
C  C147  1  0.59466887  0.95543665  0.74849444  1  -0.026504  0  -0.095059  -0.06855  0  4.048982  0
C  C148  1  0.54790428  0.50308105  0.69195860  1  -0.09746  0  -0.090987  -0.069689  0  3.990015  0
C  C149  1  0.45210222  0.99691976  0.19196175  1  -0.099342  0  -0.090944  -0.069563  0  3.989819  0
C  C150  1  0.45209244  0.49691594  0.30804208  1  -0.097308  0  -0.091043  -0.069759  0  3.990115  0
C  C151  1  0.54788784  0.00308789  0.80803781  1  -0.099869  0  -0.091051  -0.069894  0  3.989866  0
C  C152  1  0.60031131  0.50902215  0.62249912  1  -0.040609  0  -0.093118  -0.07973  0  4.011088  0
C  C153  1  0.39968979  0.99097756  0.12249950  1  -0.038717  0  -0.093134  -0.079754  0  4.010785  0
C  C154  1  0.39968690  0.49097270  0.37750157  1  -0.04084  0  -0.093089  -0.079642  0  4.011049  0
C  C155  1  0.60030128  0.00903294  0.87749558  1  -0.038489  0  -0.093237  -0.079815  0  4.010874  0
C  C156  1  0.69926656  0.46668333  0.61242093  1  -0.064354  0  -0.094907  -0.078994  0  3.99716  0
C  C157  1  0.30073259  0.03331468  0.11241965  1  -0.064247  0  -0.0949  -0.078961  0  3.99693  0
C  C158  1  0.30073269  0.53331509  0.38757808  1  -0.064181  0  -0.094898  -0.079042  0  3.997204  0
C  C159  1  0.69925897  0.96669084  0.88757655  1  -0.051582  0  -0.094826  -0.078865  0  3.996841  0
C  C160  1  0.74558508  0.41796779  0.67154645  1  -0.036732  0  -0.098624  -0.074553  0  4.039579  0
C  C161  1  0.25441276  0.08203114  0.17154409  1  -0.036506  0  -0.098599  -0.074501  0  4.039743  0
C  C162  1  0.25441575  0.58202993  0.32845255  1  -0.036528  0  -0.098664  -0.074585  0  4.03968  0
C  C163  1  0.74558274  0.91797226  0.82845492  1  -0.048996  0  -0.098686  -0.074736  0  4.03978  0
C  C164  1  0.65671602  0.97768450  0.52601709  1  0.412587  0  0.020906  0.006604  0  4.013345  0
C  C165  1  0.34329227  0.52230234  0.02602114  1  0.412551  0  0.020995  0.006727  0  4.013636  0
C  C166  1  0.34329530  0.02231183  0.47397911  1  0.412396  0  0.020838  0.006591  0  4.013559  0
C  C167  1  0.65670716  0.47769893  0.97398235  1  0.41231  0  0.021026  0.006903  0  4.013364  0
C  C168  1  0.62537842  0.06896747  0.50599002  1  -0.022274  0  -0.114739  -0.217349  0  4.044245  0
C  C169  1  0.37462442  0.43101679  0.00598796  1  -0.022039  0  -0.114775  -0.217257  0  4.04432  0
C  C170  1  0.37462540  0.93102597  0.49401010  1  -0.022006  0  -0.114766  -0.217367  0  4.044317  0
C  C171  1  0.62537270  0.56898661  0.99400824  1  -0.02183  0  -0.114791  -0.217365  0  4.044342  0
C  C172  1  0.67722856  0.13044682  0.55710571  1  0.35958  0  0.034264  -0.030492  0  3.906334  0
C  C173  1  0.32276563  0.36954033  0.05709702  1  0.359171  0  0.034263  -0.030616  0  3.906643  0
C  C174  1  0.32276314  0.86954800  0.44290114  1  0.359344  0  0.034288  -0.030571  0  3.906566  0
C  C175  1  0.67723122  0.63045879  0.94289581  1  0.35913  0  0.03421  -0.030619  0  3.90661  0
C  C176  1  0.01034858  0.13057394  0.65027219  1  0.320484  0  0.018713  -0.039926  0  3.9221  0
C  C177  1  0.98965912  0.36943253  0.15027388  1  0.320893  0  0.018713  -0.039907  0  3.921631  0
C  C178  1  0.98965519  0.86943162  0.34973018  1  0.320501  0  0.018729  -0.039861  0  3.921809  0
C  C179  1  0.01033800  0.63055804  0.84973186  1  0.320625  0  0.018692  -0.039887  0  3.921505  0
C  C180  1  0.07987868  0.20115961  0.61923036  1  0.028608  0  -0.123583  -0.228268  0  4.057005  0
C  C181  1  0.92012590  0.29884495  0.11923360  1  0.028094  0  -0.123621  -0.228188  0  4.056848  0
C  C182  1  0.92012564  0.79884168  0.38077144  1  0.028527  0  -0.12354  -0.228178  0  4.056907  0
C  C183  1  0.07987150  0.70114990  0.88076484  1  0.028122  0  -0.123594  -0.22811  0  4.056672  0
C  C184  1  0.01000423  0.26695053  0.58779751  1  0.416609  0  0.010523  -0.00299  0  4.05875  0
C  C185  1  0.98999228  0.23305136  0.08780077  1  0.416889  0  0.010493  -0.002955  0  4.058818  0
C  C186  1  0.98999864  0.73305360  0.41220318  1  0.416847  0  0.010424  -0.003245  0  4.059052  0
C  C187  1  0.01000616  0.76694705  0.91219319  1  0.416895  0  0.010425  -0.003219  0  4.058816  0
C  C188  1  0.80595073  0.11032102  0.66415365  1  0.663856  0  0.139578  -0.011961  0  3.853694  0
C  C189  1  0.19405502  0.38967639  0.16415466  1  0.664115  0  0.139601  -0.011753  0  3.853512  0
C  C190  1  0.19405526  0.88968099  0.33584592  1  0.664155  0  0.139608  -0.011821  0  3.853541  0
C  C191  1  0.80593812  0.61031559  0.83584434  1  0.664377  0  0.139569  -0.011621  0  3.853087  0
C  C192  1  0.74764319  0.17884453  0.71809811  1  1.633101  0  0.224238  0.546693  0  4.18613  0
C  C193  1  0.25235988  0.32114658  0.21809734  1  1.632748  0  0.224096  0.546471  0  4.186352  0
C  C194  1  0.25237212  0.82115038  0.28190706  1  1.633089  0  0.224025  0.546476  0  4.186903  0
C  C195  1  0.74761824  0.67885247  0.78190503  1  1.632819  0  0.224126  0.546403  0  4.186742  0
N  N196  1  0.72392415  0.98211751  0.58547669  1  -0.766852  0  -0.213791  -0.25853  0  3.309859  0
N  N197  1  0.27608623  0.51787240  0.08547898  1  -0.767071  0  -0.213861  -0.258629  0  3.310253  0
N  N198  1  0.27608555  0.01787881  0.41452119  1  -0.766819  0  -0.213736  -0.258535  0  3.310165  0
N  N199  1  0.72391533  0.48212389  0.91452675  1  -0.766696  0  -0.213834  -0.258673  0  3.309969  0
N  N200  1  0.73539187  0.07642489  0.60369268  1  -0.795694  0  -0.137552  0.152083  0  3.74105  0
N  N201  1  0.26460905  0.42356516  0.10368845  1  -0.79528  0  -0.137519  0.152052  0  3.741339  0
N  N202  1  0.26460403  0.92357209  0.39631250  1  -0.795743  0  -0.137575  0.152091  0  3.741265  0
N  N203  1  0.73538586  0.57642897  0.89630943  1  -0.795714  0  -0.137535  0.152038  0  3.741064  0
N  N204  1  0.90711139  0.15612255  0.63638757  1  -0.802792  0  -0.14523  0.115848  0  3.814383  0
N  N205  1  0.09289319  0.34387728  0.13639008  1  -0.802988  0  -0.145207  0.11575  0  3.814429  0
N  N206  1  0.09289306  0.84388088  0.36361031  1  -0.802953  0  -0.145258  0.115756  0  3.81421  0
N  N207  1  0.90710230  0.65611328  0.86361341  1  -0.802872  0  -0.145161  0.115922  0  3.813808  0
N  N208  1  0.90473497  0.23987845  0.59879686  1  -0.687541  0  -0.240366  -0.258939  0  3.177113  0
N  N209  1  0.09526242  0.26012149  0.09879807  1  -0.687561  0  -0.240316  -0.258913  0  3.177269  0
N  N210  1  0.09526704  0.76012497  0.40119990  1  -0.687526  0  -0.240262  -0.258786  0  3.177106  0
N  N211  1  0.90473520  0.73987693  0.90119645  1  -0.687385  0  -0.240317  -0.258885  0  3.17706  0
O  O212  1  0.81750291  0.21859416  0.76495928  1  -1.177346  0  -0.29107  -0.50488  0  2.300131  0
O  O213  1  0.18250907  0.28139558  0.26495865  1  -1.1771  0  -0.290951  -0.504846  0  2.300277  0
O  O214  1  0.18250453  0.78140501  0.23504477  1  -1.177029  0  -0.290924  -0.504793  0  2.300196  0
O  O215  1  0.81749085  0.71860071  0.73504877  1  -1.176499  0  -0.290972  -0.504809  0  2.300128  0
O  O216  1  0.64909085  0.18891791  0.71389819  1  -1.128448  0  -0.295341  -0.50157  0  2.135758  0
O  O217  1  0.35091648  0.31107743  0.21389146  1  -1.12871  0  -0.295415  -0.501586  0  2.135729  0
O  O218  1  0.35091464  0.81107626  0.28611035  1  -1.128872  0  -0.295316  -0.5015  0  2.136369  0
O  O219  1  0.64908318  0.68892740  0.78610866  1  -1.129149  0  -0.295331  -0.50148  0  2.136475  0
