# generated using pymatgen
data_CdH16C20(NO2)2
_symmetry_space_group_name_H-M   'P 1'
_cell_length_a   9.61781560
_cell_length_b   10.44226413
_cell_length_c   10.56203205
_cell_angle_alpha   111.89383373
_cell_angle_beta   105.45611599
_cell_angle_gamma   97.86153648
_symmetry_Int_Tables_number   1
_chemical_formula_structural   CdH16C20(NO2)2
_chemical_formula_sum   'Cd2 H32 C40 N4 O8'
_cell_volume   914.99003795
_cell_formula_units_Z   2
loop_
 _symmetry_equiv_pos_site_id
 _symmetry_equiv_pos_as_xyz
  1  'x, y, z'
loop_
 _atom_site_type_symbol
 _atom_site_label
 _atom_site_symmetry_multiplicity
 _atom_site_fract_x
 _atom_site_fract_y
 _atom_site_fract_z
 _atom_site_occupancy
 _atom_site_hle17_bader_spin_density
 _atom_site_hle17_ddec_charge
 _atom_site_hle17_ddec_spin_density
 _atom_site_hle17_ddec_sum_bond_order
 _atom_site_hle17_magmom
 _atom_site_hse06_10hf_bader_spin_density
 _atom_site_hse06_10hf_ddec_charge
 _atom_site_hse06_10hf_ddec_spin_density
 _atom_site_hse06_10hf_ddec_sum_bond_order
 _atom_site_hse06_10hf_magmom
 _atom_site_hse06_bader_spin_density
 _atom_site_hse06_ddec_charge
 _atom_site_hse06_ddec_spin_density
 _atom_site_hse06_ddec_sum_bond_order
 _atom_site_hse06_magmom
 _atom_site_pbe_bader_spin_density
 _atom_site_pbe_cm5_charge
 _atom_site_pbe_ddec_charge
 _atom_site_pbe_ddec_spin_density
 _atom_site_pbe_ddec_sum_bond_order
 _atom_site_pbe_magmom
Cd  Cd0  1  0.88525065  0.05440780  0.34692341  1  0  1.109334  0  1.712408  0  0  0.916114  0  2.163142  0  0  0.976356  0  2.10997  0  0  0.765596  0.872438  0  2.200091  0
Cd  Cd1  1  0.11474951  0.94559049  0.65307885  1  0  1.109311  0  1.712455  0  0  0.916098  0  2.163201  0  0  0.976337  0  2.110028  0  0  0.765573  0.872422  0  2.200152  0
H  H2  1  0.57533062  0.84974428  0.41664537  1  0  0.113691  0  0.920548  0  0  0.129964  0  0.976012  0  0  0.132532  0  0.974111  0  0  0.101746  0.127976  0  0.977673  0
H  H3  1  0.42467617  0.15025837  0.58335644  1  0  0.113696  0  0.92051  0  0  0.129956  0  0.975991  0  0  0.132525  0  0.97409  0  0  0.101743  0.127974  0  0.977642  0
H  H4  1  0.58340329  0.81512219  0.57233920  1  0  0.122691  0  0.922684  0  0  0.136536  0  0.982009  0  0  0.139408  0  0.980016  0  0  0.104336  0.134404  0  0.983817  0
H  H5  1  0.41659421  0.18487399  0.42765781  1  0  0.122686  0  0.922672  0  0  0.136532  0  0.982  0  0  0.139406  0  0.980006  0  0  0.104317  0.134397  0  0.983809  0
H  H6  1  0.67566651  0.59090848  0.57460034  1  0  0.096113  0  0.954409  0  0  0.107434  0  1.014411  0  0  0.109925  0  1.014266  0  0  0.099556  0.10531  0  1.015155  0
H  H7  1  0.32433537  0.40908777  0.42539497  1  0  0.096137  0  0.954365  0  0  0.107443  0  1.014381  0  0  0.109934  0  1.014235  0  0  0.099566  0.10532  0  1.015125  0
H  H8  1  0.63608414  0.33328922  0.42534770  1  0  0.090104  0  0.973756  0  0  0.101163  0  1.036536  0  0  0.103235  0  1.037186  0  0  0.096603  0.099554  0  1.036352  0
H  H9  1  0.36391920  0.66670816  0.57464367  1  0  0.090116  0  0.973833  0  0  0.101183  0  1.036601  0  0  0.103251  0  1.037254  0  0  0.096618  0.099576  0  1.036413  0
H  H10  1  0.48880474  0.39565175  0.03649251  1  0  0.081994  0  0.9801  0  0  0.093954  0  1.043507  0  0  0.096157  0  1.043184  0  0  0.093312  0.092364  0  1.043774  0
H  H11  1  0.51119489  0.60435199  0.96350219  1  0  0.082015  0  0.980061  0  0  0.093992  0  1.043459  0  0  0.096199  0  1.043137  0  0  0.093327  0.092401  0  1.043725  0
H  H12  1  0.52811699  0.65466049  0.18684929  1  0  0.082347  0  0.962718  0  0  0.095631  0  1.022868  0  0  0.098766  0  1.020442  0  0  0.096059  0.093365  0  1.024596  0
H  H13  1  0.47188441  0.34534214  0.81315018  1  0  0.082369  0  0.962718  0  0  0.095646  0  1.022874  0  0  0.098778  0  1.020453  0  0  0.096097  0.09338  0  1.024602  0
H  H14  1  0.42106060  0.12941345  0.12544322  1  0  0.111177  0  0.919459  0  0  0.126986  0  0.975339  0  0  0.128861  0  0.97472  0  0  0.099791  0.125462  0  0.97628  0
H  H15  1  0.57894073  0.87058913  0.87456000  1  0  0.1112  0  0.919456  0  0  0.126975  0  0.975363  0  0  0.128857  0  0.974742  0  0  0.099791  0.125453  0  0.976303  0
H  H16  1  0.52154539  0.16422660  0.01784695  1  0  0.117253  0  0.922835  0  0  0.131975  0  0.979546  0  0  0.134755  0  0.977709  0  0  0.100569  0.129808  0  0.981407  0
H  H17  1  0.47845126  0.83576639  0.98214770  1  0  0.117252  0  0.922784  0  0  0.131958  0  0.979504  0  0  0.13474  0  0.977668  0  0  0.100552  0.12979  0  0.981366  0
H  H18  1  0.06325305  0.39946375  0.53943334  1  0  0.079437  0  0.947847  0  0  0.086747  0  1.014557  0  0  0.08826  0  1.014696  0  0  0.116371  0.085889  0  1.013805  0
H  H19  1  0.93674473  0.60053773  0.46056952  1  0  0.079495  0  0.947877  0  0  0.086805  0  1.014566  0  0  0.088316  0  1.014705  0  0  0.116382  0.085945  0  1.013815  0
H  H20  1  0.05725323  0.61533559  0.74469912  1  0  0.133426  0  0.956484  0  0  0.13928  0  1.021569  0  0  0.143711  0  1.019149  0  0  0.111642  0.136097  0  1.02345  0
H  H21  1  0.94274463  0.38466594  0.25529998  1  0  0.133377  0  0.956475  0  0  0.139236  0  1.021572  0  0  0.143667  0  1.019153  0  0  0.11161  0.136051  0  1.023456  0
H  H22  1  0.71048386  0.33789021  0.78592868  1  0  0.106036  0  0.957148  0  0  0.117969  0  1.014838  0  0  0.120852  0  1.014135  0  0  0.109304  0.116103  0  1.015057  0
H  H23  1  0.28951363  0.66211020  0.21407370  1  0  0.105997  0  0.95713  0  0  0.117942  0  1.014821  0  0  0.120815  0  1.014134  0  0  0.109308  0.116077  0  1.015039  0
H  H24  1  0.72968681  0.13562186  0.57696277  1  0  0.085762  0  0.927915  0  0  0.097922  0  0.984193  0  0  0.09982  0  0.982827  0  0  0.121018  0.096437  0  0.985645  0
H  H25  1  0.27031556  0.86438071  0.42304261  1  0  0.085808  0  0.927871  0  0  0.097939  0  0.984175  0  0  0.099837  0  0.982812  0  0  0.121023  0.096456  0  0.985627  0
H  H26  1  0.91187418  0.77449033  0.82299984  1  0  0.136072  0  0.973889  0  0  0.142518  0  1.038492  0  0  0.146816  0  1.035688  0  0  0.112592  0.139003  0  1.041366  0
H  H27  1  0.08812707  0.22551221  0.17700713  1  0  0.136055  0  0.974029  0  0  0.142512  0  1.038607  0  0  0.146808  0  1.035809  0  0  0.112599  0.139  0  1.041478  0
H  H28  1  0.90007938  0.97409319  0.03974990  1  0  0.085341  0  0.943569  0  0  0.093657  0  1.007933  0  0  0.095943  0  1.006142  0  0  0.120458  0.091923  0  1.009378  0
H  H29  1  0.09991501  0.02590396  0.96025424  1  0  0.085311  0  0.943539  0  0  0.093666  0  1.007867  0  0  0.095934  0  1.0061  0  0  0.120451  0.091933  0  1.009312  0
H  H30  1  0.82161619  0.70653570  0.23333634  1  0  0.077913  0  0.963903  0  0  0.082862  0  1.035293  0  0  0.0846  0  1.034999  0  0  0.112019  0.082189  0  1.034458  0
H  H31  1  0.17838698  0.29346158  0.76666348  1  0  0.077985  0  0.963882  0  0  0.082909  0  1.03529  0  0  0.084655  0  1.034972  0  0  0.11204  0.082238  0  1.034454  0
H  H32  1  0.82561863  0.49353595  0.02483792  1  0  0.105966  0  0.950243  0  0  0.117798  0  1.00775  0  0  0.120577  0  1.007703  0  0  0.108426  0.115662  0  1.008162  0
H  H33  1  0.17438619  0.50646348  0.97516313  1  0  0.105975  0  0.950246  0  0  0.117826  0  1.007734  0  0  0.120605  0  1.007686  0  0  0.108435  0.115689  0  1.008147  0
C  C34  1  0.79620074  0.86416468  0.54769650  1  0  0.700335  0  3.868479  0  0  0.654896  0  4.164282  0  0  0.68882  0  4.157457  0  0  0.20039  0.632153  0  4.167013  0
C  C35  1  0.20379907  0.13583250  0.45230810  1  0  0.700567  0  3.868358  0  0  0.655104  0  4.16419  0  0  0.689028  0  4.157361  0  0  0.200447  0.632358  0  4.166926  0
C  C36  1  0.62781716  0.79837664  0.48335962  1  0  -0.311511  0  3.692898  0  0  -0.356578  0  3.938355  0  0  -0.361754  0  3.944261  0  0  -0.162408  -0.352996  0  3.93428  0
C  C37  1  0.37218306  0.20162169  0.51663983  1  0  -0.311544  0  3.692831  0  0  -0.356618  0  3.938293  0  0  -0.361792  0  3.944198  0  0  -0.162371  -0.353027  0  3.934199  0
C  C38  1  0.60170354  0.64058090  0.39112426  1  0  0.104716  0  3.763424  0  0  0.124313  0  4.001994  0  0  0.123567  0  4.027539  0  0  -0.01534  0.124722  0  3.98349  0
C  C39  1  0.39829460  0.35941746  0.60887089  1  0  0.104711  0  3.763434  0  0  0.124389  0  4.001896  0  0  0.123644  0  4.027438  0  0  -0.015358  0.124795  0  3.983393  0
C  C40  1  0.63460278  0.54837095  0.45637055  1  0  -0.117112  0  3.76463  0  0  -0.135046  0  4.012965  0  0  -0.136761  0  4.034293  0  0  -0.095365  -0.134073  0  3.998671  0
C  C41  1  0.36539861  0.45162744  0.54362450  1  0  -0.117179  0  3.764534  0  0  -0.135125  0  4.012855  0  0  -0.136845  0  4.034186  0  0  -0.095381  -0.134151  0  3.998559  0
C  C42  1  0.61263385  0.40342301  0.37205141  1  0  -0.12301  0  3.741365  0  0  -0.142674  0  3.988088  0  0  -0.145861  0  4.009937  0  0  -0.09654  -0.140482  0  3.973462  0
C  C43  1  0.38736901  0.59657652  0.62793970  1  0  -0.122945  0  3.741289  0  0  -0.142636  0  3.988043  0  0  -0.145817  0  4.009883  0  0  -0.096548  -0.140444  0  3.973421  0
C  C44  1  0.55839452  0.34503200  0.21968053  1  0  0.123804  0  3.743526  0  0  0.144025  0  3.977612  0  0  0.14526  0  4.001563  0  0  -0.009739  0.14319  0  3.961328  0
C  C45  1  0.44160788  0.65496969  0.78030937  1  0  0.123735  0  3.743442  0  0  0.143951  0  3.977556  0  0  0.14519  0  4.00151  0  0  -0.00974  0.143118  0  3.961275  0
C  C46  1  0.52992720  0.43798966  0.15477046  1  0  -0.134765  0  3.776626  0  0  -0.155009  0  4.025546  0  0  -0.158289  0  4.048817  0  0  -0.104043  -0.152399  0  4.008887  0
C  C47  1  0.47007460  0.56201410  0.84522480  1  0  -0.134801  0  3.776592  0  0  -0.15506  0  4.025518  0  0  -0.158349  0  4.048796  0  0  -0.104102  -0.152448  0  4.008858  0
C  C48  1  0.55106615  0.58349523  0.23925581  1  0  -0.140113  0  3.797738  0  0  -0.159733  0  4.052558  0  0  -0.162099  0  4.074505  0  0  -0.10227  -0.157921  0  4.036127  0
C  C49  1  0.44893533  0.41650745  0.76073991  1  0  -0.140081  0  3.797771  0  0  -0.159717  0  4.052584  0  0  -0.162083  0  4.074534  0  0  -0.102255  -0.157906  0  4.036156  0
C  C50  1  0.52868652  0.18613699  0.12988928  1  0  -0.300703  0  3.677662  0  0  -0.341915  0  3.916244  0  0  -0.347578  0  3.923528  0  0  -0.16352  -0.338239  0  3.911821  0
C  C51  1  0.47131219  0.81386351  0.87010682  1  0  -0.300702  0  3.677681  0  0  -0.341849  0  3.916221  0  0  -0.347526  0  3.923519  0  0  -0.163491  -0.338179  0  3.911806  0
C  C52  1  0.65195405  0.12816977  0.19603962  1  0  0.685461  0  3.882966  0  0  0.643071  0  4.181594  0  0  0.675646  0  4.17722  0  0  0.186055  0.62105  0  4.183698  0
C  C53  1  0.34804703  0.87183177  0.80396125  1  0  0.685435  0  3.883055  0  0  0.643035  0  4.181678  0  0  0.675616  0  4.177305  0  0  0.186067  0.621015  0  4.183784  0
C  C54  1  0.98522020  0.39125319  0.59616748  1  0  0.133371  0  3.698763  0  0  0.10373  0  3.95381  0  0  0.11084  0  3.972485  0  0  0.052024  0.099331  0  3.939715  0
C  C55  1  0.01477760  0.60874830  0.40383444  1  0  0.133231  0  3.698715  0  0  0.103597  0  3.953772  0  0  0.110711  0  3.972444  0  0  0.052003  0.0992  0  3.939675  0
C  C56  1  0.98096197  0.51132673  0.71047885  1  0  -0.15961  0  3.655406  0  0  -0.176085  0  3.90058  0  0  -0.183313  0  3.919332  0  0  -0.075968  -0.171331  0  3.887751  0
C  C57  1  0.01903615  0.48867585  0.28952167  1  0  -0.159427  0  3.655281  0  0  -0.175914  0  3.900426  0  0  -0.183143  0  3.91918  0  0  -0.075915  -0.171161  0  3.887599  0
C  C58  1  0.88151863  0.49448382  0.78292997  1  0  0.095127  0  3.755218  0  0  0.107822  0  3.984643  0  0  0.1118  0  4.005805  0  0  0.016243  0.105365  0  3.970158  0
C  C59  1  0.11848075  0.50551554  0.21707155  1  0  0.095059  0  3.755373  0  0  0.107781  0  3.984742  0  0  0.111759  0  4.005902  0  0  0.016249  0.105324  0  3.970257  0
C  C60  1  0.79096381  0.35656179  0.73514056  1  0  -0.153032  0  3.705485  0  0  -0.171286  0  3.951153  0  0  -0.178465  0  3.972623  0  0  -0.077488  -0.166469  0  3.936348  0
C  C61  1  0.20903448  0.64343756  0.26486162  1  0  -0.152899  0  3.705495  0  0  -0.171189  0  3.951159  0  0  -0.178359  0  3.972634  0  0  -0.077487  -0.166371  0  3.936354  0
C  C62  1  0.80090560  0.24342557  0.61875821  1  0  0.13145  0  3.717941  0  0  0.101348  0  3.970891  0  0  0.108186  0  3.989683  0  0  0.049047  0.096255  0  3.958997  0
C  C63  1  0.19909436  0.75657594  0.38124427  1  0  0.131357  0  3.717846  0  0  0.101297  0  3.970789  0  0  0.108135  0  3.989577  0  0  0.049064  0.096203  0  3.958896  0
C  C64  1  0.87379039  0.61647358  0.90713429  1  0  0.095139  0  3.751653  0  0  0.10643  0  3.982299  0  0  0.10987  0  4.004125  0  0  0.014012  0.104431  0  3.967101  0
C  C65  1  0.12621065  0.38352793  0.09286846  1  0  0.095049  0  3.751565  0  0  0.106379  0  3.98215  0  0  0.109819  0  4.003976  0  0  0.013966  0.10438  0  3.966953  0
C  C66  1  0.89513021  0.75432269  0.91262767  1  0  -0.148478  0  3.654676  0  0  -0.165815  0  3.89767  0  0  -0.172532  0  3.916478  0  0  -0.074571  -0.16099  0  3.884912  0
C  C67  1  0.10486801  0.24567662  0.08737732  1  0  -0.148467  0  3.654571  0  0  -0.165839  0  3.897543  0  0  -0.172553  0  3.916344  0  0  -0.07459  -0.161013  0  3.88478  0
C  C68  1  0.88786982  0.86591906  0.03235467  1  0  0.136277  0  3.698716  0  0  0.106104  0  3.948269  0  0  0.113007  0  3.96713  0  0  0.052096  0.101784  0  3.935307  0
C  C69  1  0.11212686  0.13408240  0.96764884  1  0  0.136324  0  3.698535  0  0  0.106126  0  3.948088  0  0  0.113039  0  3.966957  0  0  0.052165  0.101805  0  3.935129  0
C  C70  1  0.84179605  0.71619725  0.14017708  1  0  0.127875  0  3.722501  0  0  0.09699  0  3.978007  0  0  0.103753  0  3.997791  0  0  0.044336  0.092187  0  3.964904  0
C  C71  1  0.15820586  0.28380325  0.85982173  1  0  0.127842  0  3.722432  0  0  0.096998  0  3.977888  0  0  0.103764  0  3.997678  0  0  0.044363  0.092195  0  3.964788  0
C  C72  1  0.84404525  0.59808179  0.02320890  1  0  -0.162467  0  3.71942  0  0  -0.18207  0  3.971374  0  0  -0.189819  0  3.993811  0  0  -0.081819  -0.176933  0  3.956501  0
C  C73  1  0.15595419  0.40191761  0.97678981  1  0  -0.16244  0  3.719414  0  0  -0.182083  0  3.971337  0  0  -0.189835  0  3.993777  0  0  -0.081818  -0.176947  0  3.956466  0
N  N74  1  0.89661894  0.25977476  0.55026446  1  0  -0.327326  0  3.258898  0  0  -0.253514  0  3.523593  0  0  -0.273114  0  3.542884  0  0  -0.325138  -0.239812  0  3.510124  0
N  N75  1  0.10338129  0.74022780  0.44973942  1  0  -0.32729  0  3.258803  0  0  -0.253506  0  3.523511  0  0  -0.273104  0  3.542801  0  0  -0.325137  -0.239804  0  3.510044  0
N  N76  1  0.86410279  0.84813380  0.14536551  1  0  -0.324626  0  3.250616  0  0  -0.246918  0  3.513711  0  0  -0.266993  0  3.53248  0  0  -0.325986  -0.23276  0  3.501089  0
N  N77  1  0.13589549  0.15186555  0.85463667  1  0  -0.324685  0  3.250506  0  0  -0.247006  0  3.513623  0  0  -0.267076  0  3.532377  0  0  -0.326078  -0.232847  0  3.500998  0
O  O78  1  0.85846679  0.92198345  0.48230244  1  0  -0.688525  0  2.067792  0  0  -0.615133  0  2.338704  0  0  -0.646736  0  2.327085  0  0  -0.340696  -0.592397  0  2.345383  0
O  O79  1  0.14153878  0.07802334  0.51771103  1  0  -0.688649  0  2.067748  0  0  -0.615243  0  2.338644  0  0  -0.646846  0  2.327023  0  0  -0.340736  -0.592507  0  2.345328  0
O  O80  1  0.87199662  0.85146530  0.65859082  1  0  -0.638824  0  1.950278  0  0  -0.578106  0  2.187275  0  0  -0.605694  0  2.177988  0  0  -0.326982  -0.558385  0  2.193098  0
O  O81  1  0.12800287  0.14852657  0.34140982  1  0  -0.638927  0  1.950305  0  0  -0.578184  0  2.187271  0  0  -0.605772  0  2.177983  0  0  -0.32704  -0.558468  0  2.19311  0
O  O82  1  0.78111714  0.16393803  0.18893879  1  0  -0.666421  0  1.904731  0  0  -0.609093  0  2.140524  0  0  -0.636706  0  2.131477  0  0  -0.348299  -0.589991  0  2.146358  0
O  O83  1  0.21888361  0.83606241  0.81106349  1  0  -0.666393  0  1.90481  0  0  -0.609061  0  2.1406  0  0  -0.636674  0  2.131555  0  0  -0.34827  -0.589956  0  2.146436  0
O  O84  1  0.62310407  0.05151956  0.26063585  1  0  -0.671681  0  1.883388  0  0  -0.618265  0  2.114901  0  0  -0.645612  0  2.105122  0  0  -0.35743  -0.59928  0  2.121039  0
O  O85  1  0.37689672  0.94848090  0.73936455  1  0  -0.671669  0  1.883383  0  0  -0.618242  0  2.114885  0  0  -0.645593  0  2.105103  0  0  -0.357439  -0.59926  0  2.121023  0
