# generated using pymatgen
data_AlH10C12O5
_symmetry_space_group_name_H-M   'P 1'
_cell_length_a   6.57584910
_cell_length_b   11.15305652
_cell_length_c   11.04930578
_cell_angle_alpha   82.96234125
_cell_angle_beta   73.22605075
_cell_angle_gamma   71.52144135
_symmetry_Int_Tables_number   1
_chemical_formula_structural   AlH10C12O5
_chemical_formula_sum   'Al2 H20 C24 O10'
_cell_volume   735.45159204
_cell_formula_units_Z   2
loop_
 _symmetry_equiv_pos_site_id
 _symmetry_equiv_pos_as_xyz
  1  'x, y, z'
loop_
 _atom_site_type_symbol
 _atom_site_label
 _atom_site_symmetry_multiplicity
 _atom_site_fract_x
 _atom_site_fract_y
 _atom_site_fract_z
 _atom_site_occupancy
 _atom_site_pbe_bader_charge
 _atom_site_pbe_bader_spin_density
 _atom_site_pbe_cm5_charge
 _atom_site_pbe_ddec_charge
 _atom_site_pbe_ddec_spin_density
 _atom_site_pbe_ddec_sum_bond_order
 _atom_site_pbe_magmom
Al  Al0  1  0.49639487  0.50218551  0.49788748  1  2.500127  0  0.390712  1.635857  0  2.586606  0
Al  Al1  1  0.99634280  0.50212995  0.49772887  1  2.500239  0  0.391755  1.628976  0  2.588017  0
H  H2  1  0.29137617  0.34896802  0.56590266  1  0.626137  0  0.345369  0.419208  0  0.883337  0
H  H3  1  0.69720086  0.65733892  0.43730179  1  0.621346  0  0.345245  0.418454  0  0.8821  0
H  H4  1  0.82929900  0.57223774  0.88446804  1  0.098845  0  0.110159  0.114788  0  0.997729  0
H  H5  1  0.15484289  0.44197548  0.11084755  1  0.104395  0  0.111415  0.115864  0  0.995857  0
H  H6  1  0.69682892  0.57290786  0.12238709  1  0.08897  0  0.109367  0.112892  0  1.01006  0
H  H7  1  0.28733193  0.44124014  0.87286202  1  0.106897  0  0.11153  0.118343  0  0.9934  0
H  H8  1  0.24556099  0.22962312  0.32233628  1  0.06636  0  0.101601  0.112976  0  1.038395  0
H  H9  1  0.45671662  0.76141902  0.33679957  1  0.025799  0  0.102718  0.103622  0  1.062233  0
H  H10  1  0.66853020  0.90391108  0.77148936  1  0.025773  0  0.091218  0.121307  0  1.005661  0
H  H11  1  0.77100252  0.76936361  0.67651432  1  0.053857  0  0.09651  0.138511  0  1.032932  0
H  H12  1  0.54067401  0.89611329  0.65370267  1  0.074539  0  0.098062  0.139143  0  0.979271  0
H  H13  1  0.43119543  0.13730734  0.62807323  1  0.046734  0  0.098664  0.136491  0  0.985104  0
H  H14  1  0.55563500  0.24342417  0.66622557  1  0.042928  0  0.098014  0.134313  0  1.03966  0
H  H15  1  0.55037832  0.10204783  0.75677841  1  0.044066  0  0.09358  0.127352  0  1.004605  0
H  H16  1  0.80591740  0.10620866  0.19651690  1  0.061707  0  0.094015  0.130457  0  0.990446  0
H  H17  1  0.57298499  0.23009934  0.17015454  1  0.042612  0  0.089152  0.126083  0  1.021319  0
H  H18  1  0.69728237  0.09867103  0.06977704  1  0.008635  0  0.089419  0.119281  0  0.99973  0
H  H19  1  0.79304912  0.86689194  0.07786620  1  0.020772  0  0.090815  0.121861  0  0.998546  0
H  H20  1  0.80182362  0.74567808  0.19884025  1  0.032941  0  0.093312  0.131938  0  1.003767  0
H  H21  1  0.91716303  0.86963153  0.19916442  1  0.038489  0  0.094577  0.1326  0  0.992286  0
C  C22  1  0.86314076  0.27552186  0.48536395  1  1.510606  0  0.274812  0.664424  0  4.071512  0
C  C23  1  0.64555205  0.50297182  0.72544211  1  1.588128  0  0.264942  0.62762  0  4.108478  0
C  C24  1  0.12894259  0.72849863  0.51117631  1  1.583208  0  0.274051  0.664808  0  4.068998  0
C  C25  1  0.34421877  0.50535136  0.27010481  1  1.528214  0  0.265692  0.625609  0  4.110538  0
C  C26  1  0.56564586  0.50629036  0.86601532  1  -0.022287  0  -0.009181  -0.033663  0  3.964747  0
C  C27  1  0.41934279  0.50707248  0.12931421  1  -0.018579  0  -0.011355  -0.038741  0  3.968989  0
C  C28  1  0.68197391  0.54405041  0.93521416  1  -0.03036  0  -0.078869  -0.092747  0  3.968681  0
C  C29  1  0.30178403  0.47047526  0.06004880  1  0.032854  0  -0.077896  -0.093913  0  3.971911  0
C  C30  1  0.60893282  0.54446702  0.06646110  1  -0.016176  0  -0.076339  -0.088221  0  3.960369  0
C  C31  1  0.37491435  0.46998348  0.92881000  1  -0.112209  0  -0.077457  -0.089806  0  3.961526  0
C  C32  1  0.93259482  0.13420072  0.49176921  1  0.072093  0  -0.014099  -0.151741  0  3.932705  0
C  C33  1  0.14376677  0.06635399  0.41388736  1  -0.054203  0  -0.008635  0.054908  0  4.029901  0
C  C34  1  0.79028836  0.07253344  0.57429906  1  -0.046084  0  -0.0029  0.098516  0  3.920792  0
C  C35  1  0.29221645  0.12660969  0.32860739  1  -0.075101  0  -0.099632  -0.205333  0  3.950507  0
C  C36  1  0.49608882  0.05930053  0.25417117  1  -0.005852  0  -0.010218  0.116703  0  3.95631  0
C  C37  1  0.05830814  0.86972037  0.50532395  1  -0.028035  0  -0.01404  -0.148433  0  3.930011  0
C  C38  1  0.85475477  0.93727523  0.58161572  1  0.042609  0  -0.002938  0.097429  0  3.925202  0
C  C39  1  0.20658322  0.93116455  0.41987782  1  0.017279  0  -0.008913  0.055715  0  4.027912  0
C  C40  1  0.41225527  0.86411636  0.33848257  1  0.011915  0  -0.102429  -0.214134  0  3.970988  0
C  C41  1  0.55790600  0.92406399  0.25919633  1  -0.012685  0  -0.011659  0.115684  0  3.96298  0
C  C42  1  0.70267642  0.87237035  0.67511924  1  -0.070981  0  -0.23847  -0.404581  0  3.962819  0
C  C43  1  0.57145762  0.14357608  0.66020418  1  -0.065712  0  -0.236521  -0.407438  0  3.958402  0
C  C44  1  0.65020435  0.12739653  0.16834075  1  -0.060208  0  -0.23566  -0.394687  0  3.969964  0
C  C45  1  0.77814633  0.84743655  0.17972767  1  -0.028673  0  -0.235187  -0.401626  0  3.971154  0
O  O46  1  0.68133994  0.33297234  0.45678818  1  -1.264866  0  -0.234385  -0.582086  0  2.31124  0
O  O47  1  0.82784939  0.52806149  0.67271056  1  -1.257984  0  -0.233069  -0.581486  0  2.347439  0
O  O48  1  0.00571956  0.67356557  0.48386015  1  -1.267911  0  -0.230614  -0.590675  0  2.342847  0
O  O49  1  0.46564590  0.53258939  0.32757543  1  -1.268462  0  -0.236083  -0.59711  0  2.382594  0
O  O50  1  0.31103494  0.67134483  0.53952124  1  -1.262492  0  -0.234604  -0.586845  0  2.322719  0
O  O51  1  0.16398838  0.47792646  0.32276476  1  -1.260719  0  -0.235324  -0.584494  0  2.345156  0
O  O52  1  0.98776835  0.33046204  0.51134571  1  -1.261889  0  -0.23166  -0.596249  0  2.348754  0
O  O53  1  0.52673542  0.47277743  0.66820307  1  -1.26787  0  -0.237037  -0.601431  0  2.38749  0
O  O54  1  0.25367712  0.43998701  0.55126343  1  -1.430916  0  -0.45058  -0.987791  0  2.212587  0
O  O55  1  0.73816918  0.56557241  0.44463618  1  -1.428822  0  -0.450952  -0.988504  0  2.211582  0
