# generated using pymatgen
data_Zn4H10C28S2Br2Cl2O13
_symmetry_space_group_name_H-M   'P 1'
_cell_length_a   18.54797092
_cell_length_b   19.71806499
_cell_length_c   32.75193039
_cell_angle_alpha   85.96397209
_cell_angle_beta   73.62808702
_cell_angle_gamma   62.07600672
_symmetry_Int_Tables_number   1
_chemical_formula_structural   Zn4H10C28S2Br2Cl2O13
_chemical_formula_sum   'Zn16 H40 C112 S8 Br8 Cl8 O52'
_cell_volume   10127.71685752
_cell_formula_units_Z   4
loop_
 _symmetry_equiv_pos_site_id
 _symmetry_equiv_pos_as_xyz
  1  'x, y, z'
loop_
 _atom_site_type_symbol
 _atom_site_label
 _atom_site_symmetry_multiplicity
 _atom_site_fract_x
 _atom_site_fract_y
 _atom_site_fract_z
 _atom_site_occupancy
 _atom_site_pbe_bader_charge
 _atom_site_pbe_bader_spin_density
 _atom_site_pbe_cm5_charge
 _atom_site_pbe_ddec_charge
 _atom_site_pbe_ddec_spin_density
 _atom_site_pbe_ddec_sum_bond_order
 _atom_site_pbe_magmom
Zn  Zn0  1  0.87281918  0.55470581  0.51849032  1  1.299526  0  0.671709  0.963197  0  2.341324  0
Zn  Zn1  1  0.03864007  0.48371673  0.43874201  1  1.31907  0  0.675354  0.966746  0  2.419113  0
Zn  Zn2  1  0.04375451  0.39867841  0.52369517  1  1.318988  0  0.672878  0.968839  0  2.359773  0
Zn  Zn3  1  0.04469465  0.56228261  0.51782067  1  1.322331  0  0.672891  0.968918  0  2.356991  0
Zn  Zn4  1  0.62567521  0.19229008  0.73314400  1  1.317858  0  0.672644  0.962791  0  2.36354  0
Zn  Zn5  1  0.46436552  0.34991374  0.72516016  1  1.321408  0  0.671309  0.956787  0  2.391233  0
Zn  Zn6  1  0.45595160  0.26605514  0.81253847  1  1.316181  0  0.673382  0.970949  0  2.346758  0
Zn  Zn7  1  0.45585300  0.19157762  0.72817967  1  1.319964  0  0.672227  0.965384  0  2.374902  0
Zn  Zn8  1  0.46309226  0.76208141  0.31271596  1  1.324098  0  0.670045  0.951687  0  2.398546  0
Zn  Zn9  1  0.45370089  0.69099611  0.23166704  1  1.320537  0  0.673631  0.963251  0  2.401587  0
Zn  Zn10  1  0.62560251  0.69390363  0.22911395  1  1.315474  0  0.673052  0.968155  0  2.342964  0
Zn  Zn11  1  0.45572064  0.85212210  0.22702561  1  1.321392  0  0.67362  0.970565  0  2.354221  0
Zn  Zn12  1  0.03612220  0.90002037  0.02499162  1  1.320113  0  0.672862  0.959052  0  2.38416  0
Zn  Zn13  1  0.05155397  0.05603249  0.01822607  1  1.314384  0  0.671589  0.954979  0  2.387828  0
Zn  Zn14  1  0.87615798  0.05951951  0.02002407  1  1.317661  0  0.673063  0.96457  0  2.368292  0
Zn  Zn15  1  0.03825027  0.98382992  0.93723836  1  1.314954  0  0.672641  0.965179  0  2.355181  0
H  H16  1  0.81091834  0.24319462  0.65420889  1  0.134047  0  0.106597  0.12571  0  1.004068  0
H  H17  1  0.54533356  0.48554703  0.61991437  1  0.047251  0  0.09979  0.11121  0  0.977464  0
H  H18  1  0.55090211  0.52589761  0.66521098  1  0.074479  0  0.099404  0.110623  0  0.980168  0
H  H19  1  0.65205739  0.56901765  0.61684134  1  0.056767  0  0.099421  0.112136  0  0.979684  0
H  H20  1  0.64625520  0.52888573  0.57158439  1  0.064253  0  0.099011  0.109954  0  0.981584  0
H  H21  1  0.29350032  0.60259548  0.29598196  1  0.122129  0  0.10705  0.126479  0  1.00343  0
H  H22  1  0.34969507  0.67311842  0.43497633  1  0.056711  0  0.098106  0.108103  0  0.98242  0
H  H23  1  0.25961163  0.76147646  0.43202925  1  0.036653  0  0.098834  0.110242  0  0.982097  0
H  H24  1  0.16214480  0.71197304  0.47759580  1  0.073433  0  0.099978  0.113341  0  0.976574  0
H  H25  1  0.25208471  0.62362632  0.48054054  1  0.06323  0  0.096571  0.108368  0  0.988757  0
H  H26  1  0.80989783  0.60175750  0.29496642  1  0.121724  0  0.106505  0.125828  0  1.003026  0
H  H27  1  0.54854267  0.76158267  0.43022120  1  0.040515  0  0.098727  0.109744  0  0.981045  0
H  H28  1  0.54302622  0.67352135  0.43294428  1  0.031421  0  0.097956  0.107129  0  0.983128  0
H  H29  1  0.64310739  0.62367197  0.47920883  1  0.054406  0  0.097813  0.107966  0  0.982437  0
H  H30  1  0.64884527  0.71163140  0.47642128  1  0.060453  0  0.098922  0.110956  0  0.98043  0
H  H31  1  0.30838249  0.45639065  0.64640428  1  0.117506  0  0.106086  0.125466  0  1.004903  0
H  H32  1  0.32828264  0.17991160  0.62953550  1  0.058887  0  0.099225  0.110201  0  0.977163  0
H  H33  1  0.23769215  0.22057056  0.67496422  1  0.05836  0  0.0975  0.109009  0  0.986308  0
H  H34  1  0.14208306  0.27397052  0.62633398  1  0.056539  0  0.097496  0.110629  0  0.985994  0
H  H35  1  0.23282766  0.23342701  0.58107231  1  0.065672  0  0.100434  0.113904  0  0.976733  0
H  H36  1  0.69071217  0.14711160  0.95589601  1  0.127195  0  0.107389  0.12787  0  1.000318  0
H  H37  1  0.95412896  0.07780817  0.81644994  1  0.051524  0  0.100499  0.111433  0  0.976812  0
H  H38  1  0.94908529  0.98948551  0.81897252  1  0.029363  0  0.100318  0.111735  0  0.977038  0
H  H39  1  0.84684205  0.04029683  0.77384355  1  0.050603  0  0.099671  0.112088  0  0.979419  0
H  H40  1  0.85194532  0.12852401  0.77140448  1  0.05876  0  0.100683  0.11314  0  0.975559  0
H  H41  1  0.19269794  0.05186711  0.84406644  1  0.114397  0  0.106474  0.126036  0  1.002584  0
H  H42  1  0.17078159  0.21500790  0.97489523  1  0.080881  0  0.099028  0.109429  0  0.981062  0
H  H43  1  0.26189582  0.12702075  0.97710342  1  0.066634  0  0.098451  0.107754  0  0.98159  0
H  H44  1  0.35672994  0.17414586  0.92641072  1  0.075474  0  0.097752  0.110106  0  0.985938  0
H  H45  1  0.26564922  0.26204986  0.92427530  1  0.033916  0  0.100334  0.114279  0  0.975049  0
H  H46  1  0.19300534  0.79436659  0.10325528  1  0.113941  0  0.106721  0.1265  0  1.003433  0
H  H47  1  0.26153556  0.03168467  0.07482113  1  0.069135  0  0.098677  0.109029  0  0.980585  0
H  H48  1  0.17044219  0.07190174  0.12005885  1  0.070446  0  0.099208  0.11031  0  0.981288  0
H  H49  1  0.26539444  0.01943900  0.16885604  1  0.0827  0  0.100688  0.114126  0  0.974991  0
H  H50  1  0.35650586  0.97929109  0.12370559  1  0.039168  0  0.097068  0.109036  0  0.9878  0
H  H51  1  0.68898072  0.00742624  0.09648634  1  0.12941  0  0.10743  0.127216  0  1.001293  0
H  H52  1  0.94930265  0.72447466  0.08492758  1  0.018851  0  0.099006  0.10955  0  0.981919  0
H  H53  1  0.95406584  0.76452174  0.13060851  1  0.059272  0  0.100883  0.112384  0  0.975978  0
H  H54  1  0.85286375  0.72103124  0.17821823  1  0.058983  0  0.101829  0.114561  0  0.974381  0
H  H55  1  0.84833207  0.68055486  0.13266405  1  0.052965  0  0.100419  0.112604  0  0.976395  0
C  C56  1  0.86274093  0.56748286  0.43043927  1  1.555904  0  0.225165  0.615911  0  4.171309  0
C  C57  1  0.12486669  0.31532175  0.43861481  1  1.602523  0  0.215655  0.620222  0  4.216211  0
C  C58  1  0.86563627  0.42754329  0.56828764  1  1.586678  0  0.227212  0.622565  0  4.163585  0
C  C59  1  0.13882348  0.43510717  0.56815951  1  1.577065  0  0.226543  0.617715  0  4.16544  0
C  C60  1  0.87159625  0.68417843  0.56056478  1  1.602992  0  0.215853  0.622942  0  4.210308  0
C  C61  1  0.13736821  0.56906418  0.43083187  1  1.563078  0  0.22621  0.617136  0  4.171427  0
C  C62  1  0.63937868  0.31836020  0.68152609  1  1.556119  0  0.230401  0.612291  0  4.170671  0
C  C63  1  0.37671398  0.43544649  0.80978390  1  1.558835  0  0.216377  0.622288  0  4.209815  0
C  C64  1  0.63337969  0.18266619  0.82126904  1  1.55755  0  0.226874  0.61955  0  4.162682  0
C  C65  1  0.36150152  0.18041098  0.81674231  1  1.561233  0  0.226384  0.619863  0  4.164369  0
C  C66  1  0.62751057  0.06567716  0.68851843  1  1.620129  0  0.216815  0.622918  0  4.20863  0
C  C67  1  0.36335843  0.31866160  0.68035720  1  1.5596  0  0.228834  0.607309  0  4.171468  0
C  C68  1  0.36293134  0.68061107  0.32001485  1  1.568645  0  0.228674  0.608196  0  4.178091  0
C  C69  1  0.62289068  0.56567187  0.18873385  1  1.552131  0  0.215854  0.622416  0  4.211026  0
C  C70  1  0.63834792  0.68067323  0.31841826  1  1.576594  0  0.229901  0.611833  0  4.17174  0
C  C71  1  0.63385700  0.82155967  0.18057556  1  1.583305  0  0.227216  0.620811  0  4.163523  0
C  C72  1  0.37564396  0.93179835  0.31321933  1  1.589882  0  0.215083  0.620414  0  4.216607  0
C  C73  1  0.36135338  0.81742665  0.18137726  1  1.583109  0  0.2265  0.618168  0  4.169911  0
C  C74  1  0.13865114  0.93125271  0.06867650  1  1.549487  0  0.228647  0.610269  0  4.173239  0
C  C75  1  0.88285233  0.18395419  0.06120752  1  1.604457  0  0.214527  0.618334  0  4.21562  0
C  C76  1  0.86079060  0.93271106  0.06962376  1  1.570787  0  0.230275  0.61147  0  4.169014  0
C  C77  1  0.86232348  0.06889585  0.93137200  1  1.555729  0  0.230275  0.612742  0  4.165804  0
C  C78  1  0.12171373  0.81451204  0.94016935  1  1.599153  0  0.215712  0.621302  0  4.211534  0
C  C79  1  0.13935095  0.06718603  0.93015628  1  1.544766  0  0.230206  0.611511  0  4.169353  0
C  C80  1  0.73398215  0.80414401  0.60124188  1  0.131217  0  0.009893  0.10494  0  4.076533  0
C  C81  1  0.76483728  0.94482565  0.64877963  1  0.116593  0  0.009394  0.103589  0  4.081471  0
C  C82  1  0.82165945  0.75861952  0.58586397  1  -0.098595  0  -0.027399  -0.183951  0  3.928279  0
C  C83  1  0.67714272  0.99069154  0.66386488  1  -0.104793  0  -0.028583  -0.184724  0  3.932041  0
C  C84  1  0.78552361  0.87682636  0.62587539  1  -0.130412  0  -0.029098  -0.075157  0  4.099135  0
C  C85  1  0.71319759  0.87217779  0.62416273  1  -0.126059  0  -0.027593  -0.072555  0  4.094561  0
C  C86  1  0.20268916  0.22548385  0.36933700  1  0.085953  0  0.011405  0.105282  0  4.075495  0
C  C87  1  0.29786988  0.02145912  0.38274562  1  0.215516  0  0.01025  0.104984  0  4.078273  0
C  C88  1  0.17414125  0.24097545  0.41347145  1  -0.094622  0  -0.028176  -0.182541  0  3.931636  0
C  C89  1  0.32648392  0.00592450  0.33862875  1  -0.143299  0  -0.029177  -0.185875  0  3.935415  0
C  C90  1  0.25270623  0.10158590  0.39397603  1  -0.144727  0  -0.028382  -0.074278  0  4.099588  0
C  C91  1  0.24789365  0.14530853  0.35819531  1  -0.144268  0  -0.027199  -0.07146  0  4.095512  0
C  C92  1  0.69662222  0.34612716  0.65297683  1  -0.086413  0  -0.010696  -0.059392  0  3.97956  0
C  C93  1  0.81168323  0.39668363  0.59733377  1  0.072535  0  -0.014778  -0.125568  0  3.923774  0
C  C94  1  0.66702053  0.41790166  0.63615597  1  0.028752  0  -0.003564  0.060875  0  3.886972  0
C  C95  1  0.84113692  0.32374369  0.61491061  1  -0.11183  0  -0.005929  0.10294  0  3.909835  0
C  C96  1  0.72302228  0.44155395  0.60941589  1  -0.049325  0  -3.8e-05  0.074943  0  3.874465  0
C  C97  1  0.78536668  0.29965464  0.64164067  1  0.072402  0  -0.091658  -0.159627  0  3.96897  0
C  C98  1  0.58855957  0.49190760  0.63453492  1  -0.030009  0  -0.149952  -0.199765  0  3.883606  0
C  C99  1  0.65177927  0.51897968  0.60424623  1  -0.027484  0  -0.150039  -0.198756  0  3.878021  0
C  C100  1  0.30579880  0.65255454  0.34825426  1  -0.016518  0  -0.009575  -0.057982  0  3.981908  0
C  C101  1  0.19388015  0.59642301  0.40110560  1  -0.002237  0  -0.014755  -0.124496  0  3.929787  0
C  C102  1  0.27975598  0.66404659  0.39256836  1  -0.032513  0  -0.004848  0.058672  0  3.889298  0
C  C103  1  0.22076665  0.58508760  0.35581114  1  -0.046409  0  -0.005296  0.102673  0  3.911678  0
C  C104  1  0.22572940  0.63681220  0.41764343  1  0.019571  0  -0.000476  0.075583  0  3.878748  0
C  C105  1  0.27475041  0.61235280  0.33053486  1  0.008324  0  -0.089872  -0.155147  0  3.964407  0
C  C106  1  0.28579799  0.69859788  0.43054698  1  -0.003388  0  -0.150758  -0.20042  0  3.886796  0
C  C107  1  0.22471009  0.66765688  0.45910013  1  -0.034008  0  -0.150098  -0.197713  0  3.873841  0
C  C108  1  0.69518214  0.65227807  0.34680709  1  -0.019821  0  -0.010596  -0.05955  0  3.980027  0
C  C109  1  0.80913740  0.59530037  0.40041390  1  0.029878  0  -0.014409  -0.122838  0  3.926705  0
C  C110  1  0.66499517  0.66375454  0.39113900  1  -0.025547  0  -0.003639  0.059512  0  3.885729  0
C  C111  1  0.83931693  0.58414937  0.35511613  1  -0.131416  0  -0.005427  0.10301  0  3.910799  0
C  C112  1  0.72050555  0.63602413  0.41657496  1  0.007828  0  -0.000444  0.073699  0  3.87682  0
C  C113  1  0.78394154  0.61175942  0.32948983  1  0.052847  0  -0.090504  -0.157207  0  3.971187  0
C  C114  1  0.58620575  0.69867703  0.42881608  1  0.01635  0  -0.150013  -0.197518  0  3.884717  0
C  C115  1  0.64890221  0.66740352  0.45778256  1  -0.0135  0  -0.150217  -0.197174  0  3.87688  0
C  C116  1  0.30568761  0.34823308  0.65237557  1  -0.045415  0  -0.010084  -0.056544  0  3.974927  0
C  C117  1  0.19550880  0.40907633  0.59677296  1  0.011189  0  -0.013833  -0.124082  0  3.924123  0
C  C118  1  0.27157856  0.30643802  0.63962437  1  0.064011  0  -0.004504  0.058826  0  3.884269  0
C  C119  1  0.23043954  0.45130909  0.61014906  1  -0.085912  0  -0.005913  0.103198  0  3.914105  0
C  C120  1  0.21869008  0.33629799  0.61285171  1  -0.053794  0  0.001437  0.07817  0  3.868389  0
C  C121  1  0.28333542  0.42178047  0.63698707  1  0.033007  0  -0.092024  -0.160486  0  3.9687  0
C  C122  1  0.26731667  0.23135560  0.64281972  1  -0.007859  0  -0.149344  -0.196761  0  3.87902  0
C  C123  1  0.20749071  0.26484168  0.61246078  1  -0.027502  0  -0.15034  -0.199953  0  3.87225  0
C  C124  1  0.29811291  0.58446355  0.82046949  1  0.132185  0  0.010171  0.103649  0  4.077992  0
C  C125  1  0.20161070  0.66544457  0.92956817  1  0.131688  0  0.010369  0.103737  0  4.079086  0
C  C126  1  0.32736504  0.51039953  0.83448411  1  -0.111608  0  -0.027732  -0.183359  0  3.929398  0
C  C127  1  0.17189998  0.73952182  0.91555160  1  -0.155095  0  -0.028844  -0.185227  0  3.930489  0
C  C128  1  0.24763280  0.60889597  0.89485048  1  -0.116632  0  -0.027873  -0.072184  0  4.096696  0
C  C129  1  0.25213306  0.64102604  0.85519175  1  -0.125283  0  -0.027812  -0.073468  0  4.09845  0
C  C130  1  0.80452794  0.09728394  0.90339261  1  0.012034  0  -0.009649  -0.058505  0  3.973347  0
C  C131  1  0.68788006  0.15489983  0.85098462  1  0.05846  0  -0.014932  -0.126931  0  3.925677  0
C  C132  1  0.83323441  0.08644574  0.85903059  1  -0.045888  0  -0.004827  0.057046  0  3.887718  0
C  C133  1  0.65928257  0.16513331  0.89628126  1  -0.087565  0  -0.005673  0.102726  0  3.913094  0
C  C134  1  0.77652198  0.11457138  0.83418101  1  -0.03658  0  0.001102  0.078246  0  3.870496  0
C  C135  1  0.71576381  0.13749127  0.92133235  1  0.022612  0  -0.091098  -0.158936  0  3.962093  0
C  C136  1  0.91113179  0.05240559  0.82083549  1  -0.002727  0  -0.150001  -0.200142  0  3.884359  0
C  C137  1  0.84716935  0.08416170  0.79258179  1  0.008588  0  -0.149074  -0.197718  0  3.875817  0
C  C138  1  0.19534260  0.09615073  0.90145267  1  -0.027912  0  -0.009932  -0.057309  0  3.974963  0
C  C139  1  0.30415945  0.15097844  0.84378852  1  -0.01664  0  -0.01535  -0.125561  0  3.92261  0
C  C140  1  0.22829099  0.13695675  0.91633862  1  0.008383  0  -0.003998  0.058163  0  3.883175  0
C  C141  1  0.26967362  0.10975437  0.82895487  1  -0.118233  0  -0.006066  0.101669  0  3.912686  0
C  C142  1  0.28055511  0.16306098  0.88826434  1  0.043099  0  0.001652  0.079096  0  3.87007  0
C  C143  1  0.21742599  0.08335081  0.85690150  1  0.06774  0  -0.091588  -0.160089  0  3.969614  0
C  C144  1  0.23198294  0.16977521  0.95571580  1  -0.058466  0  -0.149172  -0.194813  0  3.881487  0
C  C145  1  0.29136530  0.19927058  0.92401417  1  -0.005259  0  -0.150089  -0.200605  0  3.871305  0
C  C146  1  0.64454945  0.44603569  0.14853927  1  0.172992  0  0.011027  0.104845  0  4.077999  0
C  C147  1  0.86207461  0.30373700  0.10107420  1  0.133007  0  0.00975  0.104045  0  4.078309  0
C  C148  1  0.67249505  0.49116949  0.16361948  1  -0.119242  0  -0.027086  -0.183884  0  3.929252  0
C  C149  1  0.83401337  0.25865058  0.08607174  1  -0.14519  0  -0.028853  -0.186257  0  3.935706  0
C  C150  1  0.79296279  0.37223181  0.12383996  1  -0.134102  0  -0.028235  -0.074194  0  4.096743  0
C  C151  1  0.71388590  0.37775036  0.12567608  1  -0.150323  0  -0.027437  -0.072204  0  4.097467  0
C  C152  1  0.19534108  0.90263734  0.09704812  1  0.010502  0  -0.009646  -0.057616  0  3.982203  0
C  C153  1  0.30460993  0.84327032  0.15291616  1  0.026544  0  -0.01422  -0.124175  0  3.927339  0
C  C154  1  0.22847595  0.94522857  0.10992894  1  -0.01914  0  -0.004024  0.058269  0  3.889039  0
C  C155  1  0.27047780  0.80026126  0.13954015  1  -0.116526  0  -0.004897  0.104517  0  3.912215  0
C  C156  1  0.28088400  0.91607822  0.13691563  1  0.007582  0  0.001035  0.077103  0  3.874727  0
C  C157  1  0.21777755  0.82928481  0.11261288  1  0.027449  0  -0.091234  -0.159463  0  3.97036  0
C  C158  1  0.23177261  0.02075925  0.10689518  1  -0.050947  0  -0.151738  -0.201066  0  3.884588  0
C  C159  1  0.29124545  0.98793885  0.13746017  1  -0.012047  0  -0.148702  -0.196001  0  3.870741  0
C  C160  1  0.80340534  0.90435345  0.09752725  1  0.01096  0  -0.010274  -0.058549  0  3.975398  0
C  C161  1  0.68802294  0.85269420  0.15194460  1  0.007652  0  -0.014808  -0.124588  0  3.924349  0
C  C162  1  0.83286277  0.83216415  0.11390639  1  -0.014049  0  -0.003312  0.059102  0  3.886033  0
C  C163  1  0.65871254  0.92596744  0.13473287  1  -0.10968  0  -0.00563  0.101342  0  3.91381  0
C  C164  1  0.77673336  0.80805758  0.14011741  1  0.013497  0  -0.000677  0.073833  0  3.874586  0
C  C165  1  0.71459982  0.95064378  0.10867831  1  0.018428  0  -0.090726  -0.157227  0  3.965654  0
C  C166  1  0.91124481  0.75819431  0.11565387  1  0.014701  0  -0.149664  -0.199101  0  3.884708  0
C  C167  1  0.84794774  0.73077356  0.14545495  1  -0.01005  0  -0.148621  -0.197268  0  3.874962  0
S  S168  1  0.87857796  0.79879069  0.59949227  1  0.312566  0  0.093557  0.159319  0  2.783157  0
S  S169  1  0.62015443  0.95063119  0.65018274  1  0.305372  0  0.092933  0.158329  0  2.780462  0
S  S170  1  0.20249442  0.15790343  0.44118423  1  0.295082  0  0.091657  0.155497  0  2.777588  0
S  S171  1  0.29819478  0.08907343  0.31098029  1  0.305624  0  0.09571  0.161935  0  2.780079  0
S  S172  1  0.29895879  0.50999480  0.88993360  1  0.347448  0  0.094503  0.159063  0  2.777411  0
S  S173  1  0.20029208  0.73990401  0.86008733  1  0.337921  0  0.09308  0.158618  0  2.776464  0
S  S174  1  0.78307071  0.45026314  0.14978557  1  0.342519  0  0.091916  0.156845  0  2.772468  0
S  S175  1  0.72347469  0.29988128  0.09979531  1  0.337903  0  0.097336  0.16509  0  2.777382  0
Br  Br176  1  0.95851083  0.25047072  0.60456023  1  -0.046078  0  0.008548  -0.072743  0  1.389953  0
Br  Br177  1  0.18596696  0.53381152  0.32430390  1  -0.027195  0  0.010551  -0.066914  0  1.423652  0
Br  Br178  1  0.95670100  0.53143953  0.32393591  1  -0.034777  0  0.010341  -0.067247  0  1.426731  0
Br  Br179  1  0.21040611  0.55185639  0.59316304  1  -0.051753  0  0.006891  -0.075199  0  1.390594  0
Br  Br180  1  0.54210311  0.21699370  0.92807455  1  -0.044182  0  0.009715  -0.070809  0  1.386886  0
Br  Br181  1  0.28876065  0.08675039  0.77001102  1  -0.04749  0  0.008903  -0.071821  0  1.390379  0
Br  Br182  1  0.29054965  0.69993007  0.15670486  1  -0.040125  0  0.010566  -0.067035  0  1.392593  0
Br  Br183  1  0.54133186  0.99864730  0.14449759  1  -0.045646  0  0.010417  -0.070552  0  1.391867  0
Cl  Cl184  1  0.65740263  0.78452198  0.59454837  1  -0.164519  0  0.006294  -0.034882  0  1.489523  0
Cl  Cl185  1  0.84144500  0.96430661  0.65546469  1  -0.149498  0  0.009964  -0.028526  0  1.489598  0
Cl  Cl186  1  0.18831899  0.29091004  0.33151688  1  -0.144847  0  0.013375  -0.02445  0  1.512271  0
Cl  Cl187  1  0.31238610  0.95572971  0.42050740  1  -0.156773  0  0.006589  -0.0339  0  1.493659  0
Cl  Cl188  1  0.31248268  0.60884090  0.76883106  1  -0.158317  0  0.010011  -0.028077  0  1.490866  0
Cl  Cl189  1  0.18733366  0.64112029  0.98120172  1  -0.161074  0  0.011848  -0.025734  0  1.49076  0
Cl  Cl190  1  0.54179832  0.46628632  0.15503114  1  -0.152026  0  0.014417  -0.022424  0  1.501958  0
Cl  Cl191  1  0.96519673  0.28303020  0.09428345  1  -0.163735  0  0.008275  -0.031633  0  1.492911  0
O  O192  1  0.99796627  0.50080417  0.50108537  1  -1.218796  0  -0.571737  -1.02965  0  2.52811  0
O  O193  1  0.82271497  0.58245763  0.47024949  1  -1.149891  0  -0.309282  -0.53783  0  2.316905  0
O  O194  1  0.10140185  0.37543154  0.41802030  1  -1.16409  0  -0.31192  -0.53095  0  2.381208  0
O  O195  1  0.94584126  0.38604943  0.55790366  1  -1.185846  0  -0.315696  -0.549692  0  2.436164  0
O  O196  1  0.94290349  0.53144704  0.41464773  1  -1.163336  0  -0.313992  -0.542706  0  2.453311  0
O  O197  1  0.82500820  0.49472532  0.55613182  1  -1.161925  0  -0.309712  -0.538755  0  2.322512  0
O  O198  1  0.10990104  0.31256052  0.47920691  1  -1.141956  0  -0.318921  -0.54551  0  2.322367  0
O  O199  1  0.11815992  0.38570255  0.55904124  1  -1.159986  0  -0.308735  -0.534102  0  2.327247  0
O  O200  1  0.95239485  0.65797540  0.55060986  1  -1.17045  0  -0.318609  -0.542181  0  2.334673  0
O  O201  1  0.11548979  0.50242452  0.55523842  1  -1.177574  0  -0.314624  -0.548295  0  2.430279  0
O  O202  1  0.83134841  0.65304904  0.55100133  1  -1.163567  0  -0.313729  -0.5395  0  2.353272  0
O  O203  1  0.11767083  0.52495613  0.41534373  1  -1.170981  0  -0.313516  -0.542327  0  2.44919  0
O  O204  1  0.11366174  0.59216934  0.47024213  1  -1.156547  0  -0.30875  -0.536378  0  2.318053  0
O  O205  1  0.50078349  0.24978651  0.74992871  1  -1.232244  0  -0.571142  -1.028948  0  2.528538  0
O  O206  1  0.67412809  0.25227632  0.69572843  1  -1.177234  0  -0.313664  -0.542976  0  2.33386  0
O  O207  1  0.39974320  0.43569421  0.76930615  1  -1.155234  0  -0.314019  -0.537312  0  2.367786  0
O  O208  1  0.55315453  0.22009863  0.83673453  1  -1.164708  0  -0.314841  -0.549877  0  2.427743  0
O  O209  1  0.55973026  0.36398982  0.68925966  1  -1.163563  0  -0.308449  -0.533869  0  2.328082  0
O  O210  1  0.67385892  0.16579406  0.78157088  1  -1.156684  0  -0.308921  -0.535464  0  2.329812  0
O  O211  1  0.39185297  0.37644476  0.83179857  1  -1.166057  0  -0.319015  -0.544388  0  2.323529  0
O  O212  1  0.37941571  0.22144965  0.83671402  1  -1.16174  0  -0.308544  -0.536661  0  2.322546  0
O  O213  1  0.54667303  0.09492003  0.69596148  1  -1.18753  0  -0.319408  -0.543468  0  2.333988  0
O  O214  1  0.38852539  0.16260650  0.77684111  1  -1.17283  0  -0.314469  -0.547373  0  2.436685  0
O  O215  1  0.66783338  0.09464705  0.70013943  1  -1.162073  0  -0.313658  -0.538736  0  2.35627  0
O  O216  1  0.38857563  0.36359771  0.69037201  1  -1.169674  0  -0.313365  -0.539753  0  2.342387  0
O  O217  1  0.38275470  0.25038663  0.69178655  1  -1.161962  0  -0.307606  -0.533527  0  2.323284  0
O  O218  1  0.50074057  0.75028409  0.25017479  1  -1.242177  0  -0.571654  -1.02855  0  2.53072  0
O  O219  1  0.38827254  0.71660865  0.33860839  1  -1.175959  0  -0.308189  -0.533793  0  2.33003  0
O  O220  1  0.54230370  0.59359239  0.20003627  1  -1.132053  0  -0.312157  -0.532352  0  2.372018  0
O  O221  1  0.67325557  0.66773451  0.27824481  1  -1.179807  0  -0.313844  -0.544303  0  2.329131  0
O  O222  1  0.38159533  0.66650832  0.27990093  1  -1.179227  0  -0.311532  -0.537661  0  2.346109  0
O  O223  1  0.55875627  0.71583057  0.33737748  1  -1.167886  0  -0.309015  -0.533731  0  2.333633  0
O  O224  1  0.66607415  0.59545180  0.19697977  1  -1.163972  0  -0.320277  -0.548606  0  2.318325  0
O  O225  1  0.67415048  0.75300262  0.19124573  1  -1.166206  0  -0.310099  -0.538925  0  2.321764  0
O  O226  1  0.39132478  0.93580269  0.27268366  1  -1.151873  0  -0.318534  -0.542783  0  2.328068  0
O  O227  1  0.55379911  0.86411422  0.19222585  1  -1.182049  0  -0.314606  -0.549478  0  2.43432  0
O  O228  1  0.39803612  0.87108559  0.33340772  1  -1.16792  0  -0.314378  -0.537151  0  2.374688  0
O  O229  1  0.38745760  0.74891827  0.19262594  1  -1.178219  0  -0.314339  -0.545218  0  2.446106  0
O  O230  1  0.37966873  0.86747769  0.19205951  1  -1.159544  0  -0.308597  -0.536616  0  2.323486  0
O  O231  1  0.00072891  0.99999667  0.99982642  1  -1.231509  0  -0.57152  -1.029115  0  2.532715  0
O  O232  1  0.11078547  0.88734821  0.06017531  1  -1.174086  0  -0.313665  -0.541409  0  2.341091  0
O  O233  1  0.96365622  0.15356171  0.05081868  1  -1.169106  0  -0.313978  -0.537532  0  2.370122  0
O  O234  1  0.82630304  0.00056001  0.05734047  1  -1.17734  0  -0.312577  -0.541035  0  2.331109  0
O  O235  1  0.12276402  0.99786811  0.05537777  1  -1.161643  0  -0.308746  -0.534853  0  2.330665  0
O  O236  1  0.94033779  0.88588055  0.06039335  1  -1.170622  0  -0.308198  -0.534757  0  2.326888  0
O  O237  1  0.83828207  0.15635023  0.05227365  1  -1.172242  0  -0.318482  -0.541574  0  2.327579  0
O  O238  1  0.82777492  0.08538369  0.97142055  1  -1.169813  0  -0.313068  -0.541022  0  2.332611  0
O  O239  1  0.10330910  0.87351943  0.91802233  1  -1.171119  0  -0.320186  -0.5463  0  2.323556  0
O  O240  1  0.94178764  0.03035168  0.91258774  1  -1.16048  0  -0.308792  -0.538125  0  2.318167  0
O  O241  1  0.10113805  0.81442709  0.98068515  1  -1.155725  0  -0.313122  -0.535871  0  2.366834  0
O  O242  1  0.12223895  0.08236494  0.97006520  1  -1.152376  0  -0.307883  -0.533426  0  2.331372  0
O  O243  1  0.11338260  0.03021945  0.91277801  1  -1.175938  0  -0.314441  -0.544067  0  2.32912  0
