# generated using pymatgen
data_CoH3C7NO4
_symmetry_space_group_name_H-M   'P 1'
_cell_length_a   6.66835648
_cell_length_b   8.34789273
_cell_length_c   12.81315289
_cell_angle_alpha   90.00008178
_cell_angle_beta   90.00086812
_cell_angle_gamma   89.99994043
_symmetry_Int_Tables_number   1
_chemical_formula_structural   CoH3C7NO4
_chemical_formula_sum   'Co4 H12 C28 N4 O16'
_cell_volume   713.26625289
_cell_formula_units_Z   4
loop_
 _symmetry_equiv_pos_site_id
 _symmetry_equiv_pos_as_xyz
  1  'x, y, z'
loop_
 _atom_site_type_symbol
 _atom_site_label
 _atom_site_symmetry_multiplicity
 _atom_site_fract_x
 _atom_site_fract_y
 _atom_site_fract_z
 _atom_site_occupancy
 _atom_site_hle17_ddec_charge
 _atom_site_hle17_ddec_spin_density
 _atom_site_hle17_ddec_sum_bond_order
 _atom_site_hle17_magmom
 _atom_site_hse06_10hf_ddec_charge
 _atom_site_hse06_10hf_ddec_spin_density
 _atom_site_hse06_10hf_ddec_sum_bond_order
 _atom_site_hse06_10hf_magmom
 _atom_site_hse06_ddec_charge
 _atom_site_hse06_ddec_spin_density
 _atom_site_hse06_ddec_sum_bond_order
 _atom_site_hse06_magmom
 _atom_site_pbe_cm5_charge
 _atom_site_pbe_ddec_charge
 _atom_site_pbe_ddec_spin_density
 _atom_site_pbe_ddec_sum_bond_order
 _atom_site_pbe_magmom
Co  Co0  1  0.94411624  0.68010466  0.48003112  1  1.0475  -2.849535  1.921632  -2.573  1.008057  -2.839371  2.346189  -2.631  1.085087  -2.879643  2.27526  -2.711  0.682621  0.942631  -2.802535  2.407525  -2.556
Co  Co1  1  0.05588242  0.31989604  0.98002849  1  1.047435  -2.849535  1.921702  -2.573  1.007994  -2.839376  2.346256  -2.631  1.085024  -2.879649  2.275324  -2.711  0.682623  0.942556  -2.802515  2.407591  -2.555
Co  Co2  1  0.55587848  0.18010558  0.48002387  1  1.04748  -2.849551  1.921617  -2.573  1.00795  -2.839395  2.346289  -2.631  1.084986  -2.879664  2.275343  -2.711  0.682577  0.942493  -2.80253  2.407625  -2.555
Co  Co3  1  0.44411418  0.81989272  0.98002872  1  1.047385  -2.849553  1.921754  -2.573  1.007906  -2.839391  2.346277  -2.631  1.084935  -2.879654  2.27535  -2.711  0.682567  0.942458  -2.802548  2.407621  -2.556
H  H4  1  0.14412901  0.72481786  0.27675952  1  0.101572  -0.000916  0.9155  -0.002  0.108756  -0.000744  0.976933  -0.001  0.112178  -0.000475  0.973208  -0.001  0.127967  0.106195  -0.001021  0.979901  -0.002
H  H5  1  0.85587421  0.27518124  0.77675378  1  0.10154  -0.000917  0.915557  -0.002  0.108759  -0.000744  0.97695  -0.001  0.112179  -0.000475  0.973224  -0.001  0.127947  0.106199  -0.001021  0.979917  -0.002
H  H6  1  0.35588768  0.22483531  0.27674917  1  0.101484  -0.000915  0.915753  -0.002  0.108763  -0.000744  0.977075  -0.001  0.112185  -0.000475  0.973344  -0.001  0.127945  0.1062  -0.001021  0.980041  -0.002
H  H7  1  0.64412004  0.77517218  0.77675399  1  0.101611  -0.000916  0.915528  -0.002  0.108789  -0.000744  0.976959  -0.001  0.112211  -0.000474  0.973231  -0.001  0.127967  0.106226  -0.001021  0.979924  -0.002
H  H8  1  0.47496796  0.52273790  0.18573394  1  0.124023  -2.4e-05  0.941067  0.0  0.133156  -0.000129  1.000135  0.0  0.136824  -2e-05  0.999225  0.0  0.113865  0.130249  -0.000262  1.001391  -0.001
H  H9  1  0.52503710  0.47727420  0.68573908  1  0.124069  -2.3e-05  0.940949  0.0  0.133174  -0.000129  1.000044  0.0  0.136842  -2e-05  0.999135  0.0  0.113853  0.130266  -0.000263  1.001302  -0.001
H  H10  1  0.02503435  0.02272926  0.18573269  1  0.124064  -2.3e-05  0.941044  0.0  0.133177  -0.000129  1.000115  0.0  0.136844  -2e-05  0.999208  0.0  0.113875  0.130282  -0.000262  1.001361  -0.001
H  H11  1  0.97497072  0.97725889  0.68572940  1  0.123983  -2.2e-05  0.941238  0.0  0.133116  -0.000129  1.000297  0.0  0.136781  -2e-05  0.999392  0.0  0.113859  0.130203  -0.000262  1.001555  -0.001
H  H12  1  0.57671982  0.57700323  0.36982957  1  0.105274  -0.000552  0.959764  -0.002  0.108617  -0.000345  1.026249  -0.001  0.112775  -9.6e-05  1.021113  -0.001  0.123253  0.105413  -0.000628  1.030339  -0.002
H  H13  1  0.42328162  0.42298767  0.86983307  1  0.105251  -0.000552  0.9598  -0.002  0.10862  -0.000345  1.026283  -0.001  0.112783  -9.6e-05  1.021136  -0.001  0.123238  0.105412  -0.000627  1.030369  -0.002
H  H14  1  0.92328382  0.07699667  0.36982600  1  0.105258  -0.000552  0.959817  -0.002  0.108615  -0.000345  1.026298  -0.001  0.112781  -9.6e-05  1.021141  -0.001  0.12327  0.10541  -0.000628  1.030386  -0.002
H  H15  1  0.07671912  0.92299902  0.86982416  1  0.105281  -0.000552  0.9597  -0.002  0.108649  -0.000345  1.026186  -0.001  0.11281  -9.6e-05  1.021043  -0.001  0.12327  0.105443  -0.000628  1.030275  -0.002
C  C16  1  0.99809025  0.67786074  0.25371154  1  0.130237  0.020976  3.643801  0.014  0.092793  0.00277  3.898522  0.001  0.104413  0.002657  3.912792  0.001  0.059973  0.083971  0.003587  3.889727  0.001
C  C17  1  0.00190630  0.32214191  0.75370928  1  0.130247  0.020992  3.643958  0.014  0.092793  0.002771  3.898649  0.001  0.104413  0.002655  3.912923  0.001  0.059985  0.083972  0.003586  3.889852  0.001
C  C18  1  0.50192036  0.17787248  0.25370309  1  0.130312  0.020968  3.644181  0.014  0.092839  0.002771  3.898855  0.001  0.104462  0.002657  3.913132  0.001  0.060024  0.084019  0.003583  3.890048  0.001
C  C19  1  0.49809119  0.82213017  0.75370603  1  0.130284  0.02095  3.643899  0.014  0.092854  0.002784  3.898577  0.001  0.104475  0.002655  3.912846  0.001  0.060036  0.084038  0.003586  3.889775  0.001
C  C20  1  0.95721511  0.64518175  0.14898616  1  -0.119322  -0.01085  3.719383  -0.017  -0.101863  -0.003142  3.953929  -0.006  -0.113431  -0.002119  3.973333  -0.004  -0.006636  -0.095177  -0.004382  3.943416  -0.008
C  C21  1  0.04277689  0.35482070  0.64898348  1  -0.119459  -0.010859  3.719497  -0.017  -0.10196  -0.003143  3.954029  -0.006  -0.113535  -0.002118  3.973429  -0.004  -0.006608  -0.095269  -0.004382  3.943516  -0.008
C  C22  1  0.54279099  0.14517669  0.14898194  1  -0.119472  -0.010848  3.71964  -0.017  -0.102054  -0.003143  3.95421  -0.006  -0.113626  -0.002118  3.973609  -0.004  -0.00667  -0.095368  -0.004382  3.943689  -0.008
C  C23  1  0.45721300  0.85481977  0.64898380  1  -0.119504  -0.010836  3.719678  -0.017  -0.102027  -0.003146  3.95423  -0.006  -0.113597  -0.002118  3.973633  -0.004  -0.006684  -0.095327  -0.004382  3.943735  -0.008
C  C24  1  0.76607622  0.58540264  0.12314085  1  -0.017842  0.020471  3.705656  0.013  -0.015675  0.002765  3.950015  0.001  -0.012537  0.001821  3.965469  0.001  0.013019  -0.018989  0.005927  3.941097  0.003
C  C25  1  0.23391502  0.41460934  0.62313894  1  -0.017699  0.020483  3.705408  0.013  -0.015607  0.002763  3.949796  0.001  -0.012464  0.001818  3.965244  0.001  0.012969  -0.018932  0.005924  3.940894  0.003
C  C26  1  0.73392771  0.08539982  0.12313422  1  -0.0177  0.020461  3.705667  0.013  -0.015522  0.002762  3.950024  0.001  -0.012379  0.001822  3.965476  0.001  0.013058  -0.018838  0.005922  3.941104  0.003
C  C27  1  0.26607703  0.91459060  0.62313698  1  -0.017546  0.020442  3.705586  0.013  -0.015445  0.002762  3.949983  0.001  -0.012306  0.001831  3.965437  0.001  0.013043  -0.01882  0.005923  3.941134  0.003
C  C28  1  0.62496917  0.56719579  0.20309640  1  -0.13115  -0.009721  3.691374  -0.014  -0.152696  -0.002762  3.945321  -0.004  -0.160865  -0.002124  3.963894  -0.003  -0.076718  -0.147653  -0.00352  3.934908  -0.005
C  C29  1  0.37502441  0.43280797  0.70309485  1  -0.131272  -0.009729  3.691174  -0.014  -0.152747  -0.002762  3.945134  -0.004  -0.160925  -0.002121  3.963716  -0.003  -0.076694  -0.147702  -0.00352  3.93472  -0.005
C  C30  1  0.87503562  0.06718926  0.20308932  1  -0.131275  -0.00972  3.691186  -0.014  -0.152783  -0.002762  3.945128  -0.004  -0.160955  -0.002122  3.963696  -0.003  -0.076741  -0.147755  -0.00352  3.934714  -0.005
C  C31  1  0.12496845  0.93280371  0.70309100  1  -0.131215  -0.009712  3.691342  -0.014  -0.15272  -0.002762  3.945311  -0.004  -0.160887  -0.002128  3.96388  -0.003  -0.076667  -0.147654  -0.003521  3.93491  -0.005
C  C32  1  0.67978475  0.59877389  0.30553356  1  0.161019  0.021509  3.63109  0.014  0.129332  0.003048  3.890774  0.001  0.141779  0.002736  3.902421  0.001  0.058343  0.119596  0.004902  3.88381  0.002
C  C33  1  0.32020882  0.40122766  0.80553778  1  0.161159  0.021526  3.630685  0.014  0.129428  0.003047  3.890371  0.001  0.141878  0.002731  3.902018  0.001  0.058447  0.119699  0.004902  3.883392  0.002
C  C34  1  0.82021699  0.09876981  0.30553229  1  0.161092  0.021507  3.63065  0.014  0.129403  0.003048  3.890306  0.001  0.141852  0.00273  3.901953  0.001  0.058371  0.119665  0.0049  3.883343  0.002
C  C35  1  0.17978707  0.90122456  0.80553047  1  0.161159  0.021486  3.630755  0.014  0.129394  0.003049  3.890488  0.001  0.141843  0.002739  3.902126  0.001  0.058358  0.119663  0.0049  3.883511  0.002
C  C36  1  0.11504688  0.67773154  0.06841254  1  0.654136  0.007243  3.887651  0.006  0.610063  -0.001921  4.188894  -0.002  0.648444  -0.001536  4.181256  -0.002  0.210811  0.58229  -0.002059  4.192558  -0.002
C  C37  1  0.88496076  0.32227555  0.56840629  1  0.654134  0.007249  3.887688  0.007  0.610052  -0.001922  4.188914  -0.002  0.648443  -0.001536  4.181277  -0.002  0.210858  0.582276  -0.002058  4.192577  -0.002
C  C38  1  0.38495780  0.17772740  0.06840788  1  0.654143  0.007247  3.887341  0.007  0.610144  -0.001922  4.188489  -0.002  0.648528  -0.001538  4.18085  -0.002  0.210837  0.582373  -0.002058  4.192151  -0.002
C  C39  1  0.61503784  0.82226651  0.56841173  1  0.654151  0.007245  3.8875  0.007  0.610086  -0.00192  4.188731  -0.002  0.64847  -0.001538  4.181094  -0.002  0.210761  0.582323  -0.002056  4.192383  -0.002
C  C40  1  0.70465326  0.53096128  0.01593979  1  0.690538  0.009869  3.831256  0.006  0.647889  -0.003181  4.125661  -0.005  0.688405  -0.003157  4.11328  -0.005  0.234412  0.61785  -0.001926  4.133032  -0.004
C  C41  1  0.29535435  0.46904690  0.51594077  1  0.690604  0.009868  3.831048  0.006  0.648009  -0.003182  4.125397  -0.005  0.688527  -0.003158  4.113011  -0.005  0.234484  0.61796  -0.001927  4.132787  -0.004
C  C42  1  0.79534761  0.03095362  0.01593521  1  0.690663  0.00987  3.830897  0.006  0.647936  -0.003181  4.12545  -0.005  0.688452  -0.003158  4.113066  -0.005  0.234422  0.617902  -0.001926  4.132814  -0.004
C  C43  1  0.20464950  0.96903300  0.51593521  1  0.690582  0.009876  3.831061  0.006  0.647972  -0.00318  4.12544  -0.005  0.68849  -0.003157  4.113056  -0.005  0.234496  0.617955  -0.001923  4.132796  -0.004
N  N44  1  0.86491015  0.65109244  0.33060075  1  -0.306006  -0.049005  3.324325  -0.08  -0.259152  -0.032227  3.62488  -0.047  -0.285532  -0.024783  3.637346  -0.036  -0.331066  -0.238707  -0.039108  3.615926  -0.057
N  N45  1  0.13507965  0.34889839  0.83060268  1  -0.306032  -0.049008  3.32424  -0.08  -0.259207  -0.032226  3.624874  -0.047  -0.285586  -0.024781  3.637337  -0.036  -0.33116  -0.238767  -0.039107  3.615925  -0.057
N  N46  1  0.63509224  0.15109808  0.33059568  1  -0.305964  -0.049  3.324298  -0.08  -0.25916  -0.032226  3.624945  -0.047  -0.285543  -0.024781  3.637408  -0.036  -0.331111  -0.238715  -0.03911  3.615988  -0.057
N  N47  1  0.36490805  0.84890472  0.83059291  1  -0.306099  -0.048996  3.324349  -0.08  -0.259221  -0.032229  3.624912  -0.047  -0.2856  -0.024785  3.637373  -0.036  -0.331127  -0.238774  -0.039108  3.615956  -0.057
O  O48  1  0.12713979  0.59235999  0.98768823  1  -0.611587  -0.021369  2.031571  -0.042  -0.581119  -0.020011  2.289792  -0.036  -0.613123  -0.014811  2.280406  -0.028  -0.289879  -0.555041  -0.026159  2.295085  -0.045
O  O49  1  0.87286209  0.40766109  0.48768299  1  -0.611538  -0.021376  2.031303  -0.042  -0.581079  -0.020011  2.289544  -0.036  -0.613085  -0.014811  2.280149  -0.028  -0.289952  -0.555001  -0.02616  2.294836  -0.045
O  O50  1  0.37284835  0.09234628  0.98768270  1  -0.611552  -0.021376  2.031243  -0.042  -0.581131  -0.020013  2.289468  -0.036  -0.613145  -0.014812  2.280096  -0.028  -0.289922  -0.55505  -0.026161  2.294761  -0.045
O  O51  1  0.62714604  0.90763527  0.48768618  1  -0.611533  -0.021372  2.031426  -0.042  -0.581081  -0.020012  2.289695  -0.036  -0.613078  -0.014811  2.280285  -0.028  -0.289826  -0.555  -0.026163  2.294981  -0.045
O  O52  1  0.23196343  0.79798102  0.08716176  1  -0.627534  -0.049011  2.033248  -0.081  -0.59724  -0.03461  2.314351  -0.051  -0.636742  -0.0252  2.3022  -0.036  -0.320527  -0.564258  -0.044607  2.320356  -0.066
O  O53  1  0.76804925  0.20201892  0.58714745  1  -0.62749  -0.049013  2.033278  -0.081  -0.597223  -0.034612  2.314489  -0.051  -0.636698  -0.025201  2.302258  -0.036  -0.320498  -0.564238  -0.044614  2.320481  -0.066
O  O54  1  0.26804313  0.29798057  0.08715072  1  -0.627548  -0.049015  2.033275  -0.081  -0.59732  -0.034614  2.314449  -0.051  -0.636799  -0.025202  2.302238  -0.036  -0.320534  -0.564338  -0.044615  2.320445  -0.066
O  O55  1  0.73196056  0.70201817  0.58715459  1  -0.627624  -0.049016  2.033169  -0.081  -0.597342  -0.034614  2.314312  -0.051  -0.636846  -0.025202  2.302148  -0.036  -0.320548  -0.564365  -0.044612  2.320315  -0.066
O  O56  1  0.78224728  0.40171041  0.98192164  1  -0.615071  -0.048732  2.125277  -0.082  -0.583617  -0.037128  2.408041  -0.056  -0.625081  -0.027081  2.395558  -0.04  -0.30973  -0.548944  -0.048256  2.414535  -0.074
O  O57  1  0.21775293  0.59830347  0.48192236  1  -0.615234  -0.048739  2.125074  -0.082  -0.58379  -0.037131  2.40782  -0.056  -0.625256  -0.027083  2.395326  -0.04  -0.309791  -0.549112  -0.048257  2.414322  -0.074
O  O58  1  0.71774979  0.90170847  0.98191384  1  -0.615114  -0.048729  2.125145  -0.082  -0.583628  -0.037126  2.407938  -0.056  -0.625093  -0.027079  2.395461  -0.04  -0.309725  -0.548957  -0.048249  2.414435  -0.074
O  O59  1  0.28224742  0.09828983  0.48191299  1  -0.615267  -0.048747  2.125144  -0.082  -0.583785  -0.037136  2.407879  -0.056  -0.625267  -0.027085  2.395406  -0.04  -0.309831  -0.549102  -0.048267  2.414353  -0.074
O  O60  1  0.56554885  0.60081821  0.96704867  1  -0.585754  -0.040335  2.131981  -0.071  -0.54722  -0.032998  2.401454  -0.052  -0.582528  -0.026158  2.385542  -0.041  -0.289697  -0.519329  -0.039947  2.412276  -0.063
O  O61  1  0.43443743  0.39917887  0.46705012  1  -0.585728  -0.040326  2.132102  -0.071  -0.547199  -0.032994  2.401569  -0.052  -0.582506  -0.026157  2.385654  -0.041  -0.289693  -0.519306  -0.039944  2.412399  -0.063
O  O62  1  0.93444969  0.10081883  0.96704596  1  -0.58582  -0.040336  2.131774  -0.071  -0.547254  -0.032999  2.401279  -0.052  -0.582561  -0.026158  2.385365  -0.041  -0.289705  -0.51937  -0.03995  2.412109  -0.063
O  O63  1  0.06553509  0.89918783  0.46705126  1  -0.585721  -0.040326  2.132021  -0.071  -0.547215  -0.032993  2.401506  -0.052  -0.582524  -0.026155  2.385593  -0.041  -0.289665  -0.51933  -0.039938  2.412313  -0.063
