# generated using pymatgen
data_AgH16C15SN2(OF)3
_symmetry_space_group_name_H-M   'P 1'
_cell_length_a   9.17243714
_cell_length_b   9.18479197
_cell_length_c   11.10224682
_cell_angle_alpha   101.49087031
_cell_angle_beta   103.87078627
_cell_angle_gamma   106.16175360
_symmetry_Int_Tables_number   1
_chemical_formula_structural   AgH16C15SN2(OF)3
_chemical_formula_sum   'Ag2 H32 C30 S2 N4 O6 F6'
_cell_volume   835.94518907
_cell_formula_units_Z   2
loop_
 _symmetry_equiv_pos_site_id
 _symmetry_equiv_pos_as_xyz
  1  'x, y, z'
loop_
 _atom_site_type_symbol
 _atom_site_label
 _atom_site_symmetry_multiplicity
 _atom_site_fract_x
 _atom_site_fract_y
 _atom_site_fract_z
 _atom_site_occupancy
 _atom_site_hle17_bader_spin_density
 _atom_site_hle17_ddec_charge
 _atom_site_hle17_ddec_spin_density
 _atom_site_hle17_ddec_sum_bond_order
 _atom_site_hle17_magmom
 _atom_site_hse06_10hf_bader_spin_density
 _atom_site_hse06_10hf_ddec_charge
 _atom_site_hse06_10hf_ddec_spin_density
 _atom_site_hse06_10hf_ddec_sum_bond_order
 _atom_site_hse06_10hf_magmom
 _atom_site_hse06_bader_spin_density
 _atom_site_hse06_ddec_charge
 _atom_site_hse06_ddec_spin_density
 _atom_site_hse06_ddec_sum_bond_order
 _atom_site_hse06_magmom
 _atom_site_pbe_bader_spin_density
 _atom_site_pbe_cm5_charge
 _atom_site_pbe_ddec_charge
 _atom_site_pbe_ddec_spin_density
 _atom_site_pbe_ddec_sum_bond_order
 _atom_site_pbe_magmom
Ag  Ag0  1  0.33845349  0.69469204  0.43369318  1  0  0.718359  0  1.473422  0  0  0.603688  0  1.936753  0  0  0.622946  0  1.88987  0  0  0.557527  0.58941  0  1.971957  0
Ag  Ag1  1  0.66154425  0.30530843  0.56630598  1  0  0.718365  0  1.473346  0  0  0.603694  0  1.936657  0  0  0.622948  0  1.88978  0  0  0.557519  0.589414  0  1.971858  0
H  H2  1  0.17461477  0.99452324  0.76467106  1  0  0.133767  0  0.907353  0  0  0.148443  0  0.962707  0  0  0.150054  0  0.962559  0  0  0.12131  0.147596  0  0.962439  0
H  H3  1  0.82538409  0.00547722  0.23533012  1  0  0.13372  0  0.907355  0  0  0.14841  0  0.962711  0  0  0.150019  0  0.962565  0  0  0.121293  0.147564  0  0.962446  0
H  H4  1  0.32616453  0.16964388  0.77683972  1  0  0.134614  0  0.963697  0  0  0.14547  0  1.026078  0  0  0.148058  0  1.024343  0  0  0.116583  0.143758  0  1.027177  0
H  H5  1  0.67383321  0.83035659  0.22315855  1  0  0.13458  0  0.963691  0  0  0.145443  0  1.026086  0  0  0.14803  0  1.024351  0  0  0.116579  0.14373  0  1.027187  0
H  H6  1  0.18448137  0.73846727  0.73439600  1  0  0.105246  0  0.979654  0  0  0.122343  0  1.047568  0  0  0.123564  0  1.047329  0  0  0.083151  0.121244  0  1.047975  0
H  H7  1  0.81551749  0.26153319  0.26560519  1  0  0.105249  0  0.979625  0  0  0.122335  0  1.047562  0  0  0.123556  0  1.047323  0  0  0.083136  0.121237  0  1.047969  0
H  H8  1  0.09610058  0.77274832  0.85771708  1  0  0.104071  0  0.966108  0  0  0.121019  0  1.036567  0  0  0.121096  0  1.039131  0  0  0.085454  0.120242  0  1.035943  0
H  H9  1  0.90389899  0.22725094  0.14228495  1  0  0.104071  0  0.96612  0  0  0.121013  0  1.036593  0  0  0.121091  0  1.039158  0  0  0.085454  0.120237  0  1.035969  0
H  H10  1  0.19823081  0.63451826  0.85009432  1  0  0.118069  0  0.959537  0  0  0.140405  0  1.016936  0  0  0.141947  0  1.016546  0  0  0.091233  0.139279  0  1.017118  0
H  H11  1  0.80177030  0.36548219  0.14990731  1  0  0.118069  0  0.959571  0  0  0.140416  0  1.016959  0  0  0.141961  0  1.016566  0  0  0.091229  0.139289  0  1.017142  0
H  H12  1  0.56049111  0.27420832  0.82359038  1  0  0.100722  0  0.995508  0  0  0.116136  0  1.068895  0  0  0.11763  0  1.068441  0  0  0.085253  0.114846  0  1.069428  0
H  H13  1  0.43950918  0.72578978  0.17640800  1  0  0.100733  0  0.995508  0  0  0.116151  0  1.068887  0  0  0.117646  0  1.068431  0  0  0.085255  0.11486  0  1.06942  0
H  H14  1  0.59703468  0.38926613  0.98285796  1  0  0.117613  0  0.941653  0  0  0.139291  0  1.004097  0  0  0.140758  0  1.003729  0  0  0.092345  0.139167  0  1.002416  0
H  H15  1  0.40296572  0.61073552  0.01714103  1  0  0.117583  0  0.941705  0  0  0.139258  0  1.004157  0  0  0.140724  0  1.003789  0  0  0.092305  0.139132  0  1.00248  0
H  H16  1  0.74563712  0.32031105  0.94224045  1  0  0.104999  0  0.961823  0  0  0.129683  0  1.019766  0  0  0.130194  0  1.021244  0  0  0.091066  0.129095  0  1.018539  0
H  H17  1  0.25436358  0.67968822  0.05775910  1  0  0.104991  0  0.961924  0  0  0.12967  0  1.01987  0  0  0.130178  0  1.021347  0  0  0.091051  0.129081  0  1.018642  0
H  H18  1  0.39118486  0.25589154  0.14214322  1  0  0.142852  0  0.911661  0  0  0.156655  0  0.96901  0  0  0.158217  0  0.969075  0  0  0.127085  0.155621  0  0.968808  0
H  H19  1  0.60881513  0.74410892  0.85785639  1  0  0.142855  0  0.911649  0  0  0.156643  0  0.96901  0  0  0.158208  0  0.969077  0  0  0.127096  0.15561  0  0.968808  0
H  H20  1  0.30787444  0.32851774  0.01686732  1  0  0.135044  0  0.910707  0  0  0.153277  0  0.962237  0  0  0.154518  0  0.962198  0  0  0.125542  0.152776  0  0.961439  0
H  H21  1  0.69212667  0.67148271  0.98313341  1  0  0.135037  0  0.910706  0  0  0.153249  0  0.962251  0  0  0.154494  0  0.962214  0  0  0.125546  0.152746  0  0.961452  0
H  H22  1  0.12533151  0.28341603  0.83980611  1  0  0.116097  0  0.979589  0  0  0.132903  0  1.04924  0  0  0.134592  0  1.048742  0  0  0.087471  0.131287  0  1.050088  0
H  H23  1  0.87466960  0.71658443  0.16019372  1  0  0.1161  0  0.97961  0  0  0.132906  0  1.049255  0  0  0.134594  0  1.048759  0  0  0.087472  0.131289  0  1.050106  0
H  H24  1  0.04215530  0.36527261  0.95216308  1  0  0.102745  0  0.944865  0  0  0.125392  0  1.005471  0  0  0.126346  0  1.005925  0  0  0.089466  0.126336  0  1.002112  0
H  H25  1  0.95784274  0.63472549  0.04783574  1  0  0.102747  0  0.944834  0  0  0.125375  0  1.005469  0  0  0.126328  0  1.005924  0  0  0.08945  0.126318  0  1.002109  0
H  H26  1  0.91609512  0.23543388  0.79977445  1  0  0.105486  0  0.975541  0  0  0.122956  0  1.047511  0  0  0.125325  0  1.045414  0  0  0.088281  0.121062  0  1.049274  0
H  H27  1  0.08390517  0.76456422  0.20022392  1  0  0.105489  0  0.975559  0  0  0.122962  0  1.047527  0  0  0.125333  0  1.045428  0  0  0.088298  0.12107  0  1.049289  0
H  H28  1  0.31500310  0.17173722  0.29072107  1  0  0.117783  0  0.957354  0  0  0.138924  0  1.017296  0  0  0.140591  0  1.016648  0  0  0.091833  0.13784  0  1.017448  0
H  H29  1  0.68499648  0.82826206  0.70927826  1  0  0.11777  0  0.957436  0  0  0.138942  0  1.017339  0  0  0.140605  0  1.016695  0  0  0.091842  0.137858  0  1.017492  0
H  H30  1  0.19785031  0.99609430  0.30872493  1  0  0.117187  0  0.947499  0  0  0.138742  0  1.006616  0  0  0.140375  0  1.005533  0  0  0.091904  0.13785  0  1.006838  0
H  H31  1  0.80214926  0.00390498  0.69127440  1  0  0.117193  0  0.947504  0  0  0.138751  0  1.006612  0  0  0.140385  0  1.005528  0  0  0.091905  0.137858  0  1.006833  0
H  H32  1  0.33801227  0.99122075  0.22416521  1  0  0.106424  0  0.96796  0  0  0.128228  0  1.031639  0  0  0.128208  0  1.034018  0  0  0.089163  0.128289  0  1.02978  0
H  H33  1  0.66198842  0.00877852  0.77583614  1  0  0.10645  0  0.967998  0  0  0.128256  0  1.03167  0  0  0.128237  0  1.034049  0  0  0.089173  0.128317  0  1.029811  0
C  C34  1  0.40776771  0.02099017  0.89025476  1  0  -0.013775  0  3.699026  0  0  -0.006585  0  3.941402  0  0  -0.009107  0  3.967071  0  0  -0.015285  -0.004835  0  3.924934  0
C  C35  1  0.59223157  0.97901148  0.10974581  1  0  -0.013748  0  3.699145  0  0  -0.006526  0  3.941498  0  0  -0.009049  0  3.967167  0  0  -0.015245  -0.00477  0  3.925022  0
C  C36  1  0.35416625  0.87912445  0.92228308  1  0  0.049791  0  3.712784  0  0  0.060683  0  3.960775  0  0  0.060056  0  3.985988  0  0  -0.014152  0.060989  0  3.944921  0
C  C37  1  0.64583303  0.12087719  0.07771748  1  0  0.049707  0  3.712849  0  0  0.060601  0  3.960829  0  0  0.059973  0  3.986042  0  0  -0.014162  0.060906  0  3.944971  0
C  C38  1  0.55418296  0.14070083  0.96471224  1  0  0.042163  0  3.726589  0  0  0.054275  0  3.975028  0  0  0.05376  0  3.999875  0  0  -0.015734  0.053577  0  3.959207  0
C  C39  1  0.44581815  0.85929963  0.03528849  1  0  0.042146  0  3.726532  0  0  0.054256  0  3.974974  0  0  0.053739  0  3.999821  0  0  -0.015707  0.053558  0  3.959147  0
C  C40  1  0.30154829  0.04409134  0.77223442  1  0  -0.222241  0  3.763361  0  0  -0.252116  0  3.985598  0  0  -0.254748  0  3.994039  0  0  -0.127862  -0.25045  0  3.979718  0
C  C41  1  0.69845241  0.95590794  0.22776424  1  0  -0.222102  0  3.763231  0  0  -0.252043  0  3.985519  0  0  -0.254666  0  3.993946  0  0  -0.127875  -0.250381  0  3.979646  0
C  C42  1  0.32168889  0.96398638  0.65436439  1  0  0.414585  0  3.640553  0  0  0.392439  0  3.915372  0  0  0.407654  0  3.929004  0  0  0.228887  0.382046  0  3.907113  0
C  C43  1  0.67830772  0.03601408  0.34563725  1  0  0.414601  0  3.640532  0  0  0.392484  0  3.915337  0  0  0.407699  0  3.928962  0  0  0.228946  0.382092  0  3.907079  0
C  C44  1  0.20075294  0.75005356  0.83722334  1  0  -0.3329  0  3.722308  0  0  -0.411829  0  3.960007  0  0  -0.413831  0  3.970388  0  0  -0.250381  -0.409937  0  3.953468  0
C  C45  1  0.79924705  0.24994690  0.16277626  1  0  -0.332884  0  3.722369  0  0  -0.411808  0  3.960027  0  0  -0.413815  0  3.97041  0  0  -0.250363  -0.409916  0  3.953488  0
C  C46  1  0.61652614  0.28783527  0.92569478  1  0  -0.337076  0  3.74393  0  0  -0.419019  0  3.982481  0  0  -0.421457  0  3.99371  0  0  -0.248248  -0.417162  0  3.974683  0
C  C47  1  0.38347414  0.71216283  0.07430539  1  0  -0.337081  0  3.744027  0  0  -0.419011  0  3.98256  0  0  -0.421447  0  3.993792  0  0  -0.248229  -0.417153  0  3.974767  0
C  C48  1  0.13410749  0.13488147  0.04791603  1  0  -0.01702  0  3.704434  0  0  -0.011123  0  3.950609  0  0  -0.013369  0  3.975577  0  0  -0.015622  -0.009497  0  3.934966  0
C  C49  1  0.86589546  0.86511781  0.95208306  1  0  -0.016979  0  3.704475  0  0  -0.011132  0  3.950707  0  0  -0.013371  0  3.97568  0  0  -0.015612  -0.009508  0  3.935068  0
C  C50  1  0.01231391  0.12018922  0.93643865  1  0  0.041692  0  3.715641  0  0  0.05357  0  3.965274  0  0  0.052861  0  3.990433  0  0  -0.015433  0.053204  0  3.94886  0
C  C51  1  0.98768904  0.87981006  0.06356044  1  0  0.04167  0  3.715686  0  0  0.053545  0  3.965348  0  0  0.052836  0  3.990505  0  0  -0.015442  0.053179  0  3.948935  0
C  C52  1  0.12239084  0.01975164  0.11527078  1  0  0.05034  0  3.7086  0  0  0.060197  0  3.959474  0  0  0.059593  0  3.984676  0  0  -0.012154  0.060586  0  3.943325  0
C  C53  1  0.87761169  0.98024645  0.88472804  1  0  0.050364  0  3.708491  0  0  0.060219  0  3.959397  0  0  0.059615  0  3.984597  0  0  -0.012167  0.060607  0  3.94325  0
C  C54  1  0.28421543  0.28117163  0.09643740  1  0  -0.215305  0  3.769199  0  0  -0.249323  0  3.995632  0  0  -0.251206  0  4.004105  0  0  -0.12135  -0.248112  0  3.989852  0
C  C55  1  0.71578496  0.71883001  0.90356429  1  0  -0.215339  0  3.769129  0  0  -0.249296  0  3.99553  0  0  -0.251199  0  4.004032  0  0  -0.121373  -0.248081  0  3.989751  0
C  C56  1  0.26972561  0.40511717  0.19103324  1  0  0.40629  0  3.641633  0  0  0.387996  0  3.912383  0  0  0.401929  0  3.927694  0  0  0.232071  0.378501  0  3.901855  0
C  C57  1  0.73027132  0.59488094  0.80896356  1  0  0.406373  0  3.641822  0  0  0.388075  0  3.91255  0  0  0.402012  0  3.92787  0  0  0.23211  0.378581  0  3.90202  0
C  C58  1  0.02433966  0.25648281  0.87839520  1  0  -0.336748  0  3.727816  0  0  -0.417514  0  3.966374  0  0  -0.419853  0  3.976389  0  0  -0.247617  -0.415559  0  3.958606  0
C  C59  1  0.97565950  0.74351528  0.12160475  1  0  -0.336761  0  3.727819  0  0  -0.417505  0  3.966374  0  0  -0.419844  0  3.976387  0  0  -0.247629  -0.415551  0  3.958607  0
C  C60  1  0.24937133  0.04618834  0.24034073  1  0  -0.332986  0  3.719317  0  0  -0.412828  0  3.952927  0  0  -0.414706  0  3.963413  0  0  -0.244482  -0.411075  0  3.944949  0
C  C61  1  0.75062560  0.95380977  0.75965697  1  0  -0.333029  0  3.719327  0  0  -0.412896  0  3.952919  0  0  -0.414768  0  3.963404  0  0  -0.244507  -0.41114  0  3.944941  0
C  C62  1  0.89195368  0.68258707  0.44284149  1  0  0.59094  0  3.673729  0  0  0.521046  0  4.042977  0  0  0.548395  0  4.017124  0  0  0.286833  0.501058  0  4.062348  0
C  C63  1  0.10804588  0.31741219  0.55716234  1  0  0.590956  0  3.673633  0  0  0.520907  0  4.043136  0  0  0.548248  0  4.017298  0  0  0.286763  0.500926  0  4.062498  0
S  S64  1  0.67202603  0.59542370  0.35821832  1  0  1.129051  0  5.820853  0  0  1.028571  0  6.349543  0  0  1.070993  0  6.332835  0  0  0.487138  0.999324  0  6.360228  0
S  S65  1  0.32797426  0.40457440  0.64178005  1  0  1.129061  0  5.820635  0  0  1.028643  0  6.349333  0  0  1.071078  0  6.332622  0  0  0.48715  0.999398  0  6.360015  0
N  N66  1  0.34071094  0.89282653  0.56397043  1  0  -0.471955  0  2.999253  0  0  -0.421096  0  3.323117  0  0  -0.436274  0  3.323189  0  0  -0.366081  -0.410292  0  3.324472  0
N  N67  1  0.65928822  0.10717157  0.43602862  1  0  -0.472017  0  2.999404  0  0  -0.421168  0  3.323256  0  0  -0.436343  0  3.323321  0  0  -0.366135  -0.410367  0  3.324615  0
N  N68  1  0.25472921  0.50188161  0.26737069  1  0  -0.46416  0  2.982579  0  0  -0.414059  0  3.29667  0  0  -0.429328  0  3.298697  0  0  -0.361983  -0.402845  0  3.295452  0
N  N69  1  0.74526822  0.49812121  0.73263150  1  0  -0.464203  0  2.982829  0  0  -0.414107  0  3.296936  0  0  -0.429375  0  3.29896  0  0  -0.361986  -0.402891  0  3.295715  0
O  O70  1  0.61686281  0.71531435  0.42206392  1  0  -0.634428  0  2.061433  0  0  -0.591559  0  2.338848  0  0  -0.611777  0  2.325128  0  0  -0.344492  -0.577051  0  2.349223  0
O  O71  1  0.38313506  0.28468968  0.57793316  1  0  -0.634403  0  2.061546  0  0  -0.591518  0  2.338919  0  0  -0.611724  0  2.325159  0  0  -0.34447  -0.577011  0  2.349295  0
O  O72  1  0.62261948  0.44186861  0.38303008  1  0  -0.616563  0  2.035237  0  0  -0.576247  0  2.311371  0  0  -0.595416  0  2.296914  0  0  -0.338805  -0.56313  0  2.321317  0
O  O73  1  0.37737879  0.55813659  0.61696997  1  0  -0.616608  0  2.035013  0  0  -0.576325  0  2.311178  0  0  -0.595481  0  2.296673  0  0  -0.338807  -0.563209  0  2.321127  0
O  O74  1  0.65883908  0.58611772  0.22270987  1  0  -0.611439  0  1.984542  0  0  -0.570387  0  2.233309  0  0  -0.590316  0  2.223941  0  0  -0.335227  -0.556841  0  2.238199  0
O  O75  1  0.34116469  0.41388393  0.77728978  1  0  -0.611434  0  1.984512  0  0  -0.570377  0  2.233224  0  0  -0.590314  0  2.223854  0  0  -0.335229  -0.556842  0  2.238133  0
F  F76  1  0.96950778  0.58855948  0.39778881  1  0  -0.236676  0  1.235555  0  0  -0.19926  0  1.420292  0  0  -0.208574  0  1.404025  0  0  -0.090654  -0.193585  0  1.434453  0
F  F77  1  0.03049083  0.41143385  0.60221924  1  0  -0.236696  0  1.235519  0  0  -0.199231  0  1.420303  0  0  -0.208541  0  1.404033  0  0  -0.090633  -0.193557  0  1.434456  0
F  F78  1  0.95299924  0.82666295  0.42442428  1  0  -0.235124  0  1.197989  0  0  -0.189847  0  1.360658  0  0  -0.199988  0  1.346613  0  0  -0.096536  -0.182517  0  1.370533  0
F  F79  1  0.04700737  0.17333395  0.57557515  1  0  -0.235134  0  1.197924  0  0  -0.189834  0  1.360666  0  0  -0.199977  0  1.346623  0  0  -0.096571  -0.18251  0  1.370539  0
F  F80  1  0.92496341  0.70354466  0.57232721  1  0  -0.227505  0  1.216645  0  0  -0.179513  0  1.380162  0  0  -0.189698  0  1.366286  0  0  -0.087495  -0.172064  0  1.389867  0
F  F81  1  0.07503260  0.29646053  0.42767510  1  0  -0.22749  0  1.216708  0  0  -0.179453  0  1.380266  0  0  -0.189635  0  1.3664  0  0  -0.087429  -0.172003  0  1.389973  0
