# generated using pymatgen
data_CdH19C28(NO2)3
_symmetry_space_group_name_H-M   'P 1'
_cell_length_a   10.24501569
_cell_length_b   10.50735475
_cell_length_c   13.95706271
_cell_angle_alpha   89.29191448
_cell_angle_beta   70.45716382
_cell_angle_gamma   63.92270498
_symmetry_Int_Tables_number   1
_chemical_formula_structural   CdH19C28(NO2)3
_chemical_formula_sum   'Cd2 H38 C56 N6 O12'
_cell_volume   1255.55780092
_cell_formula_units_Z   2
loop_
 _symmetry_equiv_pos_site_id
 _symmetry_equiv_pos_as_xyz
  1  'x, y, z'
loop_
 _atom_site_type_symbol
 _atom_site_label
 _atom_site_symmetry_multiplicity
 _atom_site_fract_x
 _atom_site_fract_y
 _atom_site_fract_z
 _atom_site_occupancy
 _atom_site_pbe_bader_spin_density
 _atom_site_pbe_cm5_charge
 _atom_site_pbe_ddec_charge
 _atom_site_pbe_ddec_spin_density
 _atom_site_pbe_ddec_sum_bond_order
 _atom_site_pbe_magmom
Cd  Cd0  1  0.85131602  0.59899930  0.81772351  1  0  0.774036  0.883626  0  2.17971  0
Cd  Cd1  1  0.14868283  0.40100148  0.18227627  1  0  0.774043  0.883645  0  2.179675  0
H  H2  1  0.38854245  0.78160634  0.56890214  1  0  0.310638  0.260356  0  0.941907  0
H  H3  1  0.61145902  0.21839335  0.43109844  1  0  0.310663  0.260391  0  0.941874  0
H  H4  1  0.89344949  0.31020756  0.06996941  1  0  0.307797  0.378053  0  0.962034  0
H  H5  1  0.10654625  0.68979323  0.93003255  1  0  0.307778  0.378029  0  0.962084  0
H  H6  1  0.63445627  0.65234993  0.42326870  1  0  0.107801  0.12439  0  0.99541  0
H  H7  1  0.36554630  0.34764549  0.57672876  1  0  0.107829  0.124407  0  0.995339  0
H  H8  1  0.63092977  0.40305137  0.18245174  1  0  0.101396  0.109721  0  1.036097  0
H  H9  1  0.36906805  0.59694944  0.81754542  1  0  0.101378  0.109711  0  1.036145  0
H  H10  1  0.20682251  0.64477386  0.44082542  1  0  0.105377  0.119116  0  1.020226  0
H  H11  1  0.79317843  0.35522691  0.55917385  1  0  0.105397  0.119149  0  1.020248  0
H  H12  1  0.09919013  0.87393487  0.52789067  1  0  0.100984  0.070922  0  0.999435  0
H  H13  1  0.90081342  0.12606481  0.47210797  1  0  0.100973  0.070874  0  0.99946  0
H  H14  1  0.13098098  0.74743849  0.61358338  1  0  0.100566  0.080097  0  0.986347  0
H  H15  1  0.86901993  0.25256442  0.38641660  1  0  0.100563  0.080063  0  0.986294  0
H  H16  1  0.10161297  0.81243389  0.78376548  1  0  0.09952  0.110129  0  1.049391  0
H  H17  1  0.89839316  0.18756686  0.21623180  1  0  0.099487  0.11006  0  1.049437  0
H  H18  1  0.00539215  0.00183687  0.92805010  1  0  0.103998  0.105798  0  1.047442  0
H  H19  1  0.99461193  0.99816175  0.07194841  1  0  0.104001  0.105819  0  1.047338  0
H  H20  1  0.99227914  0.30875704  0.71814679  1  0  0.105355  0.112505  0  1.038266  0
H  H21  1  0.00771657  0.69124589  0.28185589  1  0  0.105356  0.11252  0  1.038286  0
H  H22  1  0.08774668  0.11832072  0.57382008  1  0  0.100535  0.103886  0  1.003037  0
H  H23  1  0.91225319  0.88168219  0.42618015  1  0  0.100535  0.103884  0  1.003014  0
H  H24  1  0.80561104  0.79840922  0.63441279  1  0  0.122413  0.095872  0  0.971597  0
H  H25  1  0.19438833  0.20159262  0.36558757  1  0  0.122405  0.095861  0  0.971605  0
H  H26  1  0.72446469  0.05714527  0.60880689  1  0  0.102484  0.105975  0  1.044596  0
H  H27  1  0.27553624  0.94285550  0.39119382  1  0  0.102479  0.105958  0  1.044601  0
H  H28  1  0.64227098  0.23944248  0.75916163  1  0  0.107064  0.108033  0  1.025596  0
H  H29  1  0.35772995  0.76055828  0.24083907  1  0  0.107056  0.108017  0  1.025625  0
H  H30  1  0.58774791  0.29674697  0.94678511  1  0  0.114845  0.131077  0  0.966514  0
H  H31  1  0.41224937  0.70325489  0.05321575  1  0  0.114856  0.131129  0  0.966526  0
H  H32  1  0.57933958  0.21561051  0.11343469  1  0  0.105767  0.118814  0  1.022965  0
H  H33  1  0.42066138  0.78438811  0.88656673  1  0  0.105767  0.118827  0  1.023008  0
H  H34  1  0.62100597  0.01616712  0.21917510  1  0  0.110307  0.111856  0  0.975013  0
H  H35  1  0.37899553  0.98383043  0.78082476  1  0  0.110295  0.111848  0  0.974991  0
H  H36  1  0.69647095  0.75570308  0.22821163  1  0  0.108291  0.116513  0  1.01184  0
H  H37  1  0.30353054  0.24429448  0.77178751  1  0  0.108248  0.116443  0  1.011849  0
H  H38  1  0.78207503  0.59008806  0.06668086  1  0  0.116219  0.092817  0  1.023258  0
H  H39  1  0.21792543  0.40990950  0.93331783  1  0  0.116229  0.092813  0  1.023298  0
C  C40  1  0.40724403  0.66927197  0.44225973  1  0  0.092203  0.233757  0  4.097447  0
C  C41  1  0.59275744  0.33072773  0.55773942  1  0  0.092178  0.233738  0  4.097469  0
C  C42  1  0.56954153  0.61632634  0.39220396  1  0  -0.092661  -0.200058  0  3.926612  0
C  C43  1  0.43045994  0.38367336  0.60779447  1  0  -0.09269  -0.200093  0  3.926597  0
C  C44  1  0.65046712  0.51920723  0.30034490  1  0  -0.0258  -0.029037  0  4.038013  0
C  C45  1  0.34953123  0.48079249  0.69965429  1  0  -0.025794  -0.02902  0  4.038003  0
C  C46  1  0.57051250  0.47329568  0.25642730  1  0  -0.103671  -0.168934  0  3.984974  0
C  C47  1  0.42948846  0.52670295  0.74357197  1  0  -0.103632  -0.168955  0  3.98493  0
C  C48  1  0.41099923  0.51924320  0.30872775  1  0  -0.023381  -0.009482  0  4.022548  0
C  C49  1  0.58900070  0.48075543  0.69127178  1  0  -0.023366  -0.009403  0  4.022484  0
C  C50  1  0.33022354  0.61425888  0.40201985  1  0  -0.096315  -0.209231  0  3.916789  0
C  C51  1  0.66977742  0.38573975  0.59797942  1  0  -0.096328  -0.209288  0  3.916813  0
C  C52  1  0.15978325  0.83296704  0.58228776  1  0  -0.059865  -0.064166  0  3.993867  0
C  C53  1  0.84021769  0.16703372  0.41771223  1  0  -0.059793  -0.063964  0  3.993773  0
C  C54  1  0.10157010  0.95169331  0.66876167  1  0  -0.009223  0.091462  0  3.988086  0
C  C55  1  0.89843081  0.04830961  0.33123759  1  0  -0.009235  0.091329  0  3.988104  0
C  C56  1  0.07877328  0.92087420  0.76905999  1  0  -0.096154  -0.140565  0  3.960718  0
C  C57  1  0.92122867  0.07912871  0.23093830  1  0  -0.096139  -0.140458  0  3.960659  0
C  C58  1  0.02350829  0.02810749  0.85077324  1  0  -0.083226  -0.079549  0  3.97689  0
C  C59  1  0.97649371  0.97189112  0.14922793  1  0  -0.083267  -0.079624  0  3.976894  0
C  C60  1  0.99039353  0.16890570  0.83393493  1  0  -0.022264  -0.068012  0  4.006707  0
C  C61  1  0.00960530  0.83109722  0.16606627  1  0  -0.022244  -0.06797  0  4.006779  0
C  C62  1  0.01522052  0.20048578  0.73327483  1  0  -0.077796  -0.071974  0  3.938869  0
C  C63  1  0.98477834  0.79951500  0.26672566  1  0  -0.077819  -0.072067  0  3.938915  0
C  C64  1  0.07019073  0.09238820  0.65170434  1  0  -0.092771  -0.143487  0  3.972636  0
C  C65  1  0.92980549  0.90761581  0.34829606  1  0  -0.092745  -0.14339  0  3.972563  0
C  C66  1  0.93432871  0.28147405  0.92211505  1  0  0.239393  0.594607  0  4.101784  0
C  C67  1  0.06567178  0.71852137  0.07788579  1  0  0.239387  0.594625  0  4.102095  0
C  C68  1  0.82242048  0.46987850  0.24779620  1  0  0.198887  0.556444  0  4.22442  0
C  C69  1  0.17758099  0.53012120  0.75220294  1  0  0.19887  0.556457  0  4.224528  0
C  C70  1  0.32175384  0.47273141  0.26364708  1  0  0.179848  0.540927  0  4.25844  0
C  C71  1  0.67824555  0.52726830  0.73635329  1  0  0.179799  0.540881  0  4.258591  0
C  C72  1  0.76739421  0.88239573  0.69766175  1  0  0.052749  0.096238  0  3.965727  0
C  C73  1  0.23260414  0.11760397  0.30233959  1  0  0.052757  0.096235  0  3.965748  0
C  C74  1  0.72341300  0.02617671  0.68382210  1  0  -0.089398  -0.138008  0  3.985053  0
C  C75  1  0.27658586  0.97382407  0.31617911  1  0  -0.089416  -0.138007  0  3.984988  0
C  C76  1  0.67683056  0.12699913  0.76707945  1  0  -0.056709  -0.056318  0  3.908243  0
C  C77  1  0.32316937  0.87299951  0.23292080  1  0  -0.056682  -0.056322  0  3.908178  0
C  C78  1  0.67232982  0.08461302  0.86398182  1  0  0.000213  0.039569  0  4.007477  0
C  C79  1  0.32766802  0.91538562  0.13601965  1  0  0.000241  0.039744  0  4.007317  0
C  C80  1  0.62338855  0.18367521  0.95338489  1  0  -0.078477  -0.106838  0  3.951281  0
C  C81  1  0.37660929  0.81632343  0.04661657  1  0  -0.07845  -0.10695  0  3.95136  0
C  C82  1  0.61991447  0.13810511  0.04576957  1  0  -0.080191  -0.10812  0  3.95839  0
C  C83  1  0.38008442  0.86189353  0.95423093  1  0  -0.080248  -0.108229  0  3.958473  0
C  C84  1  0.66293692  0.99100766  0.05620875  1  0  -0.001338  0.044213  0  4.003853  0
C  C85  1  0.33706247  0.00899205  0.94379161  1  0  -0.001338  0.044325  0  4.003793  0
C  C86  1  0.65754463  0.94079701  0.15109258  1  0  -0.062954  -0.074784  0  3.941563  0
C  C87  1  0.34245583  0.05920056  0.84890682  1  0  -0.062975  -0.074846  0  3.94156  0
C  C88  1  0.69854652  0.79771722  0.15633331  1  0  -0.083789  -0.125033  0  3.975128  0
C  C89  1  0.30145601  0.20228033  0.84366559  1  0  -0.083733  -0.124913  0  3.975054  0
C  C90  1  0.74587621  0.70430935  0.06634143  1  0  0.059234  0.118325  0  3.904643  0
C  C91  1  0.25412529  0.29568821  0.93365772  1  0  0.05922  0.118338  0  3.904602  0
C  C92  1  0.71178038  0.88910761  0.96931216  1  0  0.117653  0.119398  0  3.96441  0
C  C93  1  0.28821901  0.11089211  0.03068677  1  0  0.117623  0.119258  0  3.964515  0
C  C94  1  0.71762538  0.93694732  0.87099654  1  0  0.120782  0.125049  0  3.972866  0
C  C95  1  0.28237348  0.06305346  0.12900466  1  0  0.120799  0.125103  0  3.972779  0
N  N96  1  0.32668589  0.77849828  0.52611540  1  0  -0.444556  -0.35464  0  3.553027  0
N  N97  1  0.67331661  0.22150141  0.47388421  1  0  -0.444607  -0.354703  0  3.553039  0
N  N98  1  0.76494258  0.83961943  0.78817607  1  0  -0.323832  -0.276743  0  3.521849  0
N  N99  1  0.23505577  0.16038028  0.21182527  1  0  -0.323803  -0.276744  0  3.521871  0
N  N100  1  0.75183273  0.74893446  0.97606995  1  0  -0.318466  -0.262007  0  3.502375  0
N  N101  1  0.24816719  0.25106418  0.02393029  1  0  -0.318441  -0.261992  0  3.502397  0
O  O102  1  0.90801851  0.40750548  0.91474539  1  0  -0.291333  -0.503465  0  2.303529  0
O  O103  1  0.09197607  0.59250388  0.08525610  1  0  -0.291333  -0.503474  0  2.303965  0
O  O104  1  0.91750493  0.23439266  0.01200029  1  0  -0.323429  -0.481171  0  2.343059  0
O  O105  1  0.08249808  0.76560810  0.98799919  1  0  -0.323416  -0.481146  0  2.343023  0
O  O106  1  0.89020397  0.50994886  0.29339316  1  0  -0.326244  -0.535074  0  2.208398  0
O  O107  1  0.10979856  0.49004869  0.70660573  1  0  -0.326228  -0.535055  0  2.208375  0
O  O108  1  0.89692275  0.39018612  0.15964939  1  0  -0.322788  -0.577479  0  2.290256  0
O  O109  1  0.10307560  0.60981360  0.84034979  1  0  -0.322796  -0.577524  0  2.290333  0
O  O110  1  0.37188541  0.43987722  0.16593540  1  0  -0.336924  -0.559947  0  2.167667  0
O  O111  1  0.62811344  0.56012356  0.83406437  1  0  -0.336943  -0.559981  0  2.167779  0
O  O112  1  0.19804934  0.47065486  0.32418077  1  0  -0.342793  -0.555415  0  2.144184  0
O  O113  1  0.80194794  0.52934700  0.67581938  1  0  -0.34276  -0.555372  0  2.144211  0
