# generated using pymatgen
data_BiH4C10(NO2)4
_symmetry_space_group_name_H-M   'P 1'
_cell_length_a   7.00367523
_cell_length_b   7.03727750
_cell_length_c   12.97549301
_cell_angle_alpha   81.54751840
_cell_angle_beta   78.36025577
_cell_angle_gamma   74.84947493
_symmetry_Int_Tables_number   1
_chemical_formula_structural   BiH4C10(NO2)4
_chemical_formula_sum   'Bi2 H8 C20 N8 O16'
_cell_volume   601.58562482
_cell_formula_units_Z   2
loop_
 _symmetry_equiv_pos_site_id
 _symmetry_equiv_pos_as_xyz
  1  'x, y, z'
loop_
 _atom_site_type_symbol
 _atom_site_label
 _atom_site_symmetry_multiplicity
 _atom_site_fract_x
 _atom_site_fract_y
 _atom_site_fract_z
 _atom_site_occupancy
 _atom_site_pbe_bader_spin_density
 _atom_site_pbe_cm5_charge
 _atom_site_pbe_ddec_charge
 _atom_site_pbe_ddec_spin_density
 _atom_site_pbe_ddec_sum_bond_order
 _atom_site_pbe_magmom
Bi  Bi0  1  0.04015187  0.87410578  0.85168960  1  0  0.948863  1.478155  0  2.545685  0
Bi  Bi1  1  0.95997880  0.12586082  0.14835819  1  0  0.94871  1.477766  0  2.54617  0
H  H2  1  0.30288484  0.05117531  0.43216467  1  0  0.297697  0.349889  0  0.994329  0
H  H3  1  0.69714399  0.94886937  0.56787208  1  0  0.297715  0.349769  0  0.994568  0
H  H4  1  0.79190903  0.41493088  0.90085099  1  0  0.135776  0.098072  0  1.040631  0
H  H5  1  0.20810199  0.58500646  0.09912202  1  0  0.135741  0.098074  0  1.040848  0
H  H6  1  0.08747799  0.43054984  0.70267440  1  0  0.143607  0.117051  0  1.016061  0
H  H7  1  0.91253468  0.56943136  0.29727954  1  0  0.143655  0.117006  0  1.016031  0
H  H8  1  0.23740742  0.42876110  0.51282770  1  0  0.324093  0.29711  0  0.959043  0
H  H9  1  0.76262817  0.57130626  0.48714415  1  0  0.324033  0.297236  0  0.959133  0
C  C10  1  0.56276392  0.08526704  0.87989357  1  0  0.137901  0.061745  0  3.845749  0
C  C11  1  0.43721362  0.91470404  0.12011545  1  0  0.137976  0.061975  0  3.846324  0
C  C12  1  0.40106416  0.26281938  0.90192572  1  0  0.141163  0.080884  0  3.864828  0
C  C13  1  0.59892081  0.73715285  0.09807401  1  0  0.141182  0.080668  0  3.865075  0
C  C14  1  0.68286616  0.33109742  0.89834537  1  0  0.205664  0.298108  0  3.74031  0
C  C15  1  0.31712925  0.66884203  0.10164209  1  0  0.205798  0.29798  0  3.741045  0
C  C16  1  0.57341436  0.88689564  0.84845985  1  0  0.217672  0.57274  0  4.240618  0
C  C17  1  0.42654183  0.11305542  0.15153740  1  0  0.217838  0.573029  0  4.2406  0
C  C18  1  0.18030730  0.29997619  0.91207132  1  0  0.230195  0.57812  0  4.19994  0
C  C19  1  0.81967379  0.69999184  0.08793760  1  0  0.230328  0.57827  0  4.199866  0
C  C20  1  0.18628120  0.84786079  0.59822353  1  0  0.084456  -0.022063  0  4.032585  0
C  C21  1  0.81368499  0.15217088  0.40178253  1  0  0.084402  -0.021849  0  4.032707  0
C  C22  1  0.24754587  0.73609464  0.51199322  1  0  0.092491  -0.008095  0  3.954637  0
C  C23  1  0.75243919  0.26396857  0.48799231  1  0  0.092578  -0.008008  0  3.95538  0
C  C24  1  0.13025672  0.55694190  0.65429821  1  0  0.18042  0.220374  0  3.84015  0
C  C25  1  0.86976366  0.44305844  0.34568430  1  0  0.180342  0.220363  0  3.840062  0
C  C26  1  0.17733902  0.05497076  0.61020476  1  0  0.222827  0.568199  0  4.223852  0
C  C27  1  0.82263539  0.94503427  0.38980956  1  0  0.222709  0.567905  0  4.223614  0
C  C28  1  0.33883164  0.77766295  0.40079801  1  0  0.218525  0.543364  0  4.220779  0
C  C29  1  0.66117749  0.22241712  0.59918540  1  0  0.218691  0.543359  0  4.221104  0
N  N30  1  0.73568799  0.13813906  0.87602585  1  0  -0.31512  -0.349815  0  3.44568  0
N  N31  1  0.26433554  0.86177604  0.12396854  1  0  -0.315368  -0.350122  0  3.446394  0
N  N32  1  0.11573167  0.73317778  0.68478992  1  0  -0.313345  -0.307064  0  3.480017  0
N  N33  1  0.88427567  0.26681280  0.31520619  1  0  -0.313412  -0.307165  0  3.480143  0
N  N34  1  0.20914267  0.55475613  0.55072661  1  0  -0.357602  -0.209067  0  3.661443  0
N  N35  1  0.79086743  0.44528708  0.44924885  1  0  -0.357582  -0.20923  0  3.661682  0
N  N36  1  0.48135655  0.40841793  0.91316736  1  0  -0.290764  -0.270647  0  3.231729  0
N  N37  1  0.51861674  0.59156338  0.08682276  1  0  -0.29086  -0.27045  0  3.232368  0
O  O38  1  0.74993426  0.76897753  0.84000441  1  0  -0.28144  -0.520371  0  2.238961  0
O  O39  1  0.25005303  0.23102404  0.15999815  1  0  -0.281466  -0.52024  0  2.239394  0
O  O40  1  0.23293732  0.16574027  0.52901530  1  0  -0.294728  -0.519089  0  2.220343  0
O  O41  1  0.76706581  0.83424480  0.47100401  1  0  -0.294622  -0.518946  0  2.219977  0
O  O42  1  0.10749471  0.11237157  0.70270948  1  0  -0.277407  -0.514417  0  2.210392  0
O  O43  1  0.89247214  0.88763375  0.29731018  1  0  -0.277383  -0.514304  0  2.210394  0
O  O44  1  0.42021377  0.84531851  0.83144509  1  0  -0.284572  -0.526252  0  2.264459  0
O  O45  1  0.57971293  0.15462510  0.16859801  1  0  -0.284629  -0.526483  0  2.263552  0
O  O46  1  0.10129418  0.15181320  0.94926975  1  0  -0.294026  -0.609441  0  2.34542  0
O  O47  1  0.89866136  0.84816901  0.05075592  1  0  -0.294163  -0.609576  0  2.34517  0
O  O48  1  0.08183303  0.47141061  0.88843367  1  0  -0.265218  -0.497208  0  2.243912  0
O  O49  1  0.91817507  0.52856234  0.11156454  1  0  -0.265155  -0.497146  0  2.244265  0
O  O50  1  0.39838407  0.64655275  0.34052501  1  0  -0.284066  -0.449296  0  2.080387  0
O  O51  1  0.60160204  0.35358516  0.65943751  1  0  -0.284205  -0.449414  0  2.080521  0
O  O52  1  0.35238336  0.96305642  0.37019701  1  0  -0.322973  -0.460873  0  2.340452  0
O  O53  1  0.64769876  0.03701574  0.62981545  1  0  -0.322939  -0.460576  0  2.340799  0
