# generated using pymatgen
data_CdH5C6(N2O)3
_symmetry_space_group_name_H-M   'P 1'
_cell_length_a   5.92595453
_cell_length_b   11.43300405
_cell_length_c   13.15256403
_cell_angle_alpha   89.99988957
_cell_angle_beta   90.00005412
_cell_angle_gamma   93.67369438
_symmetry_Int_Tables_number   1
_chemical_formula_structural   CdH5C6(N2O)3
_chemical_formula_sum   'Cd4 H20 C24 N24 O12'
_cell_volume   889.27434858
_cell_formula_units_Z   4
loop_
 _symmetry_equiv_pos_site_id
 _symmetry_equiv_pos_as_xyz
  1  'x, y, z'
loop_
 _atom_site_type_symbol
 _atom_site_label
 _atom_site_symmetry_multiplicity
 _atom_site_fract_x
 _atom_site_fract_y
 _atom_site_fract_z
 _atom_site_occupancy
 _atom_site_hle17_bader_spin_density
 _atom_site_hle17_ddec_charge
 _atom_site_hle17_ddec_spin_density
 _atom_site_hle17_ddec_sum_bond_order
 _atom_site_hle17_magmom
 _atom_site_hse06_10hf_bader_spin_density
 _atom_site_hse06_10hf_ddec_charge
 _atom_site_hse06_10hf_ddec_spin_density
 _atom_site_hse06_10hf_ddec_sum_bond_order
 _atom_site_hse06_10hf_magmom
 _atom_site_hse06_bader_spin_density
 _atom_site_hse06_ddec_charge
 _atom_site_hse06_ddec_spin_density
 _atom_site_hse06_ddec_sum_bond_order
 _atom_site_hse06_magmom
 _atom_site_pbe_bader_spin_density
 _atom_site_pbe_cm5_charge
 _atom_site_pbe_ddec_charge
 _atom_site_pbe_ddec_spin_density
 _atom_site_pbe_ddec_sum_bond_order
 _atom_site_pbe_magmom
Cd  Cd0  1  0.42773619  0.15725906  0.54963584  1  0  1.148512  0  1.684084  0  0  0.951936  0  2.132063  0  0  1.00896  0  2.080474  0  0  0.785428  0.911356  0  2.16736  0
Cd  Cd1  1  0.07225969  0.34274111  0.04963721  1  0  1.148441  0  1.684149  0  0  0.951862  0  2.13214  0  0  1.008887  0  2.080548  0  0  0.785401  0.911282  0  2.167442  0
Cd  Cd2  1  0.57224313  0.84273719  0.45035961  1  0  1.14853  0  1.684012  0  0  0.951933  0  2.132002  0  0  1.008956  0  2.080416  0  0  0.78544  0.911353  0  2.167297  0
Cd  Cd3  1  0.92775763  0.65726104  0.95036204  1  0  1.148482  0  1.684038  0  0  0.951883  0  2.132036  0  0  1.008912  0  2.080442  0  0  0.78543  0.911299  0  2.167339  0
H  H4  1  0.43115107  0.41328918  0.60182164  1  0  0.374403  0  0.953183  0  0  0.329255  0  1.039277  0  0  0.340811  0  1.022922  0  0  0.275554  0.32114  0  1.050713  0
H  H5  1  0.06884272  0.08670826  0.10182040  1  0  0.374363  0  0.953239  0  0  0.329217  0  1.039327  0  0  0.340774  0  1.022971  0  0  0.275544  0.321101  0  1.050763  0
H  H6  1  0.56884602  0.58670169  0.39818293  1  0  0.374396  0  0.953193  0  0  0.329242  0  1.039282  0  0  0.340797  0  1.022926  0  0  0.27554  0.321128  0  1.050714  0
H  H7  1  0.93116149  0.91329661  0.89817884  1  0  0.374363  0  0.953244  0  0  0.329203  0  1.039328  0  0  0.340758  0  1.022973  0  0  0.275517  0.321088  0  1.050762  0
H  H8  1  0.28001463  0.38377011  0.50117355  1  0  0.390759  0  0.924328  0  0  0.349274  0  1.006233  0  0  0.360793  0  0.989622  0  0  0.279091  0.341169  0  1.017892  0
H  H9  1  0.21998943  0.11622836  0.00117239  1  0  0.390795  0  0.924232  0  0  0.349349  0  1.0061  0  0  0.36087  0  0.989486  0  0  0.279143  0.341242  0  1.017761  0
H  H10  1  0.71998104  0.61622253  0.49883026  1  0  0.390714  0  0.924354  0  0  0.349256  0  1.006231  0  0  0.360775  0  0.989619  0  0  0.279091  0.34115  0  1.01789  0
H  H11  1  0.78002360  0.88377908  0.99882458  1  0  0.390756  0  0.924328  0  0  0.34929  0  1.006221  0  0  0.36081  0  0.989607  0  0  0.279069  0.341182  0  1.017883  0
H  H12  1  0.97425428  0.31991478  0.63762485  1  0  0.102183  0  0.959442  0  0  0.107336  0  1.026869  0  0  0.110875  0  1.023453  0  0  0.117842  0.104704  0  1.02958  0
H  H13  1  0.52574051  0.18009397  0.13763026  1  0  0.102196  0  0.959661  0  0  0.10735  0  1.02704  0  0  0.110873  0  1.023661  0  0  0.117859  0.104717  0  1.02975  0
H  H14  1  0.02576226  0.68008211  0.36237060  1  0  0.102225  0  0.959615  0  0  0.107393  0  1.026971  0  0  0.110938  0  1.02354  0  0  0.117879  0.104754  0  1.029703  0
H  H15  1  0.47425566  0.81991357  0.86236899  1  0  0.102157  0  0.959592  0  0  0.107373  0  1.026906  0  0  0.110899  0  1.023523  0  0  0.117851  0.10474  0  1.029615  0
H  H16  1  0.16537886  0.37479672  0.80350543  1  0  0.104667  0  0.914603  0  0  0.109707  0  0.981086  0  0  0.113094  0  0.978277  0  0  0.124673  0.107384  0  0.982895  0
H  H17  1  0.33461724  0.12520466  0.30351119  1  0  0.104623  0  0.91459  0  0  0.109662  0  0.981083  0  0  0.113052  0  0.978276  0  0  0.124636  0.107335  0  0.982894  0
H  H18  1  0.83462795  0.62520287  0.19649077  1  0  0.10464  0  0.914461  0  0  0.109648  0  0.980974  0  0  0.113036  0  0.97817  0  0  0.124623  0.10732  0  0.98279  0
H  H19  1  0.66537207  0.87479065  0.69648425  1  0  0.104675  0  0.914632  0  0  0.109684  0  0.981136  0  0  0.113074  0  0.978326  0  0  0.124641  0.107361  0  0.982946  0
H  H20  1  0.66946120  0.17264597  0.95942370  1  0  0.105967  0  0.922718  0  0  0.114984  0  0.98383  0  0  0.118542  0  0.979907  0  0  0.128126  0.112256  0  0.98698  0
H  H21  1  0.83054847  0.32734883  0.45942151  1  0  0.10597  0  0.922845  0  0  0.114985  0  0.98397  0  0  0.118546  0  0.980045  0  0  0.12809  0.112257  0  0.987124  0
H  H22  1  0.33054677  0.82736150  0.04057935  1  0  0.106062  0  0.922743  0  0  0.115049  0  0.983898  0  0  0.118632  0  0.979944  0  0  0.128139  0.112322  0  0.98705  0
H  H23  1  0.16943552  0.67264475  0.54058078  1  0  0.105985  0  0.922765  0  0  0.114998  0  0.983881  0  0  0.118539  0  0.979975  0  0  0.128062  0.112272  0  0.987033  0
C  C24  1  0.40809017  0.11275149  0.79313440  1  0  0.234066  0  3.834799  0  0  0.204999  0  4.102902  0  0  0.213444  0  4.123031  0  0  0.214774  0.199585  0  4.088804  0
C  C25  1  0.09191242  0.38724811  0.29313875  1  0  0.234075  0  3.834437  0  0  0.204919  0  4.102682  0  0  0.213361  0  4.122813  0  0  0.214695  0.199509  0  4.088583  0
C  C26  1  0.59191910  0.88725334  0.20686485  1  0  0.23402  0  3.834583  0  0  0.204918  0  4.102817  0  0  0.21336  0  4.122951  0  0  0.21467  0.199504  0  4.088719  0
C  C27  1  0.90808052  0.61274893  0.70686582  1  0  0.234226  0  3.834777  0  0  0.205122  0  4.10287  0  0  0.213565  0  4.123003  0  0  0.214812  0.199713  0  4.08877  0
C  C28  1  0.62052447  0.18417924  0.79630263  1  0  0.12792  0  3.769924  0  0  0.132966  0  4.013926  0  0  0.135271  0  4.032509  0  0  0.132597  0.131049  0  4.001287  0
C  C29  1  0.87947899  0.31581947  0.29629745  1  0  0.128103  0  3.77028  0  0  0.133155  0  4.01433  0  0  0.135462  0  4.032913  0  0  0.132794  0.131231  0  4.001696  0
C  C30  1  0.37948415  0.81582121  0.20369966  1  0  0.128232  0  3.770023  0  0  0.133162  0  4.014245  0  0  0.135467  0  4.032837  0  0  0.132753  0.131239  0  4.001613  0
C  C31  1  0.12051394  0.68417757  0.70370180  1  0  0.127823  0  3.770347  0  0  0.132946  0  4.014211  0  0  0.135256  0  4.032786  0  0  0.13266  0.13102  0  4.001584  0
C  C32  1  0.89949367  0.29033451  0.70945038  1  0  0.103342  0  3.659231  0  0  0.06942  0  3.930178  0  0  0.072099  0  3.946013  0  0  0.055685  0.067274  0  3.919896  0
C  C33  1  0.60048763  0.20966277  0.20944592  1  0  0.103359  0  3.658641  0  0  0.069431  0  3.929633  0  0  0.07211  0  3.945458  0  0  0.055712  0.067281  0  3.919347  0
C  C34  1  0.10049837  0.70965640  0.29055038  1  0  0.103248  0  3.658925  0  0  0.069368  0  3.929739  0  0  0.072052  0  3.945572  0  0  0.055656  0.067213  0  3.919461  0
C  C35  1  0.39949519  0.79033433  0.79054952  1  0  0.103425  0  3.65892  0  0  0.069477  0  3.929859  0  0  0.072153  0  3.945688  0  0  0.055751  0.067335  0  3.919569  0
C  C36  1  0.00966688  0.31851726  0.80098043  1  0  0.095209  0  3.614168  0  0  0.059968  0  3.87919  0  0  0.064457  0  3.895377  0  0  0.056022  0.056731  0  3.868634  0
C  C37  1  0.49033660  0.18148846  0.30098775  1  0  0.095253  0  3.614533  0  0  0.060021  0  3.879559  0  0  0.064502  0  3.895752  0  0  0.056113  0.056791  0  3.868987  0
C  C38  1  0.99035107  0.68148927  0.19901121  1  0  0.09527  0  3.614845  0  0  0.060067  0  3.879739  0  0  0.064544  0  3.895945  0  0  0.056139  0.056859  0  3.86913  0
C  C39  1  0.50965503  0.81851122  0.69901226  1  0  0.095154  0  3.614321  0  0  0.059912  0  3.879362  0  0  0.064395  0  3.895558  0  0  0.055993  0.056674  0  3.868799  0
C  C40  1  0.73491904  0.20831356  0.88787263  1  0  0.086699  0  3.633703  0  0  0.045347  0  3.887815  0  0  0.049853  0  3.902491  0  0  0.065002  0.042125  0  3.87835  0
C  C41  1  0.76509479  0.29168664  0.38787957  1  0  0.086727  0  3.633146  0  0  0.045366  0  3.88729  0  0  0.049872  0  3.901956  0  0  0.06508  0.042142  0  3.877833  0
C  C42  1  0.26510618  0.79169644  0.11212282  1  0  0.086526  0  3.633169  0  0  0.045191  0  3.887362  0  0  0.049681  0  3.902027  0  0  0.064973  0.041967  0  3.877907  0
C  C43  1  0.23489776  0.70830777  0.61212500  1  0  0.086747  0  3.633717  0  0  0.045402  0  3.887705  0  0  0.049924  0  3.902383  0  0  0.065091  0.042181  0  3.878245  0
C  C44  1  0.92766310  0.05239986  0.51320293  1  0  0.548064  0  3.921256  0  0  0.493379  0  4.228732  0  0  0.524832  0  4.22044  0  0  0.198339  0.471896  0  4.233738  0
C  C45  1  0.57234041  0.44759946  0.01320944  1  0  0.547891  0  3.920981  0  0  0.4932  0  4.228527  0  0  0.524653  0  4.220236  0  0  0.198246  0.471715  0  4.233534  0
C  C46  1  0.07231260  0.94759466  0.48678947  1  0  0.548089  0  3.921263  0  0  0.493251  0  4.228942  0  0  0.524712  0  4.22064  0  0  0.198319  0.471769  0  4.233944  0
C  C47  1  0.42768274  0.55240792  0.98679513  1  0  0.548172  0  3.921006  0  0  0.493332  0  4.228692  0  0  0.524795  0  4.220384  0  0  0.19829  0.471846  0  4.233701  0
N  N48  1  0.30437538  0.08095454  0.70536898  1  0  -0.333936  0  3.182387  0  0  -0.270125  0  3.47077  0  0  -0.29032  0  3.491071  0  0  -0.229993  -0.256213  0  3.456693  0
N  N49  1  0.19562735  0.41904613  0.20536956  1  0  -0.333945  0  3.182254  0  0  -0.270107  0  3.470655  0  0  -0.290301  0  3.490958  0  0  -0.229982  -0.256199  0  3.456583  0
N  N50  1  0.69562922  0.91905296  0.29463102  1  0  -0.334077  0  3.182267  0  0  -0.270246  0  3.470647  0  0  -0.290441  0  3.490952  0  0  -0.230059  -0.256335  0  3.456566  0
N  N51  1  0.80437064  0.58095088  0.79463196  1  0  -0.334049  0  3.182299  0  0  -0.270241  0  3.47066  0  0  -0.290437  0  3.490965  0  0  -0.230094  -0.256328  0  3.456581  0
N  N52  1  0.11546304  0.01702070  0.73077085  1  0  -0.060455  0  2.926934  0  0  -0.062941  0  3.218449  0  0  -0.062262  0  3.234783  0  0  -0.092651  -0.063199  0  3.207176  0
N  N53  1  0.38453775  0.48297817  0.23076996  1  0  -0.060482  0  2.926982  0  0  -0.062948  0  3.218478  0  0  -0.062267  0  3.234813  0  0  -0.092655  -0.063207  0  3.20721  0
N  N54  1  0.88453832  0.98298769  0.26923068  1  0  -0.060369  0  2.926762  0  0  -0.062823  0  3.21823  0  0  -0.062143  0  3.234561  0  0  -0.092577  -0.063082  0  3.20696  0
N  N55  1  0.61545493  0.51701712  0.76923537  1  0  -0.060478  0  2.926817  0  0  -0.06292  0  3.218267  0  0  -0.06224  0  3.234602  0  0  -0.092635  -0.063179  0  3.207  0
N  N56  1  0.10679816  0.01075199  0.83107373  1  0  -0.105847  0  3.092579  0  0  -0.068339  0  3.375039  0  0  -0.073066  0  3.389317  0  0  -0.087173  -0.064836  0  3.365199  0
N  N57  1  0.39321104  0.48924661  0.33107359  1  0  -0.105916  0  3.09259  0  0  -0.068419  0  3.375067  0  0  -0.073149  0  3.389348  0  0  -0.087181  -0.064916  0  3.365229  0
N  N58  1  0.89321163  0.98925634  0.16892780  1  0  -0.105833  0  3.092742  0  0  -0.068332  0  3.375223  0  0  -0.073059  0  3.389499  0  0  -0.08718  -0.064832  0  3.365384  0
N  N59  1  0.60678164  0.51074868  0.66893174  1  0  -0.105776  0  3.092633  0  0  -0.068294  0  3.375133  0  0  -0.073024  0  3.389416  0  0  -0.087102  -0.064792  0  3.365296  0
N  N60  1  0.28734909  0.06966791  0.87287777  1  0  -0.304954  0  3.004217  0  0  -0.267177  0  3.268119  0  0  -0.279336  0  3.282463  0  0  -0.208694  -0.25893  0  3.258295  0
N  N61  1  0.21266179  0.43033059  0.37287986  1  0  -0.304892  0  3.004027  0  0  -0.267067  0  3.267935  0  0  -0.279226  0  3.282283  0  0  -0.208675  -0.25882  0  3.258112  0
N  N62  1  0.71266887  0.93033862  0.12712300  1  0  -0.304944  0  3.004237  0  0  -0.267132  0  3.26814  0  0  -0.279289  0  3.282487  0  0  -0.208635  -0.258886  0  3.258316  0
N  N63  1  0.78733271  0.56966556  0.62712699  1  0  -0.305025  0  3.00439  0  0  -0.267234  0  3.268284  0  0  -0.279392  0  3.282631  0  0  -0.208746  -0.258985  0  3.258459  0
N  N64  1  0.70338260  0.22568088  0.70705159  1  0  -0.290879  0  3.102208  0  0  -0.245311  0  3.366176  0  0  -0.256126  0  3.381447  0  0  -0.285665  -0.237502  0  3.355731  0
N  N65  1  0.79663241  0.27432760  0.20705858  1  0  -0.290994  0  3.102369  0  0  -0.245402  0  3.366328  0  0  -0.256217  0  3.381603  0  0  -0.285789  -0.237592  0  3.355883  0
N  N66  1  0.29664353  0.77432385  0.29294310  1  0  -0.291005  0  3.102145  0  0  -0.24542  0  3.366152  0  0  -0.256239  0  3.381424  0  0  -0.285765  -0.237608  0  3.355712  0
N  N67  1  0.20336480  0.72567556  0.79294599  1  0  -0.290897  0  3.102405  0  0  -0.245355  0  3.366327  0  0  -0.256174  0  3.381608  0  0  -0.285696  -0.237542  0  3.355881  0
N  N68  1  0.92574552  0.27731878  0.88976506  1  0  -0.274344  0  3.242885  0  0  -0.202746  0  3.511891  0  0  -0.218366  0  3.529407  0  0  -0.307245  -0.191864  0  3.499963  0
N  N69  1  0.57424406  0.22267718  0.38976283  1  0  -0.274486  0  3.243016  0  0  -0.202876  0  3.512029  0  0  -0.218495  0  3.529551  0  0  -0.307444  -0.191994  0  3.500093  0
N  N70  1  0.07424962  0.72268176  0.11023875  1  0  -0.27433  0  3.242995  0  0  -0.202707  0  3.51194  0  0  -0.218327  0  3.529468  0  0  -0.307276  -0.19183  0  3.500011  0
N  N71  1  0.42572774  0.77731385  0.61023261  1  0  -0.274339  0  3.242909  0  0  -0.202739  0  3.511861  0  0  -0.218357  0  3.529366  0  0  -0.307248  -0.191853  0  3.499932  0
O  O72  1  0.02341862  0.15351961  0.51705724  1  0  -0.584576  0  2.058432  0  0  -0.527791  0  2.311286  0  0  -0.554889  0  2.304452  0  0  -0.308438  -0.50872  0  2.315404  0
O  O73  1  0.47656430  0.34647282  0.01705741  1  0  -0.584526  0  2.057932  0  0  -0.527721  0  2.310788  0  0  -0.55482  0  2.303954  0  0  -0.308436  -0.508648  0  2.314909  0
O  O74  1  0.97656965  0.84648009  0.48293745  1  0  -0.584633  0  2.058613  0  0  -0.527784  0  2.31152  0  0  -0.55488  0  2.304679  0  0  -0.308479  -0.508715  0  2.31564  0
O  O75  1  0.52344330  0.65352062  0.98294640  1  0  -0.584581  0  2.058459  0  0  -0.527742  0  2.311368  0  0  -0.554839  0  2.304528  0  0  -0.308426  -0.508672  0  2.315492  0
O  O76  1  0.71764633  0.02626367  0.52839838  1  0  -0.636735  0  2.161949  0  0  -0.563368  0  2.437002  0  0  -0.594911  0  2.426871  0  0  -0.322114  -0.541128  0  2.443082  0
O  O77  1  0.78234511  0.47373394  0.02840578  1  0  -0.636607  0  2.162093  0  0  -0.563257  0  2.437148  0  0  -0.594797  0  2.427018  0  0  -0.322039  -0.541018  0  2.443231  0
O  O78  1  0.28233532  0.97373695  0.47159250  1  0  -0.63661  0  2.161649  0  0  -0.563226  0  2.436782  0  0  -0.594774  0  2.426652  0  0  -0.322056  -0.540983  0  2.442858  0
O  O79  1  0.21765833  0.52626567  0.97159650  1  0  -0.63665  0  2.161708  0  0  -0.563266  0  2.436847  0  0  -0.594814  0  2.426713  0  0  -0.322034  -0.54102  0  2.442927  0
O  O80  1  0.32922309  0.35175515  0.56747854  1  0  -0.830112  0  1.966968  0  0  -0.7608  0  2.187237  0  0  -0.783784  0  2.152123  0  0  -0.591166  -0.744302  0  2.211355  0
O  O81  1  0.17077966  0.14824582  0.06747804  1  0  -0.830112  0  1.966983  0  0  -0.760836  0  2.187161  0  0  -0.783816  0  2.152048  0  0  -0.591223  -0.744335  0  2.211276  0
O  O82  1  0.67077245  0.64823661  0.43252527  1  0  -0.830031  0  1.966862  0  0  -0.760725  0  2.187106  0  0  -0.783708  0  2.151996  0  0  -0.591149  -0.744231  0  2.211229  0
O  O83  1  0.82923013  0.85176252  0.93252197  1  0  -0.830077  0  1.966877  0  0  -0.760763  0  2.187139  0  0  -0.783742  0  2.152026  0  0  -0.591115  -0.744267  0  2.211264  0
