# generated using pymatgen
data_Ho2PH19C11NO16
_symmetry_space_group_name_H-M   'P 1'
_cell_length_a   9.62820692
_cell_length_b   10.64575603
_cell_length_c   11.92556762
_cell_angle_alpha   70.47739130
_cell_angle_beta   68.95950518
_cell_angle_gamma   64.50509386
_symmetry_Int_Tables_number   1
_chemical_formula_structural   Ho2PH19C11NO16
_chemical_formula_sum   'Ho4 P2 H38 C22 N2 O32'
_cell_volume   1006.08799318
_cell_formula_units_Z   2
loop_
 _symmetry_equiv_pos_site_id
 _symmetry_equiv_pos_as_xyz
  1  'x, y, z'
loop_
 _atom_site_type_symbol
 _atom_site_label
 _atom_site_symmetry_multiplicity
 _atom_site_fract_x
 _atom_site_fract_y
 _atom_site_fract_z
 _atom_site_occupancy
 _atom_site_hle17_bader_spin_density
 _atom_site_hle17_ddec_charge
 _atom_site_hle17_ddec_spin_density
 _atom_site_hle17_ddec_sum_bond_order
 _atom_site_hle17_magmom
 _atom_site_hse06_10hf_bader_spin_density
 _atom_site_hse06_10hf_ddec_charge
 _atom_site_hse06_10hf_ddec_spin_density
 _atom_site_hse06_10hf_ddec_sum_bond_order
 _atom_site_hse06_10hf_magmom
 _atom_site_hse06_bader_spin_density
 _atom_site_hse06_ddec_charge
 _atom_site_hse06_ddec_spin_density
 _atom_site_hse06_ddec_sum_bond_order
 _atom_site_hse06_magmom
 _atom_site_pbe_bader_spin_density
 _atom_site_pbe_cm5_charge
 _atom_site_pbe_ddec_charge
 _atom_site_pbe_ddec_spin_density
 _atom_site_pbe_ddec_sum_bond_order
 _atom_site_pbe_magmom
Ho  Ho0  1  0.92848143  0.18956853  0.25053714  1  0  2.204346  0  1.654904  0  0  2.048843  0  2.143095  0  0  2.094775  0  2.106404  0  0  1.500567  2.013155  0  2.172927  0
Ho  Ho1  1  0.07151821  0.81042958  0.74946600  1  0  2.204289  0  1.654918  0  0  2.048808  0  2.143076  0  0  2.094731  0  2.106395  0  0  1.500616  2.013092  0  2.173019  0
Ho  Ho2  1  0.58463320  0.83757448  0.21580728  1  0  2.272188  0  1.622269  0  0  2.126695  0  2.096999  0  0  2.254471  0  1.90182  0  0  1.522192  2.094461  0  2.124231  0
Ho  Ho3  1  0.41536604  0.16242479  0.78419314  1  0  2.272181  0  1.622427  0  0  2.126707  0  2.097157  0  0  2.254474  0  1.901987  0  0  1.52218  2.094474  0  2.124357  0
P  P4  1  0.33450606  0.18475962  0.09860619  1  0  1.580509  0  4.822558  0  0  1.429763  0  5.320707  0  0  1.481998  0  5.28411  0  0  0.361391  1.393928  0  5.349174  0
P  P5  1  0.66549348  0.81524169  0.90139526  1  0  1.580593  0  4.822397  0  0  1.429881  0  5.320529  0  0  1.482117  0  5.28393  0  0  0.361472  1.394052  0  5.349013  0
H  H6  1  0.13736523  0.39919592  0.24676462  1  0  0.278238  0  0.881881  0  0  0.263635  0  0.939286  0  0  0.271566  0  0.933616  0  0  0.31686  0.257455  0  0.943659  0
H  H7  1  0.86263441  0.60080228  0.75323597  1  0  0.278178  0  0.88193  0  0  0.26364  0  0.939241  0  0  0.271567  0  0.933578  0  0  0.316841  0.257464  0  0.94361  0
H  H8  1  0.46033279  0.34877661  0.07943332  1  0  0.138174  0  0.905453  0  0  0.155782  0  0.95376  0  0  0.157979  0  0.952918  0  0  0.130156  0.154068  0  0.954542  0
H  H9  1  0.53966522  0.65122592  0.92056488  1  0  0.138245  0  0.905564  0  0  0.155864  0  0.953862  0  0  0.158059  0  0.953023  0  0  0.130203  0.15415  0  0.954652  0
H  H10  1  0.27691185  0.43953704  0.03516085  1  0  0.140294  0  0.921112  0  0  0.151607  0  0.979633  0  0  0.154093  0  0.97826  0  0  0.127623  0.149705  0  0.980669  0
H  H11  1  0.72308444  0.56046127  0.96483897  1  0  0.140262  0  0.921151  0  0  0.151576  0  0.979689  0  0  0.154063  0  0.978315  0  0  0.127619  0.149677  0  0.980723  0
H  H12  1  0.17802335  0.61616398  0.13688234  1  0  0.090486  0  0.920069  0  0  0.107009  0  0.976443  0  0  0.108626  0  0.975396  0  0  0.117011  0.105818  0  0.977173  0
H  H13  1  0.82196725  0.38383760  0.86311736  1  0  0.090539  0  0.920081  0  0  0.107081  0  0.976448  0  0  0.108681  0  0.975392  0  0  0.117036  0.10589  0  0.977177  0
H  H14  1  0.35919098  0.55189382  0.18374691  1  0  0.085022  0  0.923622  0  0  0.099402  0  0.985711  0  0  0.101136  0  0.984597  0  0  0.1126  0.097397  0  0.987514  0
H  H15  1  0.64080246  0.44811203  0.81624915  1  0  0.085066  0  0.923797  0  0  0.099457  0  0.985866  0  0  0.101175  0  0.984747  0  0  0.112639  0.097458  0  0.987677  0
H  H16  1  0.13185154  0.70825018  0.32177992  1  0  0.081011  0  0.953202  0  0  0.099796  0  1.012206  0  0  0.10151  0  1.010989  0  0  0.097  0.098513  0  1.013132  0
H  H17  1  0.86813713  0.29175357  0.67821889  1  0  0.080993  0  0.953266  0  0  0.099775  0  1.012254  0  0  0.101485  0  1.011047  0  0  0.096972  0.098495  0  1.013179  0
H  H18  1  0.02071656  0.60246396  0.35008793  1  0  0.084322  0  0.956399  0  0  0.101149  0  1.020574  0  0  0.102582  0  1.020452  0  0  0.09729  0.100113  0  1.020576  0
H  H19  1  0.97928177  0.39752889  0.64991615  1  0  0.084333  0  0.95634  0  0  0.10118  0  1.020497  0  0  0.102616  0  1.020368  0  0  0.097286  0.100148  0  1.020496  0
H  H20  1  0.14219628  0.53111089  0.52399775  1  0  0.072057  0  0.964522  0  0  0.086743  0  1.032627  0  0  0.087699  0  1.032911  0  0  0.089903  0.085951  0  1.032509  0
H  H21  1  0.85781738  0.46889137  0.47599865  1  0  0.071991  0  0.964547  0  0  0.086655  0  1.032684  0  0  0.087617  0  1.032964  0  0  0.089834  0.08587  0  1.032558  0
H  H22  1  0.33389850  0.50426266  0.42295505  1  0  0.077088  0  0.929556  0  0  0.098311  0  0.984488  0  0  0.099442  0  0.984445  0  0  0.093142  0.097253  0  0.984776  0
H  H23  1  0.66610866  0.49574540  0.57703070  1  0  0.077133  0  0.929536  0  0  0.098348  0  0.984464  0  0  0.099451  0  0.984457  0  0  0.0932  0.097289  0  0.984762  0
H  H24  1  0.12305638  0.33191114  0.47185880  1  0  0.072373  0  0.939501  0  0  0.092926  0  0.997273  0  0  0.093274  0  0.998341  0  0  0.095553  0.092568  0  0.996677  0
H  H25  1  0.87695402  0.66808778  0.52814445  1  0  0.072271  0  0.939508  0  0  0.092818  0  0.997294  0  0  0.093159  0  0.998359  0  0  0.095474  0.092457  0  0.996704  0
H  H26  1  0.30131649  0.26986476  0.51610798  1  0  0.095391  0  0.96033  0  0  0.111691  0  1.021446  0  0  0.112424  0  1.02297  0  0  0.104153  0.110738  0  1.021422  0
H  H27  1  0.69869675  0.73013860  0.48388740  1  0  0.095401  0  0.960194  0  0  0.111676  0  1.021369  0  0  0.112402  0  1.022886  0  0  0.104165  0.110726  0  1.021348  0
H  H28  1  0.45381957  0.30545144  0.29608338  1  0  0.094568  0  0.925575  0  0  0.107274  0  0.989547  0  0  0.108911  0  0.988829  0  0  0.114528  0.105989  0  0.990198  0
H  H29  1  0.54618292  0.69455121  0.70390933  1  0  0.094594  0  0.925568  0  0  0.107297  0  0.989529  0  0  0.108938  0  0.98881  0  0  0.114544  0.106005  0  0.990206  0
H  H30  1  0.34551463  0.19200508  0.32672704  1  0  0.094078  0  0.924325  0  0  0.109111  0  0.982828  0  0  0.110821  0  0.981728  0  0  0.121643  0.107864  0  0.983647  0
H  H31  1  0.65448521  0.80799842  0.67327206  1  0  0.094081  0  0.924322  0  0  0.109125  0  0.982801  0  0  0.110836  0  0.981704  0  0  0.121652  0.107883  0  0.983621  0
H  H32  1  0.33372303  0.76736682  0.45151307  1  0  0.445911  0  0.833279  0  0  0.421198  0  0.887361  0  0  0.431172  0  0.872907  0  0  0.317173  0.414376  0  0.897377  0
H  H33  1  0.66627967  0.23262930  0.54848555  1  0  0.445896  0  0.833285  0  0  0.421195  0  0.887365  0  0  0.431169  0  0.872911  0  0  0.317154  0.41437  0  0.897383  0
H  H34  1  0.40691147  0.85090103  0.48404431  1  0  0.460956  0  0.812392  0  0  0.430892  0  0.875608  0  0  0.442628  0  0.858258  0  0  0.314404  0.422808  0  0.887678  0
H  H35  1  0.59308898  0.14909497  0.51595832  1  0  0.461005  0  0.812276  0  0  0.430937  0  0.875543  0  0  0.442672  0  0.858193  0  0  0.314408  0.422844  0  0.887623  0
H  H36  1  0.26311172  0.96492679  0.19469494  1  0  0.430887  0  0.873449  0  0  0.400135  0  0.937503  0  0  0.410729  0  0.922069  0  0  0.310869  0.392575  0  0.948929  0
H  H37  1  0.73688914  0.03506828  0.80530447  1  0  0.430818  0  0.873546  0  0  0.400071  0  0.93759  0  0  0.410665  0  0.922156  0  0  0.310839  0.392506  0  0.949029  0
H  H38  1  0.28847294  0.80269743  0.23478308  1  0  0.439538  0  0.821822  0  0  0.41686  0  0.883985  0  0  0.425834  0  0.87319  0  0  0.322882  0.410794  0  0.891204  0
H  H39  1  0.71153016  0.19729765  0.76521486  1  0  0.439557  0  0.821795  0  0  0.416861  0  0.883993  0  0  0.425837  0  0.873187  0  0  0.322857  0.410794  0  0.891217  0
H  H40  1  0.00703753  0.20611469  0.99240618  1  0  0.448604  0  0.823609  0  0  0.420615  0  0.891096  0  0  0.432012  0  0.874038  0  0  0.31141  0.412653  0  0.903005  0
H  H41  1  0.99295785  0.79388893  0.00759247  1  0  0.44861  0  0.823549  0  0  0.420617  0  0.891081  0  0  0.432016  0  0.87402  0  0  0.31143  0.412661  0  0.902987  0
H  H42  1  0.09325800  0.29082552  0.00126532  1  0  0.433289  0  0.859972  0  0  0.406831  0  0.91938  0  0  0.417009  0  0.904644  0  0  0.306785  0.399583  0  0.929886  0
H  H43  1  0.90674276  0.70917274  0.99873326  1  0  0.43335  0  0.859911  0  0  0.40688  0  0.91932  0  0  0.417058  0  0.904583  0  0  0.306826  0.399632  0  0.929828  0
C  C44  1  0.33625657  0.35556435  0.10386466  1  0  -0.333904  0  3.510448  0  0  -0.378376  0  3.76686  0  0  -0.382038  0  3.77052  0  0  -0.062371  -0.375386  0  3.7635  0
C  C45  1  0.66374013  0.64443289  0.89613534  1  0  -0.33392  0  3.510449  0  0  -0.378465  0  3.766987  0  0  -0.382134  0  3.770654  0  0  -0.062392  -0.375474  0  3.763632  0
C  C46  1  0.23767319  0.55091014  0.21098929  1  0  0.000719  0  3.519418  0  0  -0.05733  0  3.777988  0  0  -0.053899  0  3.787773  0  0  -0.059382  -0.05932  0  3.771339  0
C  C47  1  0.76232006  0.44909038  0.78900911  1  0  0.000581  0  3.51972  0  0  -0.057521  0  3.778329  0  0  -0.054015  0  3.788012  0  0  -0.05944  -0.059525  0  3.771699  0
C  C48  1  0.14296615  0.59800469  0.33179452  1  0  -0.134879  0  3.671874  0  0  -0.178136  0  3.937308  0  0  -0.179358  0  3.949651  0  0  -0.166517  -0.177039  0  3.928371  0
C  C49  1  0.85702892  0.40199684  0.66820394  1  0  -0.134845  0  3.671972  0  0  -0.178072  0  3.937355  0  0  -0.179314  0  3.949676  0  0  -0.166426  -0.176983  0  3.928429  0
C  C50  1  0.21732350  0.49776808  0.43750542  1  0  -0.114047  0  3.681202  0  0  -0.157353  0  3.94997  0  0  -0.158216  0  3.963626  0  0  -0.172322  -0.156599  0  3.940537  0
C  C51  1  0.78268426  0.50223218  0.56249149  1  0  -0.114053  0  3.681294  0  0  -0.157332  0  3.950011  0  0  -0.15819  0  3.963659  0  0  -0.172339  -0.156577  0  3.940584  0
C  C52  1  0.23918308  0.34429685  0.44561165  1  0  -0.131704  0  3.670176  0  0  -0.172755  0  3.92955  0  0  -0.173962  0  3.942983  0  0  -0.164058  -0.171714  0  3.920206  0
C  C53  1  0.76082692  0.65570330  0.55438719  1  0  -0.131529  0  3.670093  0  0  -0.172575  0  3.929492  0  0  -0.173745  0  3.942883  0  0  -0.163959  -0.171534  0  3.920155  0
C  C54  1  0.33431144  0.29981528  0.32396131  1  0  -0.0008  0  3.504794  0  0  -0.057927  0  3.758728  0  0  -0.054779  0  3.768694  0  0  -0.058093  -0.0598  0  3.751495  0
C  C55  1  0.66569105  0.70018729  0.67603311  1  0  -0.000931  0  3.504801  0  0  -0.05806  0  3.758755  0  0  -0.054916  0  3.768694  0  0  -0.058126  -0.059919  0  3.751534  0
C  C56  1  0.70668803  0.01052416  0.30798600  1  0  0.56808  0  3.916465  0  0  0.523829  0  4.215203  0  0  0.553957  0  4.209541  0  0  0.220015  0.503279  0  4.221118  0
C  C57  1  0.29330806  0.98946887  0.69201446  1  0  0.568089  0  3.916737  0  0  0.52386  0  4.215435  0  0  0.554001  0  4.209774  0  0  0.220065  0.503299  0  4.221392  0
C  C58  1  0.83016799  0.98252620  0.18399093  1  0  0.575503  0  3.915115  0  0  0.532682  0  4.209433  0  0  0.562739  0  4.203402  0  0  0.221608  0.511989  0  4.215705  0
C  C59  1  0.16982974  0.01746258  0.81601022  1  0  0.5755  0  3.915331  0  0  0.532708  0  4.209582  0  0  0.562731  0  4.203608  0  0  0.221572  0.512016  0  4.215863  0
C  C60  1  0.82164848  0.51787898  0.25435930  1  0  0.557833  0  3.925161  0  0  0.514898  0  4.221958  0  0  0.544645  0  4.21616  0  0  0.218912  0.494702  0  4.227927  0
C  C61  1  0.17834820  0.48212965  0.74564434  1  0  0.557651  0  3.925485  0  0  0.514715  0  4.222283  0  0  0.544458  0  4.216491  0  0  0.218784  0.494516  0  4.228255  0
C  C62  1  0.67105631  0.50103347  0.25090029  1  0  0.562145  0  3.950446  0  0  0.520478  0  4.247745  0  0  0.550507  0  4.24143  0  0  0.214515  0.500052  0  4.253665  0
C  C63  1  0.32893662  0.49897646  0.74909901  1  0  0.562014  0  3.950251  0  0  0.520349  0  4.247551  0  0  0.55038  0  4.241232  0  0  0.214443  0.499924  0  4.253482  0
C  C64  1  0.04478592  0.93341161  0.47110606  1  0  0.572087  0  3.909564  0  0  0.52944  0  4.203573  0  0  0.560318  0  4.191965  0  0  0.222531  0.508769  0  4.210099  0
C  C65  1  0.95522439  0.06657862  0.52890460  1  0  0.572028  0  3.909747  0  0  0.529394  0  4.203744  0  0  0.560267  0  4.192141  0  0  0.222518  0.508732  0  4.210264  0
N  N66  1  0.25368247  0.39971169  0.22382213  1  0  -0.059983  0  3.384954  0  0  0.022456  0  3.596929  0  0  0.010546  0  3.616024  0  0  -0.345689  0.030962  0  3.583732  0
N  N67  1  0.74631605  0.60028645  0.77618047  1  0  -0.059865  0  3.384845  0  0  0.022554  0  3.596851  0  0  0.010626  0  3.61594  0  0  -0.345694  0.031066  0  3.583655  0
O  O68  1  0.19046535  0.15409331  0.19874467  1  0  -0.991453  0  2.013947  0  0  -0.910564  0  2.282132  0  0  -0.936528  0  2.261735  0  0  -0.479575  -0.891746  0  2.2955  0
O  O69  1  0.80953266  0.84590905  0.80125777  1  0  -0.991426  0  2.013908  0  0  -0.910559  0  2.282111  0  0  -0.936517  0  2.261704  0  0  -0.479567  -0.891732  0  2.295503  0
O  O70  1  0.48932344  0.06862753  0.12155656  1  0  -0.94929  0  1.970879  0  0  -0.88075  0  2.246501  0  0  -0.920565  0  2.223781  0  0  -0.469022  -0.862024  0  2.258779  0
O  O71  1  0.51066999  0.93137816  0.87844374  1  0  -0.949338  0  1.970874  0  0  -0.8808  0  2.246498  0  0  -0.920615  0  2.223775  0  0  -0.469091  -0.862071  0  2.258781  0
O  O72  1  0.31008448  0.21873789  0.96999674  1  0  -0.973799  0  2.031763  0  0  -0.892041  0  2.297531  0  0  -0.932308  0  2.274304  0  0  -0.471783  -0.872409  0  2.309415  0
O  O73  1  0.68991211  0.78126246  0.03000412  1  0  -0.973832  0  2.031743  0  0  -0.89208  0  2.297527  0  0  -0.93235  0  2.274298  0  0  -0.471768  -0.872442  0  2.30942  0
O  O74  1  0.60559684  0.94991908  0.34769637  1  0  -0.658555  0  2.066665  0  0  -0.612048  0  2.318165  0  0  -0.645708  0  2.306502  0  0  -0.370267  -0.596376  0  2.325023  0
O  O75  1  0.39440330  0.05008647  0.65230377  1  0  -0.65863  0  2.066327  0  0  -0.612158  0  2.317833  0  0  -0.645824  0  2.306165  0  0  -0.370323  -0.596472  0  2.324703  0
O  O76  1  0.71785744  0.09188625  0.35910770  1  0  -0.671503  0  2.066126  0  0  -0.617022  0  2.30533  0  0  -0.641154  0  2.29591  0  0  -0.353659  -0.599506  0  2.310737  0
O  O77  1  0.28214240  0.90811719  0.64089310  1  0  -0.671413  0  2.066675  0  0  -0.616951  0  2.305862  0  0  -0.641081  0  2.296437  0  0  -0.353629  -0.599428  0  2.311293  0
O  O78  1  0.82016145  0.90096944  0.13369649  1  0  -0.629627  0  2.075082  0  0  -0.580209  0  2.316411  0  0  -0.612686  0  2.304843  0  0  -0.341316  -0.564084  0  2.322958  0
O  O79  1  0.17984062  0.09903387  0.86630623  1  0  -0.629699  0  2.074742  0  0  -0.580287  0  2.316033  0  0  -0.612754  0  2.304482  0  0  -0.341351  -0.564148  0  2.322567  0
O  O80  1  0.93135637  0.04387819  0.14417400  1  0  -0.66858  0  2.053781  0  0  -0.617834  0  2.297158  0  0  -0.640367  0  2.285008  0  0  -0.396282  -0.601904  0  2.305579  0
O  O81  1  0.06865119  0.95611655  0.85583034  1  0  -0.668489  0  2.054241  0  0  -0.617759  0  2.297601  0  0  -0.640274  0  2.285464  0  0  -0.396193  -0.601825  0  2.306037  0
O  O82  1  0.80825536  0.63743630  0.26288744  1  0  -0.645918  0  2.077553  0  0  -0.602555  0  2.331035  0  0  -0.63647  0  2.321929  0  0  -0.35928  -0.586763  0  2.335762  0
O  O83  1  0.19174520  0.36255652  0.73711602  1  0  -0.645844  0  2.077323  0  0  -0.602505  0  2.330862  0  0  -0.636419  0  2.321755  0  0  -0.359234  -0.586707  0  2.33558  0
O  O84  1  0.94803665  0.40784746  0.24840859  1  0  -0.65628  0  2.084019  0  0  -0.604649  0  2.328924  0  0  -0.627889  0  2.319841  0  0  -0.360547  -0.58713  0  2.333691  0
O  O85  1  0.05196401  0.59214211  0.75159739  1  0  -0.656116  0  2.084426  0  0  -0.604505  0  2.3293  0  0  -0.62774  0  2.320228  0  0  -0.360463  -0.586983  0  2.334079  0
O  O86  1  0.54748377  0.61084328  0.25239694  1  0  -0.638737  0  2.038387  0  0  -0.591626  0  2.279065  0  0  -0.624525  0  2.270085  0  0  -0.34724  -0.574538  0  2.283797  0
O  O87  1  0.45252126  0.38914947  0.74760613  1  0  -0.638691  0  2.037755  0  0  -0.591588  0  2.278429  0  0  -0.624488  0  2.26945  0  0  -0.347205  -0.574488  0  2.283153  0
O  O88  1  0.68616528  0.37774456  0.24686514  1  0  -0.679788  0  2.024379  0  0  -0.635509  0  2.272895  0  0  -0.65797  0  2.262706  0  0  -0.38949  -0.61909  0  2.279415  0
O  O89  1  0.31383773  0.62225397  0.75312519  1  0  -0.67971  0  2.024779  0  0  -0.635431  0  2.273275  0  0  -0.657889  0  2.263089  0  0  -0.389436  -0.619006  0  2.279816  0
O  O90  1  0.04945206  0.95149679  0.36015905  1  0  -0.656606  0  2.109167  0  0  -0.607372  0  2.35356  0  0  -0.631372  0  2.346034  0  0  -0.351611  -0.59027  0  2.358231  0
O  O91  1  0.95054748  0.04850466  0.63983901  1  0  -0.656496  0  2.10961  0  0  -0.607263  0  2.353991  0  0  -0.631263  0  2.346477  0  0  -0.351576  -0.590173  0  2.358686  0
O  O92  1  0.10760223  0.81612016  0.54028915  1  0  -0.681591  0  2.039277  0  0  -0.631994  0  2.28381  0  0  -0.65532  0  2.273841  0  0  -0.373244  -0.615379  0  2.28981  0
O  O93  1  0.89240441  0.18387995  0.45971231  1  0  -0.68162  0  2.038925  0  0  -0.632032  0  2.283478  0  0  -0.655358  0  2.273509  0  0  -0.373257  -0.615415  0  2.289456  0
O  O94  1  0.42576111  0.79774036  0.42291432  1  0  -0.915354  0  1.853964  0  0  -0.869044  0  2.047591  0  0  -0.898199  0  2.007732  0  0  -0.630612  -0.856497  0  2.07048  0
O  O95  1  0.57424077  0.20225781  0.57708565  1  0  -0.91539  0  1.85387  0  0  -0.869107  0  2.047529  0  0  -0.89826  0  2.007676  0  0  -0.63064  -0.856565  0  2.070423  0
O  O96  1  0.34191106  0.86960298  0.18333817  1  0  -0.874142  0  1.895077  0  0  -0.828315  0  2.091526  0  0  -0.855293  0  2.056525  0  0  -0.631007  -0.816749  0  2.111415  0
O  O97  1  0.65808970  0.13039527  0.81666041  1  0  -0.874113  0  1.89514  0  0  -0.828265  0  2.0916  0  0  -0.855241  0  2.056594  0  0  -0.630961  -0.816691  0  2.111493  0
O  O98  1  0.98526971  0.28524546  0.02948344  1  0  -0.889197  0  1.81787  0  0  -0.84665  0  2.007011  0  0  -0.864803  0  1.975815  0  0  -0.629433  -0.833244  0  2.028353  0
O  O99  1  0.01472841  0.71475382  0.97051729  1  0  -0.889262  0  1.817772  0  0  -0.846701  0  2.00695  0  0  -0.864856  0  1.975756  0  0  -0.629473  -0.833285  0  2.028308  0
