# generated using pymatgen
data_ZnH12C16(N5O2)2
_symmetry_space_group_name_H-M   'P 1'
_cell_length_a   8.57816618
_cell_length_b   9.77349684
_cell_length_c   12.03531374
_cell_angle_alpha   111.88737328
_cell_angle_beta   110.87762465
_cell_angle_gamma   90.00096295
_symmetry_Int_Tables_number   1
_chemical_formula_structural   ZnH12C16(N5O2)2
_chemical_formula_sum   'Zn2 H24 C32 N20 O8'
_cell_volume   864.48540776
_cell_formula_units_Z   2
loop_
 _symmetry_equiv_pos_site_id
 _symmetry_equiv_pos_as_xyz
  1  'x, y, z'
loop_
 _atom_site_type_symbol
 _atom_site_label
 _atom_site_symmetry_multiplicity
 _atom_site_fract_x
 _atom_site_fract_y
 _atom_site_fract_z
 _atom_site_occupancy
 _atom_site_hle17_bader_spin_density
 _atom_site_hle17_ddec_charge
 _atom_site_hle17_ddec_spin_density
 _atom_site_hle17_ddec_sum_bond_order
 _atom_site_hle17_magmom
 _atom_site_hse06_10hf_bader_spin_density
 _atom_site_hse06_10hf_ddec_charge
 _atom_site_hse06_10hf_ddec_spin_density
 _atom_site_hse06_10hf_ddec_sum_bond_order
 _atom_site_hse06_10hf_magmom
 _atom_site_hse06_bader_spin_density
 _atom_site_hse06_ddec_charge
 _atom_site_hse06_ddec_spin_density
 _atom_site_hse06_ddec_sum_bond_order
 _atom_site_hse06_magmom
 _atom_site_pbe_bader_spin_density
 _atom_site_pbe_cm5_charge
 _atom_site_pbe_ddec_charge
 _atom_site_pbe_ddec_spin_density
 _atom_site_pbe_ddec_sum_bond_order
 _atom_site_pbe_magmom
Zn  Zn0  1  0.45332533  0.75003255  0.00001412  1  0  1.08211  0  1.802074  0  0  0.906715  0  2.248016  0  0  0.954466  0  2.193979  0  0  0.69217  0.87324  0  2.285006  0
Zn  Zn1  1  0.54667562  0.24996607  0.99998607  1  0  1.082084  0  1.802138  0  0  0.906725  0  2.248085  0  0  0.954476  0  2.194046  0  0  0.692152  0.873249  0  2.285074  0
H  H2  1  0.29181988  0.26566580  0.16002565  1  0  0.132417  0  0.947531  0  0  0.137819  0  1.019379  0  0  0.140538  0  1.01734  0  0  0.124787  0.135913  0  1.020861  0
H  H3  1  0.13202419  0.23423936  0.83998317  1  0  0.132543  0  0.94847  0  0  0.137647  0  1.020666  0  0  0.140408  0  1.018653  0  0  0.125051  0.135692  0  1.022098  0
H  H4  1  0.70818252  0.73433394  0.83997525  1  0  0.132422  0  0.947557  0  0  0.137818  0  1.019404  0  0  0.140531  0  1.017364  0  0  0.124809  0.135918  0  1.020888  0
H  H5  1  0.86797484  0.76576261  0.16001837  1  0  0.132511  0  0.94847  0  0  0.137608  0  1.020694  0  0  0.140376  0  1.018659  0  0  0.125036  0.135653  0  1.022127  0
H  H6  1  0.09124837  0.15481878  0.05060493  1  0  0.136335  0  0.917719  0  0  0.142748  0  0.986963  0  0  0.145421  0  0.984741  0  0  0.130528  0.140842  0  0.988607  0
H  H7  1  0.04088799  0.34510108  0.94943015  1  0  0.135769  0  0.917892  0  0  0.141998  0  0.987379  0  0  0.144748  0  0.985118  0  0  0.130352  0.139999  0  0.989047  0
H  H8  1  0.90875134  0.84517983  0.94939328  1  0  0.136308  0  0.917704  0  0  0.142721  0  0.98695  0  0  0.145391  0  0.984722  0  0  0.130513  0.140823  0  0.988598  0
H  H9  1  0.95911229  0.65490089  0.05057170  1  0  0.135742  0  0.917922  0  0  0.141954  0  0.987428  0  0  0.144703  0  0.985168  0  0  0.130358  0.139957  0  0.989095  0
H  H10  1  0.55423593  0.25890929  0.57229394  1  0  0.10971  0  0.957567  0  0  0.117941  0  1.021021  0  0  0.120741  0  1.02111  0  0  0.107737  0.116013  0  1.021027  0
H  H11  1  0.98191116  0.24084298  0.42758218  1  0  0.109806  0  0.956717  0  0  0.118017  0  1.020434  0  0  0.120874  0  1.020345  0  0  0.10768  0.116068  0  1.020503  0
H  H12  1  0.44576417  0.74109156  0.42770670  1  0  0.10975  0  0.957503  0  0  0.117972  0  1.020963  0  0  0.120772  0  1.021053  0  0  0.10776  0.116045  0  1.020969  0
H  H13  1  0.01808998  0.75915676  0.57241839  1  0  0.109776  0  0.956692  0  0  0.117988  0  1.020414  0  0  0.120846  0  1.02032  0  0  0.107674  0.116039  0  1.020483  0
H  H14  1  0.65276746  0.31718687  0.80946440  1  0  0.082041  0  0.980157  0  0  0.084421  0  1.053284  0  0  0.086822  0  1.051247  0  0  0.115587  0.082758  0  1.05461  0
H  H15  1  0.84316247  0.18281939  0.19046646  1  0  0.081817  0  0.979965  0  0  0.084883  0  1.052464  0  0  0.087247  0  1.050459  0  0  0.115485  0.083093  0  1.053956  0
H  H16  1  0.34723263  0.68281398  0.19053624  1  0  0.082021  0  0.980167  0  0  0.084402  0  1.053291  0  0  0.086802  0  1.051253  0  0  0.115587  0.082739  0  1.054618  0
H  H17  1  0.15683743  0.81718035  0.80953380  1  0  0.081863  0  0.979916  0  0  0.084887  0  1.052453  0  0  0.087277  0  1.050423  0  0  0.115493  0.083097  0  1.053946  0
H  H18  1  0.24951182  0.03393133  0.75350560  1  0  0.08553  0  0.976447  0  0  0.089619  0  1.048369  0  0  0.092155  0  1.046055  0  0  0.115037  0.087494  0  1.050664  0
H  H19  1  0.49606587  0.46623095  0.24669065  1  0  0.085704  0  0.97552  0  0  0.090111  0  1.047096  0  0  0.092718  0  1.044705  0  0  0.114988  0.087988  0  1.049396  0
H  H20  1  0.75048932  0.96606840  0.24649497  1  0  0.085539  0  0.976423  0  0  0.089594  0  1.048393  0  0  0.092131  0  1.046079  0  0  0.11503  0.087469  0  1.050688  0
H  H21  1  0.50393259  0.53376767  0.75330890  1  0  0.085702  0  0.975532  0  0  0.090107  0  1.04711  0  0  0.092714  0  1.044718  0  0  0.114988  0.087984  0  1.049409  0
H  H22  1  0.13150047  0.96339901  0.51338153  1  0  0.110894  0  0.962773  0  0  0.116517  0  1.033827  0  0  0.119871  0  1.03242  0  0  0.107648  0.114081  0  1.035044  0
H  H23  1  0.61830478  0.53655620  0.48677819  1  0  0.111031  0  0.963177  0  0  0.116853  0  1.033848  0  0  0.120161  0  1.032489  0  0  0.107691  0.11444  0  1.035028  0
H  H24  1  0.86849981  0.03660296  0.48662032  1  0  0.110889  0  0.962788  0  0  0.116506  0  1.033849  0  0  0.119862  0  1.03244  0  0  0.107642  0.11407  0  1.035066  0
H  H25  1  0.38169367  0.46344242  0.51322136  1  0  0.110998  0  0.963193  0  0  0.116861  0  1.033823  0  0  0.120169  0  1.032465  0  0  0.107698  0.114448  0  1.035003  0
C  C26  1  0.29844118  0.03901072  0.03145359  1  0  0.706302  0  3.857664  0  0  0.651924  0  4.167523  0  0  0.685853  0  4.159117  0  0  0.218122  0.628852  0  4.172457  0
C  C27  1  0.26710619  0.46090203  0.96852143  1  0  0.707269  0  3.85812  0  0  0.652627  0  4.168103  0  0  0.686633  0  4.159622  0  0  0.218125  0.629487  0  4.173103  0
C  C28  1  0.70155795  0.96098456  0.96854679  1  0  0.706305  0  3.857572  0  0  0.65184  0  4.167561  0  0  0.685762  0  4.159155  0  0  0.218091  0.628778  0  4.172493  0
C  C29  1  0.73289257  0.53910550  0.03147756  1  0  0.707157  0  3.85853  0  0  0.652653  0  4.168282  0  0  0.68666  0  4.1598  0  0  0.21819  0.62951  0  4.173285  0
C  C30  1  0.21940116  0.15381275  0.11477976  1  0  -0.228446  0  3.59225  0  0  -0.286545  0  3.845685  0  0  -0.288196  0  3.849921  0  0  -0.049225  -0.285475  0  3.843077  0
C  C31  1  0.10487512  0.34607274  0.88522694  1  0  -0.227473  0  3.592851  0  0  -0.285083  0  3.845505  0  0  -0.286998  0  3.850027  0  0  -0.04879  -0.283657  0  3.842496  0
C  C32  1  0.78059941  0.84618364  0.88521966  1  0  -0.228386  0  3.592124  0  0  -0.286486  0  3.845645  0  0  -0.288107  0  3.849846  0  0  -0.049257  -0.285452  0  3.843081  0
C  C33  1  0.89512497  0.65392810  0.11477287  1  0  -0.227348  0  3.592885  0  0  -0.284979  0  3.845478  0  0  -0.286903  0  3.850028  0  0  -0.04878  -0.283555  0  3.84247  0
C  C34  1  0.25778235  0.08627253  0.38744244  1  0  0.235993  0  3.800375  0  0  0.217404  0  4.077586  0  0  0.224303  0  4.092387  0  0  0.216887  0.212716  0  4.067484  0
C  C35  1  0.87050551  0.41354294  0.61254446  1  0  0.237444  0  3.797764  0  0  0.218614  0  4.075222  0  0  0.225514  0  4.090009  0  0  0.217614  0.213944  0  4.065126  0
C  C36  1  0.74221649  0.91372832  0.61255788  1  0  0.235934  0  3.80042  0  0  0.217354  0  4.077618  0  0  0.224242  0  4.092439  0  0  0.216877  0.212666  0  4.067518  0
C  C37  1  0.12949439  0.58645680  0.38745579  1  0  0.237448  0  3.797792  0  0  0.2186  0  4.075258  0  0  0.2255  0  4.090045  0  0  0.21761  0.213932  0  4.065162  0
C  C38  1  0.33148271  0.10925914  0.52375185  1  0  0.059658  0  3.796488  0  0  0.074497  0  4.025667  0  0  0.077761  0  4.047446  0  0  0.013967  0.072308  0  4.010719  0
C  C39  1  0.80783671  0.39059768  0.47624344  1  0  0.059632  0  3.79483  0  0  0.074549  0  4.024065  0  0  0.077813  0  4.045794  0  0  0.014164  0.072362  0  4.009187  0
C  C40  1  0.66851633  0.89074283  0.47624885  1  0  0.059727  0  3.796537  0  0  0.074571  0  4.025692  0  0  0.077839  0  4.047474  0  0  0.014012  0.072381  0  4.01075  0
C  C41  1  0.19216300  0.60940094  0.52375560  1  0  0.059638  0  3.794943  0  0  0.07457  0  4.024164  0  0  0.077834  0  4.045891  0  0  0.014163  0.072382  0  4.009287  0
C  C42  1  0.48292308  0.20650314  0.60855103  1  0  -0.147371  0  3.700551  0  0  -0.167604  0  3.949481  0  0  -0.17556  0  3.971641  0  0  -0.082554  -0.162306  0  3.93483  0
C  C43  1  0.87442152  0.29337516  0.39140373  1  0  -0.147845  0  3.699549  0  0  -0.168196  0  3.948999  0  0  -0.176058  0  3.97108  0  0  -0.082987  -0.162943  0  3.934435  0
C  C44  1  0.51707596  0.79349882  0.39144884  1  0  -0.147455  0  3.700497  0  0  -0.167686  0  3.949435  0  0  -0.175641  0  3.971594  0  0  -0.082588  -0.162388  0  3.934786  0
C  C45  1  0.12557819  0.70662345  0.60859364  1  0  -0.147811  0  3.699573  0  0  -0.168166  0  3.949006  0  0  -0.176028  0  3.971092  0  0  -0.08299  -0.162913  0  3.934445  0
C  C46  1  0.53800905  0.23956475  0.74032882  1  0  0.137912  0  3.679898  0  0  0.106042  0  3.934798  0  0  0.113364  0  3.951826  0  0  0.046266  0.101295  0  3.923346  0
C  C47  1  0.79765839  0.26045619  0.25966402  1  0  0.13879  0  3.682314  0  0  0.106196  0  3.936955  0  0  0.113532  0  3.954116  0  0  0.046388  0.101507  0  3.925604  0
C  C48  1  0.46199104  0.76043610  0.25967098  1  0  0.137979  0  3.679837  0  0  0.106114  0  3.934725  0  0  0.113436  0  3.951753  0  0  0.046294  0.101367  0  3.923276  0
C  C49  1  0.20234151  0.73954355  0.74033707  1  0  0.13875  0  3.682268  0  0  0.106192  0  3.936915  0  0  0.113506  0  3.954061  0  0  0.046392  0.101502  0  3.925567  0
C  C50  1  0.31196083  0.08164041  0.70891727  1  0  0.132713  0  3.6899  0  0  0.101882  0  3.943665  0  0  0.108982  0  3.960958  0  0  0.048294  0.097151  0  3.932322  0
C  C51  1  0.60310019  0.41844472  0.29117829  1  0  0.13311  0  3.688516  0  0  0.10186  0  3.942312  0  0  0.108988  0  3.959597  0  0  0.048117  0.097058  0  3.931045  0
C  C52  1  0.68803907  0.91835933  0.29108215  1  0  0.132699  0  3.689843  0  0  0.101876  0  3.943627  0  0  0.108975  0  3.960923  0  0  0.048285  0.097146  0  3.932285  0
C  C53  1  0.39689971  0.58155501  0.70882197  1  0  0.133093  0  3.68856  0  0  0.101847  0  3.942365  0  0  0.108975  0  3.95965  0  0  0.048109  0.097046  0  3.931095  0
C  C54  1  0.24751010  0.04241537  0.57574696  1  0  -0.144426  0  3.688719  0  0  -0.167799  0  3.941222  0  0  -0.17505  0  3.961734  0  0  -0.08107  -0.162839  0  3.927322  0
C  C55  1  0.67188750  0.45754277  0.42435607  1  0  -0.145143  0  3.68747  0  0  -0.168409  0  3.939903  0  0  -0.175697  0  3.960473  0  0  -0.081209  -0.163414  0  3.92605  0
C  C56  1  0.75248855  0.95758437  0.42425381  1  0  -0.144434  0  3.688739  0  0  -0.167783  0  3.941192  0  0  -0.175034  0  3.961704  0  0  -0.081067  -0.162819  0  3.927289  0
C  C57  1  0.32811259  0.54245808  0.57564457  1  0  -0.14512  0  3.687467  0  0  -0.168426  0  3.939886  0  0  -0.175714  0  3.960453  0  0  -0.081209  -0.163431  0  3.926032  0
N  N58  1  0.32305831  0.15792497  0.33399784  1  0  -0.284934  0  2.789503  0  0  -0.275436  0  3.055873  0  0  -0.279641  0  3.067387  0  0  -0.187707  -0.272517  0  3.048162  0
N  N59  1  0.98925809  0.34189408  0.66599347  1  0  -0.285451  0  2.788733  0  0  -0.275483  0  3.054646  0  0  -0.279722  0  3.066173  0  0  -0.187738  -0.272629  0  3.047004  0
N  N60  1  0.67694054  0.84207588  0.66600248  1  0  -0.284938  0  2.789533  0  0  -0.275445  0  3.055912  0  0  -0.279647  0  3.067434  0  0  -0.187722  -0.272526  0  3.048198  0
N  N61  1  0.01074075  0.65810677  0.33400685  1  0  -0.285444  0  2.788765  0  0  -0.275468  0  3.054684  0  0  -0.279706  0  3.066213  0  0  -0.187734  -0.272613  0  3.047042  0
N  N62  1  0.20484236  0.11386159  0.21540091  1  0  0.263791  0  3.545505  0  0  0.310922  0  3.823201  0  0  0.308246  0  3.843024  0  0  0.003971  0.312402  0  3.810245  0
N  N63  1  0.98963003  0.38602899  0.78457480  1  0  0.263897  0  3.545658  0  0  0.310896  0  3.823318  0  0  0.308268  0  3.843152  0  0  0.003689  0.312312  0  3.810325  0
N  N64  1  0.79515754  0.88613814  0.78459768  1  0  0.263786  0  3.545525  0  0  0.310911  0  3.823225  0  0  0.308226  0  3.843046  0  0  0.003969  0.312401  0  3.810275  0
N  N65  1  0.01036987  0.61397075  0.21542546  1  0  0.263869  0  3.545637  0  0  0.310867  0  3.823295  0  0  0.308237  0  3.843129  0  0  0.003682  0.312283  0  3.810305  0
N  N66  1  0.07417505  0.01918766  0.19319073  1  0  -0.086937  0  2.850612  0  0  -0.076602  0  3.132606  0  0  -0.073578  0  3.141769  0  0  -0.059585  -0.07857  0  3.126703  0
N  N67  1  0.88117212  0.48065886  0.80679339  1  0  -0.087117  0  2.849689  0  0  -0.076119  0  3.130729  0  0  -0.073077  0  3.139845  0  0  -0.05916  -0.078161  0  3.124895  0
N  N68  1  0.92582485  0.98081207  0.80680952  1  0  -0.086979  0  2.8507  0  0  -0.076616  0  3.13266  0  0  -0.073594  0  3.14183  0  0  -0.059599  -0.078584  0  3.126756  0
N  N69  1  0.11882653  0.51934087  0.19320655  1  0  -0.087097  0  2.849692  0  0  -0.076117  0  3.130756  0  0  -0.073073  0  3.139871  0  0  -0.059157  -0.07816  0  3.124925  0
N  N70  1  0.10563194  0.00106755  0.30178850  1  0  -0.263488  0  2.931074  0  0  -0.24817  0  3.222859  0  0  -0.254946  0  3.233359  0  0  -0.192419  -0.243528  0  3.215742  0
N  N71  1  0.80400563  0.49877070  0.69815668  1  0  -0.265328  0  2.929596  0  0  -0.250548  0  3.222079  0  0  -0.257294  0  3.232478  0  0  -0.193865  -0.245909  0  3.214984  0
N  N72  1  0.89436671  0.99893219  0.69821144  1  0  -0.263449  0  2.931098  0  0  -0.24814  0  3.222861  0  0  -0.254914  0  3.233367  0  0  -0.192391  -0.243498  0  3.215745  0
N  N73  1  0.19599302  0.50122903  0.30184242  1  0  -0.265308  0  2.929602  0  0  -0.250521  0  3.222091  0  0  -0.257266  0  3.232489  0  0  -0.193832  -0.245879  0  3.214992  0
N  N74  1  0.45232489  0.18145636  0.79101949  1  0  -0.303394  0  3.220594  0  0  -0.227291  0  3.479905  0  0  -0.244639  0  3.495135  0  0  -0.311975  -0.215347  0  3.469324  0
N  N75  1  0.66131502  0.31860327  0.20902344  1  0  -0.304281  0  3.223041  0  0  -0.227798  0  3.482145  0  0  -0.245225  0  3.497502  0  0  -0.311532  -0.215867  0  3.471533  0
N  N76  1  0.54767769  0.81854450  0.20898179  1  0  -0.303417  0  3.220595  0  0  -0.227311  0  3.479909  0  0  -0.244661  0  3.49514  0  0  -0.311988  -0.215367  0  3.469329  0
N  N77  1  0.33868469  0.68139535  0.79097559  1  0  -0.304287  0  3.223111  0  0  -0.227811  0  3.482218  0  0  -0.245239  0  3.497582  0  0  -0.311538  -0.21588  0  3.471607  0
O  O78  1  0.29020750  0.91049033  0.03259295  1  0  -0.626727  0  2.059848  0  0  -0.568173  0  2.324363  0  0  -0.594786  0  2.312786  0  0  -0.314202  -0.549759  0  2.331642  0
O  O79  1  0.25761202  0.58949116  0.96753625  1  0  -0.626399  0  2.058194  0  0  -0.568384  0  2.323403  0  0  -0.594978  0  2.311762  0  0  -0.313914  -0.550019  0  2.330768  0
O  O80  1  0.70979528  0.08951164  0.96740871  1  0  -0.626723  0  2.059618  0  0  -0.568155  0  2.324189  0  0  -0.594768  0  2.312612  0  0  -0.314207  -0.549739  0  2.331464  0
O  O81  1  0.74238874  0.41050634  0.03246272  1  0  -0.626435  0  2.058193  0  0  -0.568487  0  2.32334  0  0  -0.595083  0  2.3117  0  0  -0.31398  -0.550121  0  2.330701  0
O  O82  1  0.35526934  0.08062861  0.96386968  1  0  -0.648086  0  2.094006  0  0  -0.5871  0  2.369624  0  0  -0.614487  0  2.357149  0  0  -0.315968  -0.567616  0  2.377531  0
O  O83  1  0.39154928  0.41926181  0.03603811  1  0  -0.649371  0  2.094973  0  0  -0.58799  0  2.370663  0  0  -0.615528  0  2.358425  0  0  -0.31647  -0.56849  0  2.378379  0
O  O84  1  0.64473412  0.91936999  0.03612616  1  0  -0.648069  0  2.094172  0  0  -0.586991  0  2.369765  0  0  -0.614376  0  2.357295  0  0  -0.315901  -0.56751  0  2.377667  0
O  O85  1  0.60845167  0.58073682  0.96396291  1  0  -0.649288  0  2.095289  0  0  -0.587921  0  2.370877  0  0  -0.615456  0  2.358639  0  0  -0.316452  -0.568422  0  2.378592  0
