# generated using pymatgen
data_ZnH10C15N4O3
_symmetry_space_group_name_H-M   'P 1'
_cell_length_a   7.85700153
_cell_length_b   11.23816056
_cell_length_c   15.12789169
_cell_angle_alpha   92.52662678
_cell_angle_beta   89.99979029
_cell_angle_gamma   90.00050397
_symmetry_Int_Tables_number   1
_chemical_formula_structural   ZnH10C15N4O3
_chemical_formula_sum   'Zn4 H40 C60 N16 O12'
_cell_volume   1334.46770720
_cell_formula_units_Z   4
loop_
 _symmetry_equiv_pos_site_id
 _symmetry_equiv_pos_as_xyz
  1  'x, y, z'
loop_
 _atom_site_type_symbol
 _atom_site_label
 _atom_site_symmetry_multiplicity
 _atom_site_fract_x
 _atom_site_fract_y
 _atom_site_fract_z
 _atom_site_occupancy
 _atom_site_hle17_bader_spin_density
 _atom_site_hle17_ddec_charge
 _atom_site_hle17_ddec_spin_density
 _atom_site_hle17_ddec_sum_bond_order
 _atom_site_hle17_magmom
 _atom_site_hse06_10hf_bader_spin_density
 _atom_site_hse06_10hf_ddec_charge
 _atom_site_hse06_10hf_ddec_spin_density
 _atom_site_hse06_10hf_ddec_sum_bond_order
 _atom_site_hse06_10hf_magmom
 _atom_site_hse06_bader_spin_density
 _atom_site_hse06_ddec_charge
 _atom_site_hse06_ddec_spin_density
 _atom_site_hse06_ddec_sum_bond_order
 _atom_site_hse06_magmom
 _atom_site_pbe_bader_spin_density
 _atom_site_pbe_cm5_charge
 _atom_site_pbe_ddec_charge
 _atom_site_pbe_ddec_spin_density
 _atom_site_pbe_ddec_sum_bond_order
 _atom_site_pbe_magmom
Zn  Zn0  1  0.78762849  0.38937944  0.74702448  1  0  1.038412  0  1.8529  0  0  0.851904  0  2.3349  0  0  0.897459  0  2.278928  0  0  0.708484  0.820109  0  2.373316  0
Zn  Zn1  1  0.28762684  0.11061885  0.75297586  1  0  1.038452  0  1.852782  0  0  0.851907  0  2.334729  0  0  0.897463  0  2.278759  0  0  0.708465  0.820112  0  2.373146  0
Zn  Zn2  1  0.21237907  0.61061994  0.25297485  1  0  1.03848  0  1.852834  0  0  0.851932  0  2.334807  0  0  0.897487  0  2.278835  0  0  0.708464  0.820139  0  2.373225  0
Zn  Zn3  1  0.71237563  0.88938231  0.24702355  1  0  1.038504  0  1.852705  0  0  0.851986  0  2.334686  0  0  0.897543  0  2.278716  0  0  0.708513  0.820194  0  2.373104  0
H  H4  1  0.67176132  0.23433941  0.42163095  1  0  0.118394  0  0.98229  0  0  0.128373  0  1.046726  0  0  0.130594  0  1.046711  0  0  0.120064  0.126748  0  1.046855  0
H  H5  1  0.17176155  0.26566042  0.07836938  1  0  0.118387  0  0.98229  0  0  0.128355  0  1.046732  0  0  0.130575  0  1.046719  0  0  0.12007  0.12673  0  1.046864  0
H  H6  1  0.32823606  0.76565996  0.57836904  1  0  0.118363  0  0.982341  0  0  0.128329  0  1.046778  0  0  0.130549  0  1.046764  0  0  0.120047  0.126699  0  1.046914  0
H  H7  1  0.82823837  0.73434079  0.92162805  1  0  0.118386  0  0.982273  0  0  0.128356  0  1.046718  0  0  0.130575  0  1.046705  0  0  0.120075  0.126731  0  1.046845  0
H  H8  1  0.36264021  0.32144294  0.39564504  1  0  0.108487  0  0.96348  0  0  0.117628  0  1.026758  0  0  0.120008  0  1.02547  0  0  0.121626  0.115817  0  1.027829  0
H  H9  1  0.86264025  0.17855453  0.10435348  1  0  0.108504  0  0.96351  0  0  0.117655  0  1.026759  0  0  0.120035  0  1.02547  0  0  0.121651  0.115845  0  1.027829  0
H  H10  1  0.63735208  0.67855456  0.60435883  1  0  0.108482  0  0.96347  0  0  0.117633  0  1.02676  0  0  0.120014  0  1.025469  0  0  0.12163  0.115822  0  1.027829  0
H  H11  1  0.13735967  0.82144763  0.89564134  1  0  0.108443  0  0.963491  0  0  0.117609  0  1.026747  0  0  0.11999  0  1.02546  0  0  0.121621  0.115797  0  1.027817  0
H  H12  1  0.11627181  0.42735274  0.46809075  1  0  0.103101  0  0.944602  0  0  0.117874  0  1.0006  0  0  0.120139  0  1.000603  0  0  0.106553  0.116232  0  1.000776  0
H  H13  1  0.61626979  0.07264134  0.03191273  1  0  0.10305  0  0.944669  0  0  0.117857  0  1.00062  0  0  0.120124  0  1.00062  0  0  0.106545  0.11619  0  1.000833  0
H  H14  1  0.88372556  0.57264290  0.53191700  1  0  0.103114  0  0.94455  0  0  0.117893  0  1.000541  0  0  0.120157  0  1.000546  0  0  0.106581  0.116245  0  1.000722  0
H  H15  1  0.38373141  0.92736258  0.96808284  1  0  0.103047  0  0.944645  0  0  0.117832  0  1.000632  0  0  0.120097  0  1.000637  0  0  0.10656  0.1162  0  1.000789  0
H  H16  1  0.13791099  0.49916426  0.62873456  1  0  0.101338  0  0.952914  0  0  0.112451  0  1.013314  0  0  0.115708  0  1.010568  0  0  0.103488  0.110037  0  1.015304  0
H  H17  1  0.63791586  0.00082684  0.87126773  1  0  0.101351  0  0.952883  0  0  0.112476  0  1.013271  0  0  0.115716  0  1.010552  0  0  0.103472  0.110059  0  1.015264  0
H  H18  1  0.86208130  0.50083053  0.37127117  1  0  0.101351  0  0.952962  0  0  0.112482  0  1.013344  0  0  0.115726  0  1.01061  0  0  0.103484  0.110067  0  1.015337  0
H  H19  1  0.36208279  0.99917710  0.12872717  1  0  0.101302  0  0.952889  0  0  0.112447  0  1.013275  0  0  0.115675  0  1.010563  0  0  0.103476  0.110031  0  1.015266  0
H  H20  1  0.41165491  0.47056605  0.70949956  1  0  0.119964  0  0.959356  0  0  0.131724  0  1.01725  0  0  0.135037  0  1.015235  0  0  0.112245  0.129317  0  1.018922  0
H  H21  1  0.91165688  0.02943031  0.79050177  1  0  0.119963  0  0.959343  0  0  0.131699  0  1.017262  0  0  0.13501  0  1.015249  0  0  0.112226  0.129293  0  1.018932  0
H  H22  1  0.58834120  0.52942705  0.29050214  1  0  0.120049  0  0.959318  0  0  0.131786  0  1.01723  0  0  0.135098  0  1.015218  0  0  0.112261  0.12938  0  1.018903  0
H  H23  1  0.08834686  0.97057354  0.20949710  1  0  0.120017  0  0.959391  0  0  0.131756  0  1.017302  0  0  0.135068  0  1.015289  0  0  0.112261  0.12935  0  1.018972  0
H  H24  1  0.93700806  0.71501356  0.75964963  1  0  0.013217  0  0.935008  0  0  0.025966  0  1.00353  0  0  0.026078  0  0.99861  0  0  0.102951  0.025745  0  1.007053  0
H  H25  1  0.43701374  0.78499414  0.74034557  1  0  0.013313  0  0.935117  0  0  0.026114  0  1.003586  0  0  0.026231  0  0.998658  0  0  0.102993  0.02589  0  1.007114  0
H  H26  1  0.06299059  0.28498675  0.24034842  1  0  0.01321  0  0.935049  0  0  0.025957  0  1.003579  0  0  0.02607  0  0.998658  0  0  0.102938  0.025737  0  1.007102  0
H  H27  1  0.56299509  0.21501331  0.25965213  1  0  0.01324  0  0.935012  0  0  0.025997  0  1.003529  0  0  0.026108  0  0.998609  0  0  0.102973  0.025776  0  1.007053  0
H  H28  1  0.38257405  0.00428031  0.55292035  1  0  0.114557  0  0.969273  0  0  0.124919  0  1.032155  0  0  0.12786  0  1.031229  0  0  0.107128  0.122841  0  1.03292  0
H  H29  1  0.88257560  0.49572660  0.94707953  1  0  0.114581  0  0.969198  0  0  0.12489  0  1.032122  0  0  0.127826  0  1.031199  0  0  0.107125  0.122809  0  1.032889  0
H  H30  1  0.61742715  0.99571992  0.44708100  1  0  0.114593  0  0.9692  0  0  0.124919  0  1.032126  0  0  0.127857  0  1.031205  0  0  0.107147  0.122841  0  1.032891  0
H  H31  1  0.11742687  0.50427993  0.05291946  1  0  0.1146  0  0.969236  0  0  0.124944  0  1.032126  0  0  0.127885  0  1.031207  0  0  0.107139  0.122865  0  1.032894  0
H  H32  1  0.91940278  0.20323620  0.39186574  1  0  0.094482  0  0.980434  0  0  0.103802  0  1.045832  0  0  0.106462  0  1.043674  0  0  0.118402  0.101833  0  1.047431  0
H  H33  1  0.41940700  0.29675973  0.10813789  1  0  0.094513  0  0.980557  0  0  0.103794  0  1.045982  0  0  0.106451  0  1.043828  0  0  0.118422  0.10185  0  1.047547  0
H  H34  1  0.08059333  0.79676136  0.60813550  1  0  0.094502  0  0.980411  0  0  0.103762  0  1.045887  0  0  0.106421  0  1.043731  0  0  0.118422  0.101826  0  1.047444  0
H  H35  1  0.58059547  0.70323518  0.89186256  1  0  0.094486  0  0.980435  0  0  0.103801  0  1.045835  0  0  0.106459  0  1.04368  0  0  0.118428  0.101838  0  1.047422  0
H  H36  1  0.36404180  0.97920542  0.38578638  1  0  0.104963  0  0.947604  0  0  0.117629  0  1.004007  0  0  0.121205  0  1.000838  0  0  0.105943  0.114999  0  1.006326  0
H  H37  1  0.86404745  0.52079413  0.11421491  1  0  0.104966  0  0.947668  0  0  0.117633  0  1.004078  0  0  0.121203  0  1.000917  0  0  0.10596  0.115002  0  1.0064  0
H  H38  1  0.63595940  0.02079481  0.61421497  1  0  0.10486  0  0.947637  0  0  0.117561  0  1.004023  0  0  0.121107  0  1.00089  0  0  0.105933  0.114929  0  1.006345  0
H  H39  1  0.13595120  0.47920344  0.88578566  1  0  0.104992  0  0.947578  0  0  0.117641  0  1.004006  0  0  0.121222  0  1.00083  0  0  0.105994  0.11501  0  1.006328  0
H  H40  1  0.13285293  0.08597996  0.30732333  1  0  0.108878  0  0.962116  0  0  0.122265  0  1.017056  0  0  0.12509  0  1.016086  0  0  0.109138  0.120249  0  1.01793  0
H  H41  1  0.63286418  0.41401599  0.19268087  1  0  0.108811  0  0.962129  0  0  0.122253  0  1.017024  0  0  0.125079  0  1.016053  0  0  0.10916  0.120245  0  1.017885  0
H  H42  1  0.86714572  0.91401847  0.69267926  1  0  0.108827  0  0.962084  0  0  0.122195  0  1.017055  0  0  0.125022  0  1.016083  0  0  0.109135  0.120174  0  1.017934  0
H  H43  1  0.36714084  0.58597885  0.80732223  1  0  0.10885  0  0.96209  0  0  0.122224  0  1.017048  0  0  0.12505  0  1.016077  0  0  0.109123  0.120212  0  1.017914  0
C  C44  1  0.92974978  0.23394986  0.57597134  1  0  -0.127811  0  3.747718  0  0  -0.138382  0  4.009653  0  0  -0.151138  0  4.037383  0  0  0.049875  -0.130056  0  3.991105  0
C  C45  1  0.42975393  0.26604839  0.92403003  1  0  -0.127752  0  3.747704  0  0  -0.138323  0  4.009638  0  0  -0.151081  0  4.037372  0  0  0.049863  -0.129998  0  3.991088  0
C  C46  1  0.07025142  0.76604948  0.42402997  1  0  -0.12769  0  3.747364  0  0  -0.138354  0  4.009367  0  0  -0.151115  0  4.037108  0  0  0.049878  -0.130027  0  3.990816  0
C  C47  1  0.57025108  0.73395275  0.07597070  1  0  -0.127827  0  3.747599  0  0  -0.138385  0  4.009577  0  0  -0.151142  0  4.037307  0  0  0.049859  -0.13006  0  3.991028  0
C  C48  1  0.65993242  0.27807423  0.48637147  1  0  -0.156628  0  3.622348  0  0  -0.202734  0  3.88734  0  0  -0.209527  0  3.910865  0  0  -0.015182  -0.198235  0  3.871606  0
C  C49  1  0.15993384  0.22192375  0.01362879  1  0  -0.156538  0  3.622435  0  0  -0.202655  0  3.887435  0  0  -0.20945  0  3.910963  0  0  -0.015191  -0.198156  0  3.871705  0
C  C50  1  0.34005987  0.72192597  0.51363120  1  0  -0.1565  0  3.622292  0  0  -0.202598  0  3.887273  0  0  -0.20939  0  3.910796  0  0  -0.015112  -0.198098  0  3.871539  0
C  C51  1  0.84006736  0.77807478  0.98636918  1  0  -0.1567  0  3.622226  0  0  -0.2028  0  3.887244  0  0  -0.20959  0  3.910768  0  0  -0.015233  -0.198299  0  3.871507  0
C  C52  1  0.01064306  0.22274372  0.65940019  1  0  0.460318  0  3.949209  0  0  0.419744  0  4.230013  0  0  0.44311  0  4.241733  0  0  0.191569  0.403972  0  4.221536  0
C  C53  1  0.51064775  0.27725737  0.84059883  1  0  0.460448  0  3.94922  0  0  0.419829  0  4.230056  0  0  0.443194  0  4.241776  0  0  0.191582  0.404059  0  4.221574  0
C  C54  1  0.98935432  0.77725930  0.34059599  1  0  0.460391  0  3.949256  0  0  0.41976  0  4.230112  0  0  0.443126  0  4.241828  0  0  0.191576  0.403987  0  4.221634  0
C  C55  1  0.48936108  0.72274553  0.15940264  1  0  0.460302  0  3.949525  0  0  0.419701  0  4.230353  0  0  0.443071  0  4.242071  0  0  0.191515  0.403929  0  4.221874  0
C  C56  1  0.76822035  0.28706958  0.55939495  1  0  0.188194  0  3.878468  0  0  0.175174  0  4.142222  0  0  0.185673  0  4.164912  0  0  0.089777  0.168248  0  4.126815  0
C  C57  1  0.26822373  0.21293129  0.94060421  1  0  0.188087  0  3.878709  0  0  0.175125  0  4.142384  0  0  0.185626  0  4.165075  0  0  0.089794  0.168198  0  4.126978  0
C  C58  1  0.23178212  0.71292716  0.44060293  1  0  0.188177  0  3.878626  0  0  0.175209  0  4.142337  0  0  0.18571  0  4.165022  0  0  0.089794  0.16828  0  4.126927  0
C  C59  1  0.73178128  0.78706809  0.05939512  1  0  0.188268  0  3.878394  0  0  0.175258  0  4.14215  0  0  0.185759  0  4.164834  0  0  0.089797  0.168331  0  4.126744  0
C  C60  1  0.53171582  0.38202614  0.59789609  1  0  0.336795  0  3.777173  0  0  0.309868  0  4.029113  0  0  0.325138  0  4.044641  0  0  0.215241  0.299956  0  4.018367  0
C  C61  1  0.03171575  0.11797329  0.90210348  1  0  0.336806  0  3.777564  0  0  0.309885  0  4.029478  0  0  0.325153  0  4.045016  0  0  0.215254  0.299974  0  4.018733  0
C  C62  1  0.46828156  0.61797232  0.40210518  1  0  0.336863  0  3.777352  0  0  0.309963  0  4.029235  0  0  0.325229  0  4.044769  0  0  0.215273  0.30004  0  4.018509  0
C  C63  1  0.96827908  0.88202699  0.09789589  1  0  0.33679  0  3.7772  0  0  0.309823  0  4.029202  0  0  0.325092  0  4.044733  0  0  0.215239  0.299898  0  4.01848  0
C  C64  1  0.36516277  0.35514784  0.46422602  1  0  0.044693  0  3.637249  0  0  0.003984  0  3.897257  0  0  0.0108  0  3.913694  0  0  0.029453  -0.000293  0  3.886126  0
C  C65  1  0.86516033  0.14485136  0.03577588  1  0  0.044744  0  3.637094  0  0  0.004025  0  3.897122  0  0  0.010842  0  3.913557  0  0  0.029437  -0.000248  0  3.885979  0
C  C66  1  0.63483588  0.64485055  0.53577790  1  0  0.044787  0  3.637212  0  0  0.004033  0  3.897238  0  0  0.010848  0  3.913679  0  0  0.029481  -0.000241  0  3.886099  0
C  C67  1  0.13483704  0.85515698  0.96422187  1  0  0.044809  0  3.637136  0  0  0.004053  0  3.897192  0  0  0.010869  0  3.913632  0  0  0.029487  -0.000222  0  3.88606  0
C  C68  1  0.23228914  0.41414116  0.50565593  1  0  -0.127701  0  3.796051  0  0  -0.153956  0  4.075778  0  0  -0.159503  0  4.09682  0  0  -0.101438  -0.150602  0  4.061655  0
C  C69  1  0.73228783  0.08585054  0.99434554  1  0  -0.127598  0  3.795927  0  0  -0.153875  0  4.075657  0  0  -0.159422  0  4.096696  0  0  -0.101395  -0.150505  0  4.061533  0
C  C70  1  0.76770569  0.58585188  0.49434840  1  0  -0.12768  0  3.796034  0  0  -0.153929  0  4.075775  0  0  -0.159475  0  4.096813  0  0  -0.101471  -0.150571  0  4.061654  0
C  C71  1  0.26770955  0.91415161  0.00564994  1  0  -0.127533  0  3.796103  0  0  -0.15379  0  4.075851  0  0  -0.159338  0  4.096889  0  0  -0.101382  -0.150441  0  4.061713  0
C  C72  1  0.24567333  0.45623550  0.59499069  1  0  -0.032337  0  3.751624  0  0  -0.056262  0  4.019982  0  0  -0.051527  0  4.036068  0  0  -0.086793  -0.058889  0  4.008844  0
C  C73  1  0.74567467  0.04375804  0.90501150  1  0  -0.032559  0  3.751382  0  0  -0.056491  0  4.01975  0  0  -0.051745  0  4.035843  0  0  -0.086908  -0.059118  0  4.008616  0
C  C74  1  0.75432151  0.54375933  0.40501306  1  0  -0.032526  0  3.751436  0  0  -0.056467  0  4.019819  0  0  -0.051717  0  4.035897  0  0  -0.086876  -0.059098  0  4.008693  0
C  C75  1  0.25432780  0.95623875  0.09498441  1  0  -0.032436  0  3.751695  0  0  -0.056383  0  4.020052  0  0  -0.051622  0  4.036143  0  0  -0.086886  -0.059016  0  4.008931  0
C  C76  1  0.39551649  0.44084496  0.64075349  1  0  -0.166889  0  3.708248  0  0  -0.188072  0  3.966566  0  0  -0.193605  0  3.982535  0  0  -0.08576  -0.184876  0  3.956017  0
C  C77  1  0.89552217  0.05915578  0.85924674  1  0  -0.166762  0  3.70816  0  0  -0.187916  0  3.966438  0  0  -0.193446  0  3.982406  0  0  -0.085666  -0.184721  0  3.955888  0
C  C78  1  0.60447707  0.55915174  0.35924638  1  0  -0.166865  0  3.708067  0  0  -0.188041  0  3.966377  0  0  -0.19357  0  3.982342  0  0  -0.085715  -0.184844  0  3.955836  0
C  C79  1  0.10448157  0.94084984  0.14075286  1  0  -0.166936  0  3.708246  0  0  -0.188094  0  3.966589  0  0  -0.193626  0  3.98255  0  0  -0.085748  -0.184894  0  3.956043  0
C  C80  1  0.85028493  0.63666716  0.75542617  1  0  0.537858  0  3.983948  0  0  0.472411  0  4.288584  0  0  0.505112  0  4.280748  0  0  0.122891  0.450319  0  4.293006  0
C  C81  1  0.35029793  0.86333467  0.74456829  1  0  0.537742  0  3.983968  0  0  0.472247  0  4.288633  0  0  0.504953  0  4.280796  0  0  0.122795  0.450156  0  4.293055  0
C  C82  1  0.14971372  0.36333404  0.24457192  1  0  0.537814  0  3.984093  0  0  0.472366  0  4.288719  0  0  0.50507  0  4.280884  0  0  0.122856  0.450276  0  4.293144  0
C  C83  1  0.64971472  0.13666921  0.25542926  1  0  0.537816  0  3.983812  0  0  0.472376  0  4.288423  0  0  0.505082  0  4.280583  0  0  0.122836  0.450284  0  4.292847  0
C  C84  1  0.28339030  0.04660567  0.51522216  1  0  -0.204227  0  3.743746  0  0  -0.224782  0  4.009418  0  0  -0.230782  0  4.026577  0  0  -0.099662  -0.221148  0  3.997825  0
C  C85  1  0.78339742  0.45339261  0.98477819  1  0  -0.204124  0  3.743382  0  0  -0.224622  0  4.009043  0  0  -0.230635  0  4.026177  0  0  -0.099582  -0.220988  0  3.997454  0
C  C86  1  0.71660708  0.95339275  0.48478109  1  0  -0.20419  0  3.743656  0  0  -0.224697  0  4.009361  0  0  -0.230706  0  4.026503  0  0  -0.099615  -0.221062  0  3.99777  0
C  C87  1  0.21660632  0.54660586  0.01522242  1  0  -0.204238  0  3.743481  0  0  -0.224777  0  4.009141  0  0  -0.230784  0  4.026308  0  0  -0.099648  -0.221146  0  3.99755  0
C  C88  1  0.16329386  0.11668453  0.56135741  1  0  0.344073  0  3.797212  0  0  0.313292  0  4.057916  0  0  0.32764  0  4.075792  0  0  0.208571  0.303951  0  4.045519  0
C  C89  1  0.66329917  0.38331830  0.93864536  1  0  0.344052  0  3.79702  0  0  0.313321  0  4.057678  0  0  0.32773  0  4.075455  0  0  0.208555  0.303978  0  4.045285  0
C  C90  1  0.83669843  0.88331747  0.43864468  1  0  0.344069  0  3.796995  0  0  0.313217  0  4.057751  0  0  0.327596  0  4.075578  0  0  0.208562  0.303874  0  4.045358  0
C  C91  1  0.33670329  0.61668551  0.06135549  1  0  0.343967  0  3.797202  0  0  0.313224  0  4.057889  0  0  0.327574  0  4.075768  0  0  0.208522  0.303889  0  4.045485  0
C  C92  1  0.02092349  0.15741625  0.42499183  1  0  0.046824  0  3.657955  0  0  0.002452  0  3.922215  0  0  0.010478  0  3.936974  0  0  0.027868  -0.002507  0  3.912069  0
C  C93  1  0.52092195  0.34257992  0.07501193  1  0  0.046895  0  3.657774  0  0  0.002586  0  3.922056  0  0  0.010611  0  3.936818  0  0  0.027894  -0.002393  0  3.911902  0
C  C94  1  0.97907644  0.84258669  0.57500832  1  0  0.04676  0  3.657958  0  0  0.002397  0  3.922234  0  0  0.010423  0  3.936998  0  0  0.027827  -0.002583  0  3.912068  0
C  C95  1  0.47907924  0.65741139  0.92498968  1  0  0.04684  0  3.657957  0  0  0.00251  0  3.922204  0  0  0.010537  0  3.936963  0  0  0.027847  -0.002452  0  3.912057  0
C  C96  1  0.27241179  0.03321015  0.42371681  1  0  -0.032422  0  3.760745  0  0  -0.059985  0  4.031903  0  0  -0.054393  0  4.046451  0  0  -0.090849  -0.063077  0  4.021652  0
C  C97  1  0.77241688  0.46678939  0.07628463  1  0  -0.032493  0  3.760534  0  0  -0.060053  0  4.031703  0  0  -0.054458  0  4.046258  0  0  -0.090916  -0.063143  0  4.021457  0
C  C98  1  0.72758686  0.96678742  0.57628442  1  0  -0.032392  0  3.760703  0  0  -0.059984  0  4.031862  0  0  -0.05437  0  4.046419  0  0  -0.090915  -0.063073  0  4.021609  0
C  C99  1  0.22758177  0.53320998  0.92371536  1  0  -0.032364  0  3.76056  0  0  -0.059905  0  4.031693  0  0  -0.054315  0  4.046238  0  0  -0.090865  -0.062995  0  4.021445  0
C  C100  1  0.14164359  0.09114378  0.37898172  1  0  -0.121608  0  3.783172  0  0  -0.144016  0  4.056674  0  0  -0.149864  0  4.076141  0  0  -0.098123  -0.140512  0  4.043568  0
C  C101  1  0.64164383  0.40885670  0.12102134  1  0  -0.121538  0  3.782876  0  0  -0.144027  0  4.05642  0  0  -0.149872  0  4.07588  0  0  -0.098109  -0.140528  0  4.043319  0
C  C102  1  0.85836015  0.90885817  0.62102236  1  0  -0.121424  0  3.78299  0  0  -0.143834  0  4.056514  0  0  -0.149676  0  4.075964  0  0  -0.098029  -0.140328  0  4.043421  0
C  C103  1  0.35835228  0.59114352  0.87898067  1  0  -0.121626  0  3.783247  0  0  -0.14404  0  4.056758  0  0  -0.149887  0  4.076225  0  0  -0.098132  -0.140539  0  4.043652  0
N  N104  1  0.51207477  0.33767068  0.51092295  1  0  -0.045161  0  3.635062  0  0  0.048667  0  3.831925  0  0  0.0362  0  3.859956  0  0  -0.212222  0.05676  0  3.813047  0
N  N105  1  0.01207591  0.16232952  0.98907669  1  0  -0.045256  0  3.63518  0  0  0.04858  0  3.832037  0  0  0.036114  0  3.860068  0  0  -0.212207  0.056671  0  3.813161  0
N  N106  1  0.48792133  0.66232868  0.48907770  1  0  -0.045309  0  3.634969  0  0  0.048539  0  3.83182  0  0  0.036073  0  3.859852  0  0  -0.212248  0.056632  0  3.812941  0
N  N107  1  0.98792783  0.83767349  0.01092016  1  0  -0.045222  0  3.634821  0  0  0.048641  0  3.831699  0  0  0.036173  0  3.859731  0  0  -0.212211  0.056736  0  3.812825  0
N  N108  1  0.68779290  0.35390838  0.62685447  1  0  -0.498919  0  3.223296  0  0  -0.423294  0  3.516065  0  0  -0.445596  0  3.523214  0  0  -0.363314  -0.408221  0  3.510944  0
N  N109  1  0.18779593  0.14609107  0.87314678  1  0  -0.498893  0  3.223444  0  0  -0.423297  0  3.516214  0  0  -0.445599  0  3.523362  0  0  -0.363328  -0.408222  0  3.511093  0
N  N110  1  0.31220448  0.64609098  0.37314618  1  0  -0.499021  0  3.223491  0  0  -0.423425  0  3.516251  0  0  -0.445734  0  3.523422  0  0  -0.363392  -0.408347  0  3.511132  0
N  N111  1  0.81221163  0.85390743  0.12685251  1  0  -0.498909  0  3.223391  0  0  -0.423312  0  3.516214  0  0  -0.445622  0  3.52339  0  0  -0.363343  -0.408235  0  3.511102  0
N  N112  1  0.02965940  0.16874315  0.51520350  1  0  -0.08126  0  3.63827  0  0  0.009419  0  3.835346  0  0  -0.002236  0  3.864115  0  0  -0.209393  0.017063  0  3.815961  0
N  N113  1  0.52966756  0.33125807  0.98479483  1  0  -0.081439  0  3.638299  0  0  0.009175  0  3.835435  0  0  -0.002497  0  3.864193  0  0  -0.209471  0.01682  0  3.816055  0
N  N114  1  0.97033544  0.83125447  0.48479509  1  0  -0.081334  0  3.638322  0  0  0.009479  0  3.835292  0  0  -0.002182  0  3.864057  0  0  -0.209431  0.017123  0  3.815912  0
N  N115  1  0.47034000  0.66874491  0.01520334  1  0  -0.081279  0  3.638152  0  0  0.00932  0  3.83532  0  0  -0.002335  0  3.864088  0  0  -0.20939  0.016963  0  3.815934  0
N  N116  1  0.15013606  0.14811902  0.64830589  1  0  -0.566516  0  3.218864  0  0  -0.491346  0  3.528809  0  0  -0.516204  0  3.533664  0  0  -0.381219  -0.474331  0  3.52499  0
N  N117  1  0.65014159  0.35188557  0.85169434  1  0  -0.566487  0  3.218525  0  0  -0.491368  0  3.528536  0  0  -0.516252  0  3.53339  0  0  -0.381223  -0.474352  0  3.524715  0
N  N118  1  0.84986259  0.85188214  0.35169418  1  0  -0.566585  0  3.218769  0  0  -0.491418  0  3.528793  0  0  -0.516291  0  3.533651  0  0  -0.381265  -0.474401  0  3.524976  0
N  N119  1  0.34986342  0.64811653  0.14830313  1  0  -0.566528  0  3.218823  0  0  -0.49137  0  3.528803  0  0  -0.516219  0  3.533628  0  0  -0.381243  -0.474355  0  3.524981  0
O  O120  1  0.97250111  0.26875746  0.73572716  1  0  -0.602001  0  2.098405  0  0  -0.527317  0  2.364396  0  0  -0.555162  0  2.35535  0  0  -0.329474  -0.50771  0  2.369888  0
O  O121  1  0.47250214  0.23125085  0.76427458  1  0  -0.602186  0  2.098713  0  0  -0.527376  0  2.364603  0  0  -0.555222  0  2.355563  0  0  -0.329463  -0.507763  0  2.370078  0
O  O122  1  0.02749882  0.73124725  0.26427306  1  0  -0.602155  0  2.09872  0  0  -0.527317  0  2.364586  0  0  -0.555161  0  2.355544  0  0  -0.32944  -0.50771  0  2.370073  0
O  O123  1  0.52749905  0.76875118  0.23572619  1  0  -0.601938  0  2.098822  0  0  -0.527193  0  2.364757  0  0  -0.55504  0  2.355718  0  0  -0.329357  -0.507585  0  2.370243  0
O  O124  1  0.92922154  0.53578517  0.75702221  1  0  -0.622777  0  2.070541  0  0  -0.546849  0  2.345312  0  0  -0.575042  0  2.329148  0  0  -0.343085  -0.527084  0  2.3556  0
O  O125  1  0.42922307  0.96421533  0.74297335  1  0  -0.622679  0  2.070796  0  0  -0.54677  0  2.345628  0  0  -0.574962  0  2.329464  0  0  -0.343026  -0.527008  0  2.35592  0
O  O126  1  0.07077838  0.46421694  0.24297460  1  0  -0.622741  0  2.070575  0  0  -0.54683  0  2.345373  0  0  -0.575024  0  2.329209  0  0  -0.343058  -0.527062  0  2.355655  0
O  O127  1  0.57077940  0.03578591  0.25702275  1  0  -0.622769  0  2.070523  0  0  -0.54686  0  2.345313  0  0  -0.575051  0  2.329143  0  0  -0.343069  -0.527097  0  2.355609  0
O  O128  1  0.69312712  0.65099469  0.74979917  1  0  -0.598298  0  1.973863  0  0  -0.552569  0  2.212266  0  0  -0.575229  0  2.202915  0  0  -0.334761  -0.536675  0  2.21811  0
O  O129  1  0.19311954  0.84900880  0.75019765  1  0  -0.598385  0  1.973452  0  0  -0.552618  0  2.211814  0  0  -0.575281  0  2.202465  0  0  -0.334771  -0.536723  0  2.217662  0
O  O130  1  0.30687280  0.34900736  0.25020093  1  0  -0.598276  0  1.973897  0  0  -0.55253  0  2.212272  0  0  -0.575189  0  2.202921  0  0  -0.334732  -0.536638  0  2.218122  0
O  O131  1  0.80688675  0.15099409  0.24980448  1  0  -0.598326  0  1.973697  0  0  -0.552575  0  2.212053  0  0  -0.575236  0  2.2027  0  0  -0.334747  -0.536678  0  2.217899  0
