# generated using pymatgen
data_CuMoH15C12NO6
_symmetry_space_group_name_H-M   'P 1'
_cell_length_a   11.87950664
_cell_length_b   13.86353346
_cell_length_c   19.70449840
_cell_angle_alpha   90.00058327
_cell_angle_beta   97.38638816
_cell_angle_gamma   89.99975884
_symmetry_Int_Tables_number   1
_chemical_formula_structural   CuMoH15C12NO6
_chemical_formula_sum   'Cu8 Mo8 H120 C96 N8 O48'
_cell_volume   3218.24272092
_cell_formula_units_Z   8
loop_
 _symmetry_equiv_pos_site_id
 _symmetry_equiv_pos_as_xyz
  1  'x, y, z'
loop_
 _atom_site_type_symbol
 _atom_site_label
 _atom_site_symmetry_multiplicity
 _atom_site_fract_x
 _atom_site_fract_y
 _atom_site_fract_z
 _atom_site_occupancy
 _atom_site_pbe_bader_charge
 _atom_site_pbe_bader_spin_density
 _atom_site_pbe_cm5_charge
 _atom_site_pbe_ddec_charge
 _atom_site_pbe_ddec_spin_density
 _atom_site_pbe_ddec_sum_bond_order
 _atom_site_pbe_magmom
Cu  Cu0  1  0.73404975  0.83400365  0.15553495  1  1.053297  -0.540972  0.734693  0.807709  -0.721471  2.329424  -0.541
Cu  Cu1  1  0.76575539  0.33484577  0.34371678  1  1.053589  0.545808  0.733591  0.806047  0.728466  2.328118  0.545
Cu  Cu2  1  0.26575999  0.16515835  0.84371253  1  1.053724  -0.545948  0.733721  0.80622  -0.729294  2.328504  -0.545
Cu  Cu3  1  0.23404072  0.66598896  0.65551952  1  1.053207  -0.540925  0.73468  0.807768  -0.72137  2.329128  -0.541
Cu  Cu4  1  0.66443871  0.84174883  0.29393086  1  1.086317  0.551317  0.738638  0.866032  0.730316  2.297567  0.55
Cu  Cu5  1  0.83560427  0.34248773  0.20673715  1  1.084505  0.557326  0.736994  0.863825  0.739906  2.29818  0.555
Cu  Cu6  1  0.33560296  0.15752137  0.70673291  1  1.08437  -0.557187  0.737109  0.863965  -0.740393  2.298114  -0.555
Cu  Cu7  1  0.16442892  0.65826406  0.79392902  1  1.086121  0.550817  0.738589  0.865852  0.72968  2.29773  0.549
Mo  Mo8  1  0.52901615  0.66093143  0.17962592  1  2.580444  0.001225  1.538479  1.970211  0.001135  4.651388  0.001
Mo  Mo9  1  0.97108614  0.16079221  0.32049061  1  2.583424  0.001652  1.539233  1.971838  0.001761  4.649989  0.001
Mo  Mo10  1  0.47108252  0.33920724  0.82049205  1  2.583459  -0.001568  1.539177  1.971848  -0.001697  4.65025  -0.001
Mo  Mo11  1  0.02901758  0.83907308  0.67961708  1  2.58089  0.00115  1.538495  1.970203  0.001067  4.651253  0.001
Mo  Mo12  1  0.81659608  0.62789947  0.25382140  1  2.59224  -0.002478  1.542415  1.998569  -0.002065  4.61599  -0.002
Mo  Mo13  1  0.68347781  0.12779410  0.24637190  1  2.592105  0.000382  1.542912  1.999743  0.000706  4.618255  0.0
Mo  Mo14  1  0.18344435  0.37222189  0.74636725  1  2.591827  -0.004335  1.542475  1.999053  -0.004169  4.61715  -0.004
Mo  Mo15  1  0.31656433  0.87207335  0.75381993  1  2.592202  0.00188  1.542674  1.999047  0.001606  4.616426  0.002
H  H16  1  0.54591896  0.64563422  0.34983842  1  0.066746  -8.5e-05  0.094789  0.099113  -5.6e-05  1.037117  0.0
H  H17  1  0.95411394  0.14608335  0.15031028  1  0.066638  -1.6e-05  0.094817  0.099229  -3.6e-05  1.036851  0.0
H  H18  1  0.45412982  0.35394182  0.65032092  1  0.067152  5e-06  0.094832  0.099252  2.7e-05  1.036622  0.0
H  H19  1  0.04592123  0.85435250  0.84983838  1  0.066594  -3.8e-05  0.094813  0.099075  -3.2e-05  1.037087  0.0
H  H20  1  0.69287291  0.65313375  0.38515260  1  0.064066  -0.000136  0.102145  0.113643  -0.0001  0.99115  0.0
H  H21  1  0.80719224  0.15371850  0.11500419  1  0.101036  -0.000116  0.101791  0.113102  -0.000106  0.991541  0.0
H  H22  1  0.30718598  0.34628937  0.61498873  1  0.101061  6.7e-05  0.101776  0.113167  8e-05  0.991209  0.0
H  H23  1  0.19285477  0.84687893  0.88513726  1  0.064105  -0.000185  0.102146  0.11354  -0.000125  0.991271  0.0
H  H24  1  0.63728328  0.54255642  0.34726793  1  0.019638  -0.000112  0.091756  0.090586  -8.4e-05  1.028519  0.0
H  H25  1  0.86278570  0.04294965  0.15251332  1  0.023893  6.8e-05  0.091344  0.089915  0.000113  1.027656  0.0
H  H26  1  0.36276899  0.45708381  0.65252678  1  0.023394  0.000158  0.09135  0.089935  0.000107  1.027532  0.0
H  H27  1  0.13725460  0.95742344  0.84725918  1  0.020047  7.7e-05  0.09183  0.090693  0.000131  1.0285  0.0
H  H28  1  0.69337481  0.53338801  0.09685970  1  0.064013  -2.6e-05  0.100696  0.114922  -3.6e-05  1.003067  0.0
H  H29  1  0.80653820  0.03361557  0.40333594  1  0.066291  -3.4e-05  0.100766  0.114894  -8e-06  1.003029  0.0
H  H30  1  0.30653584  0.46638928  0.90333991  1  0.066378  -3e-06  0.100788  0.114905  -2.1e-05  1.003115  0.0
H  H31  1  0.19337417  0.96662192  0.59686735  1  0.063837  1.2e-05  0.100668  0.114822  -7e-06  1.003157  0.0
H  H32  1  0.80391328  0.61936800  0.08886420  1  0.038119  8.2e-05  0.097012  0.108148  3.6e-05  1.005636  0.0
H  H33  1  0.69611260  0.11973528  0.41120918  1  0.039142  1.4e-05  0.097081  0.108152  -1.2e-05  1.006383  0.0
H  H34  1  0.19610885  0.38026719  0.91121395  1  0.039039  -1.1e-05  0.097093  0.108165  1e-06  1.006188  0.0
H  H35  1  0.30391208  0.88064647  0.58886917  1  0.038097  8.2e-05  0.096992  0.10809  4.7e-05  1.005761  0.0
H  H36  1  0.66101299  0.64436233  0.05070232  1  0.066128  9.9e-05  0.101758  0.112494  6e-05  0.984654  0.0
H  H37  1  0.83902909  0.14463733  0.44941053  1  0.062807  -5.1e-05  0.101858  0.112671  -5e-05  0.984347  0.0
H  H38  1  0.33902795  0.35536952  0.94940923  1  0.062798  3.8e-05  0.101859  0.112639  4.6e-05  0.98443  0.0
H  H39  1  0.16101693  0.85565137  0.55069735  1  0.066199  0.000116  0.101679  0.112408  6.7e-05  0.984614  0.0
H  H40  1  0.83641773  0.85829348  0.50758337  1  0.082795  1.2e-05  0.105926  0.140604  6.9e-05  0.99868  0.0
H  H41  1  0.66330259  0.35872265  0.99295822  1  0.080655  -1e-05  0.105744  0.140249  6.2e-05  0.99847  0.0
H  H42  1  0.16330517  0.14130348  0.49295063  1  0.080507  1e-05  0.10571  0.140264  -6.7e-05  0.99837  0.0
H  H43  1  0.33638216  0.64171392  0.00758557  1  0.08336  1.3e-05  0.105996  0.140608  6.4e-05  0.998774  0.0
H  H44  1  0.74633455  0.88526299  0.61174074  1  0.025813  0.000931  0.097712  0.091523  0.00048  1.01588  0.001
H  H45  1  0.75310763  0.38532390  0.88867081  1  0.079824  0.000948  0.097534  0.091185  0.000509  1.015745  0.001
H  H46  1  0.25312135  0.11468958  0.38866742  1  0.079684  -0.000949  0.097532  0.091176  -0.0005  1.015879  -0.001
H  H47  1  0.24629653  0.61474192  0.11174104  1  0.026363  0.000965  0.097772  0.091565  0.000509  1.015672  0.001
H  H48  1  0.53333658  0.90498195  0.60403360  1  0.075684  0.00014  0.095029  0.106769  0.000102  1.04042  0.0
H  H49  1  0.96613925  0.40470175  0.89613400  1  0.082548  4.1e-05  0.094943  0.107052  6e-06  1.039961  0.0
H  H50  1  0.46615390  0.09529304  0.39613206  1  0.082496  -0.000118  0.094958  0.107082  -9.1e-05  1.039887  0.0
H  H51  1  0.03329262  0.59501855  0.10401859  1  0.075526  6.3e-05  0.095148  0.106836  1.5e-05  1.040231  0.0
H  H52  1  0.41731182  0.89517576  0.49097796  1  0.022016  0.000996  0.100223  0.097269  0.000603  1.007591  0.0
H  H53  1  0.08244899  0.39484659  0.00910430  1  0.023452  0.000979  0.100241  0.096531  0.000586  1.008753  0.0
H  H54  1  0.58245239  0.10514324  0.50910902  1  0.023258  -0.000997  0.100219  0.096545  -0.000602  1.008735  0.0
H  H55  1  0.91728032  0.60481817  0.99095872  1  0.021896  0.000978  0.100226  0.097161  0.000589  1.007794  0.0
H  H56  1  0.39391726  0.88883243  0.37690487  1  0.076115  0.014239  0.11892  0.079132  0.007591  0.986496  0.008
H  H57  1  0.10617891  0.38824877  0.12321145  1  0.074861  0.014364  0.119162  0.079586  0.007655  0.986448  0.008
H  H58  1  0.60617293  0.11175057  0.62321296  1  0.074567  -0.01437  0.119168  0.079633  -0.007663  0.986534  -0.008
H  H59  1  0.89390780  0.61116065  0.87688581  1  0.075706  0.014233  0.118887  0.079042  0.007589  0.986555  0.008
H  H60  1  0.44387854  0.87316722  0.13877950  1  0.080591  0.003858  0.107865  0.096548  0.002158  0.96645  0.002
H  H61  1  0.05672046  0.37317362  0.36143832  1  0.083127  0.003673  0.108261  0.097203  0.001973  0.96537  0.002
H  H62  1  0.55671271  0.12682286  0.86143525  1  0.082659  -0.003667  0.108194  0.097117  -0.001966  0.965526  -0.002
H  H63  1  0.94386904  0.62683304  0.63876411  1  0.080486  0.003848  0.107848  0.096517  0.002149  0.966445  0.002
H  H64  1  0.53284503  0.96147821  0.18463546  1  0.054761  -0.000653  0.102004  0.082498  -0.000313  1.019667  -0.001
H  H65  1  0.96752007  0.46139808  0.31566962  1  0.056884  0.001911  0.10226  0.082656  0.000752  1.019122  0.001
H  H66  1  0.46751752  0.03861141  0.81567204  1  0.056815  -0.001925  0.102295  0.082624  -0.000746  1.019109  -0.001
H  H67  1  0.03284752  0.53851698  0.68462660  1  0.054686  -0.000687  0.101988  0.082379  -0.000327  1.01963  -0.001
H  H68  1  0.29754196  0.79217121  0.19379519  1  0.041746  0.000807  0.101583  0.06962  0.000439  0.987597  0.0
H  H69  1  0.20263380  0.29202842  0.30620570  1  0.045335  0.000804  0.101594  0.069629  0.000402  0.987851  0.0
H  H70  1  0.70262745  0.20797683  0.80620178  1  0.045366  -0.000804  0.101595  0.069622  -0.000407  0.987995  0.0
H  H71  1  0.79753389  0.70783109  0.69378251  1  0.041785  0.000806  0.10159  0.069647  0.000443  0.987757  0.0
H  H72  1  0.30951140  0.78102823  0.28517458  1  0.070486  -9.8e-05  0.099029  0.067907  -2.7e-05  0.992879  0.0
H  H73  1  0.19046918  0.28096278  0.21481597  1  0.070357  0.000452  0.099013  0.06777  0.000257  0.993538  0.0
H  H74  1  0.69045603  0.21903686  0.71481618  1  0.070474  -0.000453  0.099021  0.067764  -0.000258  0.993558  0.0
H  H75  1  0.80950501  0.71897392  0.78516668  1  0.070273  -9.8e-05  0.09902  0.067815  -2.6e-05  0.992844  0.0
H  H76  1  0.40638376  0.03208173  0.26092502  1  0.050296  2.6e-05  0.096477  0.141671  -3.4e-05  1.016198  0.0
H  H77  1  0.09390773  0.53211411  0.23932792  1  0.055159  0.00016  0.096542  0.141307  2e-05  1.016085  0.0
H  H78  1  0.59390218  0.96788598  0.73932592  1  0.05382  -0.000209  0.096529  0.14135  -5.8e-05  1.015964  0.0
H  H79  1  0.90638921  0.46792213  0.76091675  1  0.050391  1.6e-05  0.096525  0.141648  -2e-05  1.016171  0.0
H  H80  1  0.29977464  0.97693008  0.20144188  1  0.059202  0.000975  0.095984  0.1402  0.000493  1.01267  0.001
H  H81  1  0.20066811  0.47682614  0.29863693  1  0.055917  0.000956  0.095771  0.139738  0.000437  1.012807  0.0
H  H82  1  0.70066583  0.02317685  0.79863860  1  0.055893  -0.00096  0.095815  0.139789  -0.00044  1.012809  -0.001
H  H83  1  0.79977231  0.52306584  0.70143137  1  0.058972  0.000986  0.096037  0.140253  0.000505  1.012716  0.001
H  H84  1  0.29724640  0.96168931  0.29062263  1  0.014217  -0.000322  0.093094  0.130095  -0.000154  1.008803  0.0
H  H85  1  0.20277952  0.46169154  0.20940005  1  0.015264  0.000922  0.092957  0.129317  0.000474  1.009818  0.0
H  H86  1  0.70277803  0.03831087  0.70939987  1  0.015299  -0.0009  0.092938  0.129326  -0.000452  1.009819  0.0
H  H87  1  0.79724572  0.53831729  0.79061439  1  0.014327  -0.000283  0.093118  0.130085  -0.000124  1.008842  0.0
H  H88  1  0.56541594  0.87235560  0.94496290  1  0.096958  3.2e-05  0.110066  0.140509  -3.4e-05  0.981602  0.0
H  H89  1  0.93477769  0.37307896  0.55439064  1  0.094563  -4.3e-05  0.110593  0.140792  2.9e-05  0.979884  0.0
H  H90  1  0.43476677  0.12691748  0.05439004  1  0.094736  3.5e-05  0.11063  0.140855  -4.1e-05  0.979838  0.0
H  H91  1  0.06538971  0.62766200  0.44495404  1  0.09645  3.4e-05  0.110011  0.140483  -3.1e-05  0.981838  0.0
H  H92  1  0.65684619  0.87099283  0.83956203  1  0.067636  -0.001017  0.095171  0.085605  -0.000535  1.035038  -0.001
H  H93  1  0.84370772  0.37130328  0.65990311  1  0.051551  0.000916  0.095651  0.086772  0.000464  1.035305  0.001
H  H94  1  0.34370190  0.12869285  0.15990595  1  0.053036  -0.000884  0.095649  0.086822  -0.000453  1.035273  -0.001
H  H95  1  0.15681911  0.62901931  0.33955311  1  0.067102  -0.000976  0.095166  0.085555  -0.000517  1.035006  -0.001
H  H96  1  0.86849125  0.86794060  0.84468887  1  0.075866  -9.8e-05  0.092094  0.101345  -4.9e-05  1.053156  0.0
H  H97  1  0.63205608  0.36774465  0.65501630  1  0.074685  7.4e-05  0.092437  0.102629  4.5e-05  1.053436  0.0
H  H98  1  0.13205023  0.13226371  0.15501257  1  0.07438  -6.4e-05  0.092491  0.102648  -3.2e-05  1.053508  0.0
H  H99  1  0.36846839  0.63204417  0.34467623  1  0.075689  -9.5e-05  0.092146  0.101349  -5.4e-05  1.053185  0.0
H  H100  1  0.98691990  0.86061480  0.95889023  1  0.026025  -0.00101  0.098801  0.096412  -0.000607  1.01546  0.0
H  H101  1  0.51335724  0.36029067  0.54092175  1  0.028285  0.001014  0.098452  0.095777  0.000607  1.01585  0.0
H  H102  1  0.01334458  0.13970997  0.04092009  1  0.028128  -0.00101  0.098468  0.095744  -0.000607  1.015801  0.0
H  H103  1  0.48689616  0.63935822  0.45887808  1  0.026265  -0.001016  0.098827  0.096529  -0.00061  1.015434  0.0
H  H104  1  0.01059856  0.85122074  0.07402844  1  0.093686  -0.013827  0.119275  0.083747  -0.007412  0.98032  -0.008
H  H105  1  0.48944717  0.35071800  0.42578029  1  0.094225  0.013918  0.119479  0.08406  0.007453  0.980432  0.008
H  H106  1  0.98943510  0.14928147  0.92577806  1  0.094689  -0.013918  0.119386  0.083941  -0.00746  0.980431  -0.008
H  H107  1  0.51057116  0.64876210  0.57401286  1  0.093637  -0.013826  0.119221  0.08361  -0.007412  0.980485  -0.008
H  H108  1  0.88600633  0.92381391  0.26867839  1  0.134855  0.000798  0.103241  0.106755  0.000454  1.013603  0.001
H  H109  1  0.61351528  0.42364654  0.23081229  1  0.137294  0.001943  0.103634  0.107656  0.000812  1.013592  0.001
H  H110  1  0.11351005  0.07633918  0.73081579  1  0.137856  -0.001938  0.103672  0.107733  -0.000804  1.013361  -0.001
H  H111  1  0.38599679  0.57617186  0.76866786  1  0.135262  0.000736  0.103302  0.106669  0.000407  1.013484  0.001
H  H112  1  0.95467165  0.82251813  0.31122699  1  0.066488  -0.003708  0.108605  0.101147  -0.002057  0.954168  -0.002
H  H113  1  0.54479965  0.32222200  0.18851391  1  0.057668  0.0036  0.109213  0.102628  0.001899  0.952391  0.002
H  H114  1  0.04477957  0.17777778  0.68850229  1  0.057538  -0.003595  0.109267  0.102618  -0.001898  0.952305  -0.002
H  H115  1  0.45466003  0.67746224  0.81120891  1  0.066568  -0.003717  0.108629  0.101119  -0.002064  0.954087  -0.002
H  H116  1  0.07592945  0.71928441  0.25211603  1  0.046625  -0.000876  0.101327  0.066003  -0.000484  0.998948  0.0
H  H117  1  0.42387696  0.21913782  0.24796591  1  0.04489  0.000832  0.101295  0.065771  0.00041  0.998752  0.0
H  H118  1  0.92389075  0.28087373  0.74796810  1  0.045206  -0.000827  0.101331  0.065782  -0.000413  0.998935  0.0
H  H119  1  0.57593387  0.78068852  0.75210990  1  0.04665  -0.000882  0.101368  0.066126  -0.000482  0.998929  0.0
H  H120  1  0.06782387  0.71866487  0.16063872  1  0.068926  5.8e-05  0.100484  0.071015  7e-06  1.018752  0.0
H  H121  1  0.43215483  0.21891774  0.33945021  1  0.068371  0.00026  0.100234  0.070647  0.000142  1.018646  0.0
H  H122  1  0.93216438  0.28109078  0.83945259  1  0.067552  -0.00026  0.100253  0.070708  -0.000147  1.018682  0.0
H  H123  1  0.56782318  0.78131758  0.66062814  1  0.06905  5e-05  0.100544  0.071126  9e-06  1.018647  0.0
H  H124  1  0.12571848  0.88652317  0.16615620  1  0.042155  0.000147  0.088192  0.116043  4.7e-05  1.027896  0.0
H  H125  1  0.37425204  0.38671990  0.33375061  1  0.044732  0.000716  0.088113  0.115742  0.000389  1.028044  0.0
H  H126  1  0.87424521  0.11328513  0.83375258  1  0.044678  -0.000715  0.088118  0.115784  -0.000386  1.027891  0.0
H  H127  1  0.62570900  0.61346781  0.66613665  1  0.042555  0.000135  0.088196  0.116094  4e-05  1.028069  0.0
H  H128  1  0.04179783  0.97604765  0.20105225  1  0.051245  -4.2e-05  0.098292  0.147469  9e-06  1.007409  0.0
H  H129  1  0.45796934  0.47618587  0.29861036  1  0.052207  5.9e-05  0.098354  0.147421  -1.3e-05  1.007692  0.0
H  H130  1  0.95795854  0.02382269  0.79860276  1  0.051586  -7.2e-05  0.098391  0.147484  1.6e-05  1.007626  0.0
H  H131  1  0.54178696  0.52392827  0.70102943  1  0.051577  -4.9e-05  0.098316  0.14746  -4e-06  1.007249  0.0
H  H132  1  0.12338875  0.89478435  0.25610777  1  0.050315  -0.000907  0.09655  0.139475  -0.000447  1.000631  0.0
H  H133  1  0.37620473  0.39476914  0.24374000  1  0.049799  0.000916  0.096649  0.139543  0.000427  1.001214  0.0
H  H134  1  0.87620215  0.10523963  0.74373717  1  0.049687  -0.000921  0.096562  0.139486  -0.000433  1.001219  0.0
H  H135  1  0.62338440  0.60519929  0.75609059  1  0.050449  -0.000913  0.096515  0.139451  -0.000452  1.000641  0.0
C  C136  1  0.71357135  0.61060492  0.09426461  1  0.392608  0.000166  -0.162107  -0.138257  0.000162  3.923412  0.0
C  C137  1  0.78645310  0.11086144  0.40586341  1  0.391837  -0.000299  -0.16223  -0.138432  -0.000291  3.92468  0.0
C  C138  1  0.28645101  0.38914351  0.90586583  1  0.39204  0.000234  -0.162302  -0.138457  0.000216  3.924959  0.0
C  C139  1  0.21357520  0.88940417  0.59426697  1  0.392742  0.000235  -0.161955  -0.137985  0.000224  3.923261  0.0
C  C140  1  0.63224037  0.62175411  0.34420313  1  0.400807  -0.000253  -0.163683  -0.132576  -0.000308  3.949795  0.0
C  C141  1  0.86778715  0.12212068  0.15586024  1  0.358321  -0.000364  -0.163124  -0.131403  -0.000312  3.951015  0.0
C  C142  1  0.36778338  0.37789766  0.65585788  1  0.357847  0.000321  -0.162995  -0.131388  0.000355  3.949893  0.0
C  C143  1  0.13222975  0.87823582  0.84418808  1  0.40088  -0.000323  -0.163791  -0.132574  -0.000276  3.950643  0.0
C  C144  1  0.68029908  0.86254614  0.43816355  1  0.676526  -0.000837  0.096105  0.322427  0.00092  4.086701  -0.003
C  C145  1  0.81958318  0.36295191  0.06224880  1  0.675928  -0.000655  0.095794  0.321203  0.001036  4.088571  -0.003
C  C146  1  0.31959468  0.13705299  0.56224639  1  0.675854  0.000658  0.095763  0.321172  -0.001054  4.08848  0.003
C  C147  1  0.18027831  0.63746230  0.93815616  1  0.676204  -0.000846  0.096139  0.322322  0.000903  4.086621  -0.003
C  C148  1  0.74476834  0.86724299  0.50413424  1  0.013656  0.012862  -0.110008  -0.211818  0.009476  3.938285  0.011
C  C149  1  0.75495917  0.36750382  0.99631103  1  0.001964  0.012957  -0.109025  -0.210436  0.009512  3.93972  0.011
C  C150  1  0.25496690  0.13251626  0.49631087  1  0.002007  -0.012962  -0.109013  -0.210468  -0.009533  3.93946  -0.011
C  C151  1  0.24474213  0.63276468  0.00413404  1  0.013453  0.012829  -0.110141  -0.211727  0.009446  3.937648  0.011
C  C152  1  0.69297767  0.88142676  0.56235553  1  -0.100028  -0.001633  -0.09287  -0.0534  -0.00124  4.049346  0.0
C  C153  1  0.80659164  0.38148243  0.93801845  1  -0.14677  -0.001262  -0.093541  -0.053268  -0.000962  4.04903  0.0
C  C154  1  0.30659857  0.11852581  0.43801762  1  -0.146341  0.001559  -0.093579  -0.053369  0.001179  4.049228  0.0
C  C155  1  0.19293537  0.61857617  0.06234994  1  -0.100516  -0.001316  -0.093091  -0.053765  -0.001001  4.049869  0.0
C  C156  1  0.57408701  0.89098800  0.55860541  1  -0.037803  -0.000735  -0.12674  -0.162055  -0.000546  4.091684  0.0
C  C157  1  0.92548589  0.39084277  0.94162731  1  -0.068004  -0.000498  -0.126969  -0.163546  -0.000391  4.092092  0.0
C  C158  1  0.42549200  0.10915860  0.44162534  1  -0.068052  0.000698  -0.126958  -0.163432  0.000517  4.092083  0.0
C  C159  1  0.07406169  0.60901170  0.05859496  1  -0.038883  -0.000591  -0.126731  -0.161773  -0.000456  4.091518  0.0
C  C160  1  0.50927507  0.88612959  0.49536950  1  -0.03303  -0.002733  -0.089705  -0.092591  -0.001721  4.040765  -0.002
C  C161  1  0.99047117  0.38597129  0.00481142  1  -0.040689  -0.002667  -0.089974  -0.092648  -0.001708  4.043311  -0.002
C  C162  1  0.49047428  0.11402350  0.50481227  1  -0.04057  0.002756  -0.089902  -0.092641  0.00174  4.043286  0.002
C  C163  1  0.00923823  0.61387164  0.99535413  1  -0.031657  -0.002631  -0.089686  -0.092639  -0.001677  4.040106  -0.002
C  C164  1  0.55887525  0.87341152  0.43435303  1  -0.002081  0.00895  -0.04064  -0.104725  0.005935  4.039691  0.008
C  C165  1  0.94102157  0.37349448  0.06590521  1  0.037289  0.009129  -0.040746  -0.103274  0.006035  4.039526  0.008
C  C166  1  0.44102719  0.12650498  0.56590837  1  0.03728  -0.009016  -0.040728  -0.103292  -0.005976  4.039916  -0.008
C  C167  1  0.05885705  0.62658864  0.93434170  1  -0.002298  0.008983  -0.040645  -0.104657  0.005948  4.039544  0.008
C  C168  1  0.48403662  0.87793746  0.37143877  1  0.596307  -0.007916  0.076508  0.120562  -0.004964  3.97445  -0.007
C  C169  1  0.01600307  0.37786561  0.12875387  1  0.596549  -0.007718  0.076649  0.119568  -0.004852  3.974463  -0.007
C  C170  1  0.51600130  0.12213124  0.62875731  1  0.596364  0.007738  0.076642  0.119518  0.004865  3.974396  0.007
C  C171  1  0.98402885  0.62206459  0.87142804  1  0.596771  -0.007902  0.07661  0.120716  -0.004953  3.974296  -0.007
C  C172  1  0.42979325  0.87952428  0.24828557  1  0.317171  0.001154  0.063528  0.221965  0.001619  3.829734  0.0
C  C173  1  0.07040226  0.37955790  0.25183822  1  0.317604  0.011462  0.063696  0.222636  0.008883  3.830443  0.008
C  C174  1  0.57039795  0.12044559  0.75183942  1  0.317335  -0.011484  0.063675  0.222556  -0.008902  3.830519  -0.008
C  C175  1  0.92979227  0.62047834  0.74827332  1  0.317756  0.001164  0.063466  0.221692  0.001624  3.829471  0.0
C  C176  1  0.49819933  0.88830214  0.18719351  1  0.439538  0.000408  -0.090057  -0.020606  0.000202  3.884124  0.0
C  C177  1  0.00223690  0.38824889  0.31307042  1  0.436229  0.003015  -0.09027  -0.020858  0.003391  3.885767  0.001
C  C178  1  0.50223516  0.11175646  0.81306921  1  0.437172  -0.003014  -0.090262  -0.020677  -0.003389  3.886077  -0.001
C  C179  1  0.99820176  0.61169935  0.68717841  1  0.439371  0.000385  -0.089977  -0.020258  0.000182  3.883326  0.0
C  C180  1  0.35801350  0.78666420  0.24115775  1  0.432997  0.001581  -0.06937  0.019817  0.001065  3.92158  0.001
C  C181  1  0.14206399  0.28660172  0.25887572  1  0.42965  0.001761  -0.069596  0.019505  0.001215  3.922245  0.001
C  C182  1  0.64205425  0.21340450  0.75887615  1  0.429583  -0.001759  -0.069572  0.019591  -0.001216  3.922494  -0.001
C  C183  1  0.85800457  0.71333714  0.74114708  1  0.432932  0.001581  -0.06933  0.019979  0.001065  3.921436  0.001
C  C184  1  0.35328182  0.96763834  0.25065322  1  -0.067793  0.001881  -0.236994  -0.438384  0.001406  3.872569  0.001
C  C185  1  0.14696605  0.46762764  0.24948431  1  -0.069833  0.003582  -0.236848  -0.437022  0.002703  3.872942  0.002
C  C186  1  0.64696374  0.03237338  0.74948503  1  -0.068566  -0.003623  -0.23684  -0.437098  -0.002745  3.872885  -0.002
C  C187  1  0.85327946  0.53236171  0.75064379  1  -0.068083  0.001923  -0.237129  -0.438355  0.001469  3.872554  0.001
C  C188  1  0.72244333  0.86660183  0.01349714  1  0.634865  0.000118  0.098235  0.329073  -0.001393  4.073296  0.003
C  C189  1  0.77757392  0.36715817  0.48597038  1  0.633391  0.000157  0.09747  0.328156  0.001508  4.072993  -0.003
C  C190  1  0.27758037  0.13284293  0.98597365  1  0.633377  -0.000162  0.097514  0.328205  -0.001521  4.07286  0.003
C  C191  1  0.22243447  0.63339885  0.51349164  1  0.634452  0.000117  0.098241  0.329155  -0.001391  4.073392  0.003
C  C192  1  0.65762260  0.87050095  0.94759163  1  -0.044229  -0.012941  -0.105509  -0.207233  -0.009599  3.934708  -0.011
C  C193  1  0.84259515  0.37100171  0.55184240  1  -0.028827  0.012923  -0.10454  -0.204542  0.009617  3.932071  0.011
C  C194  1  0.34258594  0.12899357  0.05184702  1  -0.029145  -0.012798  -0.104565  -0.204658  -0.009548  3.932291  -0.011
C  C195  1  0.15759811  0.62950410  0.44759407  1  -0.042733  -0.0128  -0.105326  -0.20707  -0.009508  3.934843  -0.011
C  C196  1  0.70994943  0.86985918  0.88896349  1  -0.044701  0.00035  -0.091412  -0.048726  0.000341  4.055246  0.0
C  C197  1  0.79047913  0.37012439  0.61055506  1  -0.04024  -0.000329  -0.09303  -0.052629  -0.00034  4.057866  0.0
C  C198  1  0.29047077  0.12987915  0.11055873  1  -0.041248  0.000427  -0.092987  -0.052601  0.000408  4.057527  0.0
C  C199  1  0.20990794  0.63014772  0.38895855  1  -0.045206  0.000441  -0.091333  -0.048659  0.000403  4.05489  0.0
C  C200  1  0.82927114  0.86770369  0.89174760  1  -0.041458  0.000939  -0.125498  -0.154339  0.000671  4.076959  0.0
C  C201  1  0.67120395  0.36766561  0.60793128  1  -0.039835  -0.000945  -0.127014  -0.157079  -0.000665  4.08031  0.0
C  C202  1  0.17118962  0.13233182  0.10792994  1  -0.039858  0.000973  -0.127139  -0.157302  0.000694  4.080401  0.0
C  C203  1  0.32922875  0.63228262  0.39173246  1  -0.041736  0.000998  -0.125754  -0.154513  0.000708  4.077174  0.0
C  C204  1  0.89441844  0.86406716  0.95502113  1  -0.060969  0.001654  -0.094229  -0.105475  0.001025  4.038708  0.001
C  C205  1  0.60584819  0.36398151  0.54471700  1  -0.054434  -0.001714  -0.093318  -0.102974  -0.001063  4.037573  -0.001
C  C206  1  0.10584402  0.13602246  0.04471495  1  -0.054291  0.001609  -0.093236  -0.102707  0.000991  4.037547  0.001
C  C207  1  0.39439552  0.63591696  0.45499938  1  -0.060846  0.001713  -0.094198  -0.105555  0.001058  4.038685  0.001
C  C208  1  0.84451878  0.86223550  0.01671416  1  -0.019382  -0.008174  -0.041224  -0.101693  -0.005438  4.035991  -0.008
C  C209  1  0.65553495  0.36247991  0.48293981  1  -0.017146  0.008163  -0.04206  -0.103669  0.005423  4.034919  0.008
C  C210  1  0.15553628  0.13751798  0.98293968  1  -0.017014  -0.008172  -0.042011  -0.103646  -0.005438  4.035113  -0.008
C  C211  1  0.34450732  0.63775180  0.51670241  1  -0.01892  -0.008076  -0.041085  -0.101566  -0.005371  4.035615  -0.008
C  C212  1  0.91954291  0.85325831  0.07935982  1  0.582825  0.005398  0.074977  0.121689  0.003192  3.964287  0.005
C  C213  1  0.58042455  0.35329290  0.42035300  1  0.577011  -0.005119  0.074292  0.120585  -0.003032  3.963223  -0.005
C  C214  1  0.08042503  0.14669497  0.92036100  1  0.575714  0.005116  0.074392  0.120736  0.003028  3.963055  0.005
C  C215  1  0.41952635  0.64673252  0.57935028  1  0.582586  0.005416  0.07479  0.121564  0.003199  3.964407  0.005
C  C216  1  0.97169997  0.83161095  0.20236974  1  0.306913  -0.002015  0.061269  0.222678  -0.002229  3.841182  -0.001
C  C217  1  0.52807361  0.33173555  0.29742463  1  0.300743  0.010146  0.061497  0.223007  0.007941  3.840133  0.007
C  C218  1  0.02808670  0.16824928  0.79742206  1  0.301306  -0.010166  0.061332  0.222642  -0.007963  3.839744  -0.007
C  C219  1  0.47170370  0.66839158  0.70236189  1  0.307041  -0.001985  0.06149  0.223236  -0.002206  3.840569  -0.001
C  C220  1  0.90518185  0.84705851  0.26326624  1  0.386803  -0.000725  -0.095693  -0.032448  -0.00059  3.883663  0.0
C  C221  1  0.59437217  0.34692808  0.23639484  1  0.395981  0.002148  -0.095747  -0.03355  0.002626  3.883137  0.0
C  C222  1  0.09439460  0.15307005  0.73638222  1  0.395558  -0.002132  -0.095723  -0.033493  -0.00262  3.882302  0.0
C  C223  1  0.40518135  0.65292566  0.76325035  1  0.386536  -0.000737  -0.095959  -0.032587  -0.000604  3.883461  0.0
C  C224  1  0.01835730  0.72803518  0.20376935  1  0.430197  -0.001688  -0.074176  0.009191  -0.00112  3.924833  -0.001
C  C225  1  0.48154981  0.22810115  0.29625838  1  0.434933  0.001703  -0.074052  0.009952  0.001188  3.925199  0.001
C  C226  1  0.98154921  0.27187411  0.79626094  1  0.435826  -0.001743  -0.074003  0.009982  -0.00123  3.924936  -0.001
C  C227  1  0.51835242  0.77197549  0.70376296  1  0.430228  -0.001638  -0.074261  0.008822  -0.001066  3.924906  -0.001
C  C228  1  0.07157691  0.90136609  0.20611217  1  -0.08036  -0.001659  -0.23857  -0.437522  -0.001319  3.898294  -0.001
C  C229  1  0.42818851  0.40148631  0.29367005  1  -0.083757  0.003042  -0.238681  -0.437721  0.002324  3.899089  0.002
C  C230  1  0.92818510  0.09851723  0.79366812  1  -0.082895  -0.003063  -0.238589  -0.437668  -0.002341  3.898848  -0.002
C  C231  1  0.57156835  0.59861845  0.70609411  1  -0.08139  -0.001678  -0.238588  -0.43767  -0.001341  3.898126  -0.001
N  N232  1  0.51400190  0.87255234  0.31051827  1  -1.140108  0.106868  -0.387194  -0.319022  0.072503  3.532084  0.091
N  N233  1  0.98609417  0.37285622  0.18970485  1  -1.143872  0.107673  -0.387341  -0.318889  0.073089  3.531831  0.091
N  N234  1  0.48608623  0.12714272  0.68971156  1  -1.143438  -0.10755  -0.387383  -0.318911  -0.073069  3.531757  -0.091
N  N235  1  0.01399644  0.62745340  0.81051096  1  -1.14046  0.106897  -0.387143  -0.318845  0.072523  3.531856  0.091
N  N236  1  0.88864869  0.84592879  0.14013107  1  -1.143603  -0.104354  -0.387891  -0.328779  -0.070955  3.558735  -0.088
N  N237  1  0.61117770  0.34638579  0.35952633  1  -1.142504  0.104965  -0.387567  -0.327244  0.07134  3.556706  0.089
N  N238  1  0.11118069  0.15361479  0.85953101  1  -1.14186  -0.104976  -0.387597  -0.327328  -0.071403  3.556325  -0.089
N  N239  1  0.38864399  0.65406015  0.64012451  1  -1.143281  -0.104316  -0.387852  -0.32885  -0.070931  3.558632  -0.088
O  O240  1  0.50579374  0.53895391  0.17989053  1  -0.809548  0.001019  -0.512783  -0.634675  0.000643  1.679112  0.001
O  O241  1  0.99428718  0.03882254  0.32009206  1  -0.810728  0.001983  -0.512879  -0.634916  0.001237  1.677168  0.002
O  O242  1  0.49428483  0.46117754  0.82009243  1  -0.810777  -0.002027  -0.512884  -0.634927  -0.001242  1.677128  -0.002
O  O243  1  0.00579477  0.96105068  0.67988863  1  -0.809713  0.000656  -0.512818  -0.634757  0.000427  1.679146  0.001
O  O244  1  0.46662876  0.69855990  0.10119854  1  -0.784713  0.002101  -0.495318  -0.607392  0.001359  1.674443  0.001
O  O245  1  0.03370820  0.19821998  0.39891592  1  -0.784818  0.002714  -0.495815  -0.608009  0.00186  1.674417  0.002
O  O246  1  0.53370920  0.30179083  0.89892085  1  -0.784787  -0.00271  -0.495851  -0.6081  -0.001864  1.674203  -0.002
O  O247  1  0.96663226  0.80144262  0.60119249  1  -0.784559  0.002027  -0.495302  -0.607315  0.001321  1.674607  0.001
O  O248  1  0.79748438  0.50523226  0.24006332  1  -0.866084  -0.000921  -0.522495  -0.726693  -0.000942  1.890645  0.001
O  O249  1  0.70241134  0.00527707  0.26061800  1  -0.863712  0.002256  -0.521745  -0.724162  0.001479  1.885994  0.003
O  O250  1  0.20242241  0.49473473  0.76061050  1  -0.86369  -0.002285  -0.521558  -0.723863  -0.001333  1.886138  -0.001
O  O251  1  0.29749719  0.99475052  0.74006509  1  -0.865774  0.000778  -0.522627  -0.726986  0.000829  1.89001  -0.001
O  O252  1  0.88851536  0.63721717  0.33443843  1  -0.788786  -0.002178  -0.499235  -0.604205  -0.001454  1.621456  -0.001
O  O253  1  0.61150658  0.13646388  0.16571902  1  -0.788959  0.00267  -0.499655  -0.60508  0.001782  1.621609  0.002
O  O254  1  0.11147654  0.36351946  0.66571203  1  -0.78904  -0.002517  -0.499625  -0.60499  -0.001677  1.621511  -0.002
O  O255  1  0.38849551  0.86278180  0.83443373  1  -0.788779  -0.001904  -0.499222  -0.604256  -0.001272  1.621107  -0.001
O  O256  1  0.65865281  0.65476971  0.27904890  1  -1.112813  -0.001562  -0.434317  -0.62732  -0.001231  2.590708  0.0
O  O257  1  0.84129857  0.15463095  0.22109368  1  -1.111208  -0.001028  -0.434293  -0.627338  -0.000896  2.59176  0.0
O  O258  1  0.34134163  0.34534948  0.72110175  1  -1.110812  0.000599  -0.434324  -0.627578  0.00061  2.591001  0.0
O  O259  1  0.15868994  0.84523722  0.77905804  1  -1.113325  -0.001474  -0.434374  -0.627249  -0.001218  2.592134  0.0
O  O260  1  0.69264566  0.65824767  0.15656849  1  -1.11458  0.001568  -0.43632  -0.627198  0.001112  2.58646  0.0
O  O261  1  0.80749980  0.15835173  0.34352338  1  -1.113035  -0.00082  -0.4363  -0.626521  -0.000627  2.583807  0.0
O  O262  1  0.30752084  0.34165296  0.84353686  1  -1.113314  0.000843  -0.436251  -0.626419  0.00064  2.583935  0.0
O  O263  1  0.19266497  0.84175664  0.65657626  1  -1.114746  0.001569  -0.436339  -0.627142  0.001075  2.586154  0.0
O  O264  1  0.73525283  0.84882549  0.38548127  1  -1.078188  0.136721  -0.332492  -0.481137  0.090331  2.338987  0.122
O  O265  1  0.76480645  0.34960298  0.11504035  1  -1.077201  0.138433  -0.331307  -0.479529  0.091698  2.337947  0.124
O  O266  1  0.26480687  0.15040793  0.61503567  1  -1.07694  -0.138382  -0.331394  -0.47964  -0.09175  2.337651  -0.124
O  O267  1  0.23523542  0.65118704  0.88547728  1  -1.077654  0.13663  -0.332455  -0.481063  0.090258  2.339473  0.122
O  O268  1  0.58950160  0.82028187  0.19659595  1  -1.091351  0.026877  -0.418132  -0.604844  0.017725  2.630043  0.024
O  O269  1  0.91116825  0.32010151  0.30381501  1  -1.09199  0.140764  -0.418278  -0.605169  0.09533  2.634765  0.127
O  O270  1  0.41116777  0.17989935  0.80382418  1  -1.092027  -0.140818  -0.418329  -0.605238  -0.095451  2.634876  -0.127
O  O271  1  0.08949851  0.67972988  0.69659071  1  -1.091052  0.026868  -0.418108  -0.605033  0.017722  2.630155  0.024
O  O272  1  0.42220872  0.70120028  0.23926876  1  -1.060903  -0.002107  -0.410643  -0.53909  -0.001528  2.359948  -0.002
O  O273  1  0.07778081  0.20118207  0.26076098  1  -1.062375  0.002391  -0.410439  -0.53936  0.001503  2.358454  0.002
O  O274  1  0.57777417  0.29881720  0.76076276  1  -1.06247  -0.002379  -0.410457  -0.539345  -0.001502  2.35879  -0.002
O  O275  1  0.92220289  0.79880729  0.73926147  1  -1.060974  -0.002122  -0.410568  -0.539116  -0.001526  2.359567  -0.002
O  O276  1  0.66696045  0.86599929  0.06664162  1  -1.06503  -0.139292  -0.3318  -0.467834  -0.091867  2.343701  -0.125
O  O277  1  0.83279671  0.36695644  0.43272495  1  -1.070292  0.140671  -0.329892  -0.465732  0.092951  2.342812  0.126
O  O278  1  0.33279208  0.13305307  0.93271825  1  -1.070387  -0.140654  -0.330012  -0.465826  -0.093022  2.342648  -0.126
O  O279  1  0.16693544  0.63399514  0.56662982  1  -1.064919  -0.139324  -0.331951  -0.468004  -0.091887  2.343744  -0.125
O  O280  1  0.80073716  0.79419907  0.25126473  1  -1.078293  -0.032113  -0.414684  -0.60416  -0.021341  2.613549  -0.028
O  O281  1  0.69872511  0.29399342  0.24833014  1  -1.079481  0.140204  -0.415758  -0.605553  0.095366  2.615885  0.126
O  O282  1  0.19875343  0.20599441  0.74834726  1  -1.079816  -0.140222  -0.415833  -0.605422  -0.09548  2.616123  -0.126
O  O283  1  0.30075183  0.70580478  0.75126508  1  -1.078552  -0.032027  -0.414669  -0.604153  -0.021267  2.61347  -0.028
O  O284  1  0.93461740  0.65498935  0.19873763  1  -1.050516  0.002202  -0.406468  -0.534043  0.001593  2.366142  0.002
O  O285  1  0.56538571  0.15516797  0.30139669  1  -1.053088  0.00208  -0.406573  -0.53506  0.001277  2.367133  0.002
O  O286  1  0.06538214  0.34482544  0.80141493  1  -1.053409  -0.002378  -0.406517  -0.534874  -0.001496  2.366373  -0.002
O  O287  1  0.43460363  0.84500099  0.69875103  1  -1.050928  0.002563  -0.406556  -0.534105  0.001808  2.366264  0.002
