# generated using pymatgen
data_Nd2H18(C3O8)3
_symmetry_space_group_name_H-M   'P 1'
_cell_length_a   8.92373977
_cell_length_b   8.92372302
_cell_length_c   8.92374439
_cell_angle_alpha   65.86631499
_cell_angle_beta   65.86620156
_cell_angle_gamma   65.86623803
_symmetry_Int_Tables_number   1
_chemical_formula_structural   Nd2H18(C3O8)3
_chemical_formula_sum   'Nd2 H18 C9 O24'
_cell_volume   566.35656727
_cell_formula_units_Z   1
loop_
 _symmetry_equiv_pos_site_id
 _symmetry_equiv_pos_as_xyz
  1  'x, y, z'
loop_
 _atom_site_type_symbol
 _atom_site_label
 _atom_site_symmetry_multiplicity
 _atom_site_fract_x
 _atom_site_fract_y
 _atom_site_fract_z
 _atom_site_occupancy
 _atom_site_hle17_bader_spin_density
 _atom_site_hle17_ddec_charge
 _atom_site_hle17_ddec_spin_density
 _atom_site_hle17_ddec_sum_bond_order
 _atom_site_hle17_magmom
 _atom_site_hse06_10hf_bader_spin_density
 _atom_site_hse06_10hf_ddec_charge
 _atom_site_hse06_10hf_ddec_spin_density
 _atom_site_hse06_10hf_ddec_sum_bond_order
 _atom_site_hse06_10hf_magmom
 _atom_site_hse06_bader_spin_density
 _atom_site_hse06_ddec_charge
 _atom_site_hse06_ddec_spin_density
 _atom_site_hse06_ddec_sum_bond_order
 _atom_site_hse06_magmom
 _atom_site_pbe_bader_spin_density
 _atom_site_pbe_cm5_charge
 _atom_site_pbe_ddec_charge
 _atom_site_pbe_ddec_spin_density
 _atom_site_pbe_ddec_sum_bond_order
 _atom_site_pbe_magmom
Nd  Nd0  1  0.76988409  0.76988453  0.76988385  1  0  2.336272  0  1.625378  0  0  2.222172  0  1.990984  0  0  2.256846  0  1.95095  0  0  1.498532  2.136536  0  2.133411  0
Nd  Nd1  1  0.23011752  0.23011777  0.23011731  1  0  2.336254  0  1.625396  0  0  2.222163  0  1.991011  0  0  2.256833  0  1.950981  0  0  1.498484  2.136604  0  2.133302  0
H  H2  1  0.67295495  0.45207301  0.81288786  1  0  0.417951  0  0.877942  0  0  0.385065  0  0.952918  0  0  0.397491  0  0.934984  0  0  0.308689  0.376332  0  0.965372  0
H  H3  1  0.81288682  0.67295381  0.45207139  1  0  0.417939  0  0.877925  0  0  0.385064  0  0.952911  0  0  0.39749  0  0.934979  0  0  0.308693  0.376358  0  0.965325  0
H  H4  1  0.45207156  0.81288379  0.67295528  1  0  0.417957  0  0.877891  0  0  0.38507  0  0.952904  0  0  0.397498  0  0.934966  0  0  0.308688  0.376356  0  0.965328  0
H  H5  1  0.18711324  0.54793070  0.32704601  1  0  0.417984  0  0.87796  0  0  0.385119  0  0.952856  0  0  0.397544  0  0.934926  0  0  0.308719  0.376409  0  0.965277  0
H  H6  1  0.54793057  0.32704561  0.18711516  1  0  0.417977  0  0.877977  0  0  0.385108  0  0.95287  0  0  0.397534  0  0.934938  0  0  0.308716  0.376398  0  0.96529  0
H  H7  1  0.32704425  0.18711485  0.54793131  1  0  0.417976  0  0.877917  0  0  0.385107  0  0.952857  0  0  0.397534  0  0.934924  0  0  0.308704  0.376398  0  0.965277  0
H  H8  1  0.78146942  0.71538158  0.14305764  1  0  0.446126  0  0.848822  0  0  0.41398  0  0.911707  0  0  0.425717  0  0.894531  0  0  0.30013  0.405381  0  0.924256  0
H  H9  1  0.14305844  0.78146734  0.71538304  1  0  0.446143  0  0.848794  0  0  0.413995  0  0.911685  0  0  0.425732  0  0.894509  0  0  0.300137  0.4054  0  0.924224  0
H  H10  1  0.71538198  0.14305687  0.78147050  1  0  0.446095  0  0.848858  0  0  0.413951  0  0.911741  0  0  0.425688  0  0.894565  0  0  0.300128  0.405351  0  0.924287  0
H  H11  1  0.85694327  0.28462016  0.21853171  1  0  0.446173  0  0.848754  0  0  0.414037  0  0.911623  0  0  0.425773  0  0.894449  0  0  0.300162  0.405442  0  0.924162  0
H  H12  1  0.28462154  0.21853162  0.85694333  1  0  0.446159  0  0.848781  0  0  0.414024  0  0.911647  0  0  0.425758  0  0.894475  0  0  0.300143  0.405428  0  0.924187  0
H  H13  1  0.21853203  0.85694293  0.28462137  1  0  0.446191  0  0.84873  0  0  0.414055  0  0.9116  0  0  0.42579  0  0.894426  0  0  0.300164  0.405463  0  0.924134  0
H  H14  1  0.96310395  0.62654147  0.02865695  1  0  0.440586  0  0.849925  0  0  0.412038  0  0.909698  0  0  0.422381  0  0.894256  0  0  0.310167  0.404762  0  0.920299  0
H  H15  1  0.02865874  0.96310212  0.62654259  1  0  0.440612  0  0.849889  0  0  0.412072  0  0.909646  0  0  0.422414  0  0.894207  0  0  0.310195  0.404796  0  0.920247  0
H  H16  1  0.62654237  0.02865614  0.96310555  1  0  0.440586  0  0.849921  0  0  0.412035  0  0.909699  0  0  0.422379  0  0.894257  0  0  0.310176  0.404758  0  0.920301  0
H  H17  1  0.97134499  0.37346258  0.03689618  1  0  0.440542  0  0.849982  0  0  0.412001  0  0.909743  0  0  0.42234  0  0.894304  0  0  0.310166  0.404728  0  0.920346  0
H  H18  1  0.37346254  0.03689687  0.97134452  1  0  0.440538  0  0.849993  0  0  0.412001  0  0.909747  0  0  0.422339  0  0.894309  0  0  0.310159  0.404724  0  0.920357  0
H  H19  1  0.03689666  0.97134518  0.37346364  1  0  0.440554  0  0.849968  0  0  0.412015  0  0.909723  0  0  0.422354  0  0.894286  0  0  0.310158  0.404742  0  0.920328  0
C  C20  1  0.46237470  0.53762942  0.99999919  1  0  0.327057  0  3.680862  0  0  0.306857  0  3.945605  0  0  0.314038  0  3.947352  0  0  0.161074  0.301324  0  3.94177  0
C  C21  1  0.00000228  0.46237272  0.53762876  1  0  0.326996  0  3.68083  0  0  0.306819  0  3.945605  0  0  0.314002  0  3.947352  0  0  0.161065  0.301284  0  3.941782  0
C  C22  1  0.53762953  0.00000018  0.46237118  1  0  0.327072  0  3.680885  0  0  0.306932  0  3.94551  0  0  0.314056  0  3.947353  0  0  0.161087  0.301398  0  3.941681  0
C  C23  1  0.41167353  0.68246374  0.08325302  1  0  0.622201  0  3.81277  0  0  0.565538  0  4.116387  0  0  0.597815  0  4.109122  0  0  0.235915  0.543551  0  4.11922  0
C  C24  1  0.08325433  0.41167405  0.68246268  1  0  0.622249  0  3.812781  0  0  0.565571  0  4.116407  0  0  0.597848  0  4.109138  0  0  0.235946  0.543577  0  4.11925  0
C  C25  1  0.68245951  0.08325111  0.41167636  1  0  0.622126  0  3.812896  0  0  0.565496  0  4.116413  0  0  0.597785  0  4.109153  0  0  0.235892  0.543502  0  4.119252  0
C  C26  1  0.91674575  0.31753955  0.58832731  1  0  0.622258  0  3.812811  0  0  0.565532  0  4.116512  0  0  0.59781  0  4.109246  0  0  0.235883  0.543537  0  4.119359  0
C  C27  1  0.31754157  0.58832621  0.91674578  1  0  0.622124  0  3.812954  0  0  0.56549  0  4.116495  0  0  0.597773  0  4.109221  0  0  0.235854  0.543497  0  4.119336  0
C  C28  1  0.58832746  0.91674453  0.31754260  1  0  0.62221  0  3.812749  0  0  0.565525  0  4.116357  0  0  0.597822  0  4.109084  0  0  0.23589  0.543538  0  4.11919  0
O  O29  1  0.62413577  0.53889661  0.88030074  1  0  -0.699985  0  2.234978  0  0  -0.657602  0  2.472223  0  0  -0.67329  0  2.453984  0  0  -0.436795  -0.639514  0  2.485914  0
O  O30  1  0.88030100  0.62413684  0.53889552  1  0  -0.700018  0  2.234892  0  0  -0.657648  0  2.472155  0  0  -0.673337  0  2.453915  0  0  -0.436844  -0.639576  0  2.485825  0
O  O31  1  0.53889589  0.88030077  0.62413685  1  0  -0.700024  0  2.23486  0  0  -0.65767  0  2.472102  0  0  -0.673346  0  2.453884  0  0  -0.436838  -0.639592  0  2.485775  0
O  O32  1  0.11970186  0.46110464  0.37586505  1  0  -0.700024  0  2.235005  0  0  -0.657658  0  2.472217  0  0  -0.673346  0  2.453976  0  0  -0.436836  -0.639591  0  2.485885  0
O  O33  1  0.46110552  0.37586388  0.11970230  1  0  -0.700047  0  2.234996  0  0  -0.65769  0  2.472219  0  0  -0.673379  0  2.453976  0  0  -0.436854  -0.639625  0  2.485886  0
O  O34  1  0.37586304  0.11970160  0.46110477  1  0  -0.700027  0  2.2349  0  0  -0.657677  0  2.472117  0  0  -0.673353  0  2.453899  0  0  -0.436832  -0.639615  0  2.485786  0
O  O35  1  0.48555662  0.79931715  0.99728987  1  0  -0.669067  0  2.055793  0  0  -0.61776  0  2.297873  0  0  -0.641631  0  2.28748  0  0  -0.355987  -0.594579  0  2.305725  0
O  O36  1  0.99729019  0.48555782  0.79931505  1  0  -0.669085  0  2.055788  0  0  -0.617768  0  2.297885  0  0  -0.64164  0  2.287491  0  0  -0.355988  -0.594577  0  2.305719  0
O  O37  1  0.79931462  0.99729045  0.48555795  1  0  -0.669064  0  2.055815  0  0  -0.617766  0  2.297877  0  0  -0.641636  0  2.287479  0  0  -0.355985  -0.594582  0  2.305717  0
O  O38  1  0.00271115  0.20068432  0.51444374  1  0  -0.669155  0  2.055671  0  0  -0.617849  0  2.297843  0  0  -0.641724  0  2.287452  0  0  -0.356015  -0.594652  0  2.305644  0
O  O39  1  0.20068509  0.51444302  0.00271141  1  0  -0.669111  0  2.055742  0  0  -0.617812  0  2.297836  0  0  -0.641689  0  2.287442  0  0  -0.355994  -0.594631  0  2.305666  0
O  O40  1  0.51444259  0.00271285  0.20068115  1  0  -0.669169  0  2.055654  0  0  -0.617842  0  2.297728  0  0  -0.641721  0  2.287329  0  0  -0.356017  -0.594663  0  2.305566  0
O  O41  1  0.29585593  0.67829397  0.22545780  1  0  -0.562317  0  2.006997  0  0  -0.500543  0  2.210788  0  0  -0.525673  0  2.199254  0  0  -0.277659  -0.483895  0  2.219417  0
O  O42  1  0.22545895  0.29585670  0.67829181  1  0  -0.562337  0  2.006996  0  0  -0.500552  0  2.21079  0  0  -0.525678  0  2.199251  0  0  -0.277675  -0.483895  0  2.219415  0
O  O43  1  0.67829234  0.22545883  0.29585654  1  0  -0.562269  0  2.006973  0  0  -0.500509  0  2.210731  0  0  -0.525637  0  2.199193  0  0  -0.277642  -0.48385  0  2.219354  0
O  O44  1  0.77454732  0.32170826  0.70414062  1  0  -0.562302  0  2.007145  0  0  -0.50048  0  2.210953  0  0  -0.525609  0  2.199418  0  0  -0.277627  -0.483813  0  2.219585  0
O  O45  1  0.32171141  0.70413830  0.77454226  1  0  -0.562227  0  2.007089  0  0  -0.500444  0  2.21087  0  0  -0.525576  0  2.199331  0  0  -0.277612  -0.483801  0  2.219505  0
O  O46  1  0.70413938  0.77454056  0.32171062  1  0  -0.562237  0  2.007042  0  0  -0.500447  0  2.210833  0  0  -0.525577  0  2.19929  0  0  -0.277607  -0.483806  0  2.219468  0
O  O47  1  0.84086072  0.68129164  0.03476928  1  0  -0.937752  0  1.879839  0  0  -0.894865  0  2.072677  0  0  -0.912103  0  2.037437  0  0  -0.664478  -0.874886  0  2.101934  0
O  O48  1  0.03476804  0.84086311  0.68128978  1  0  -0.937791  0  1.879807  0  0  -0.894897  0  2.07264  0  0  -0.91214  0  2.037406  0  0  -0.66451  -0.874925  0  2.101891  0
O  O49  1  0.68128993  0.03477259  0.84085838  1  0  -0.937686  0  1.879839  0  0  -0.894789  0  2.072656  0  0  -0.912033  0  2.037426  0  0  -0.664471  -0.874813  0  2.101912  0
O  O50  1  0.96523248  0.31871124  0.15914211  1  0  -0.937743  0  1.879881  0  0  -0.894853  0  2.072701  0  0  -0.91209  0  2.037485  0  0  -0.664496  -0.8749  0  2.10193  0
O  O51  1  0.31871066  0.15913975  0.96523102  1  0  -0.93771  0  1.87991  0  0  -0.894827  0  2.072733  0  0  -0.912061  0  2.037514  0  0  -0.664463  -0.874866  0  2.101964  0
O  O52  1  0.15914063  0.96523242  0.31871230  1  0  -0.937762  0  1.879849  0  0  -0.89488  0  2.072677  0  0  -0.912112  0  2.037454  0  0  -0.664489  -0.874927  0  2.101903  0
