# generated using pymatgen
data_Zn2H11C36I5N2(O2F)4
_symmetry_space_group_name_H-M   'P 1'
_cell_length_a   9.68477995
_cell_length_b   10.76872403
_cell_length_c   13.30790600
_cell_angle_alpha   93.97320641
_cell_angle_beta   66.44565892
_cell_angle_gamma   88.45886572
_symmetry_Int_Tables_number   1
_chemical_formula_structural   Zn2H11C36I5N2(O2F)4
_chemical_formula_sum   'Zn2 H11 C36 I5 N2 O8 F4'
_cell_volume   1266.95766477
_cell_formula_units_Z   1
loop_
 _symmetry_equiv_pos_site_id
 _symmetry_equiv_pos_as_xyz
  1  'x, y, z'
loop_
 _atom_site_type_symbol
 _atom_site_label
 _atom_site_symmetry_multiplicity
 _atom_site_fract_x
 _atom_site_fract_y
 _atom_site_fract_z
 _atom_site_occupancy
 _atom_site_pbe_bader_charge
 _atom_site_pbe_bader_spin_density
 _atom_site_pbe_cm5_charge
 _atom_site_pbe_ddec_charge
 _atom_site_pbe_ddec_spin_density
 _atom_site_pbe_ddec_sum_bond_order
 _atom_site_pbe_magmom
Zn  Zn0  1  0.66988680  0.50690371  0.45439807  1  1.297687  0  0.680683  0.85977  0  2.358886  0
Zn  Zn1  1  0.34771437  0.52235471  0.51378533  1  1.296156  0  0.682375  0.853557  0  2.287794  0
H  H2  1  0.14862293  0.30895713  0.81133441  1  0.095503  0  0.098847  0.109154  0  1.032023  0
H  H3  1  0.91170451  0.43476302  0.92326979  1  0.063732  0  0.103539  0.119348  0  1.005522  0
H  H4  1  0.29300544  0.91458691  0.54707021  1  0.109214  0  0.105658  0.113093  0  1.015794  0
H  H5  1  0.83539283  0.20088239  0.47795861  1  0.164238  0  0.101602  0.139631  0  1.072326  0
H  H6  1  0.32608689  0.14035241  0.51536426  1  0.132537  0  0.106818  0.119763  0  1.006268  0
H  H7  1  0.05923402  0.40611660  0.60384591  1  0.142314  0  0.120869  0.101044  0  1.017221  0
H  H8  1  0.29895657  0.74279329  0.42644389  1  0.141084  0  0.116764  0.13578  0  1.018473  0
H  H9  1  0.25737750  0.88305644  0.29912338  1  0.120326  0  0.114739  0.128258  0  0.965194  0
H  H10  1  0.82134788  0.39527060  0.56782947  1  0.144606  0  0.116014  0.096814  0  1.041582  0
H  H11  1  0.55214960  0.46024645  0.80766700  1  0.099527  0  0.09124  0.102575  0  1.053639  0
H  H12  1  0.81666916  0.50582059  0.12156191  1  0.10434  0  0.109444  0.121642  0  0.995193  0
C  C13  1  0.49636167  0.74770169  0.54343511  1  1.594681  0  0.211709  0.588448  0  4.192461  0
C  C14  1  0.59273030  0.44911493  0.16063221  1  0.0123  0  -0.008349  -0.049115  0  3.863329  0
C  C15  1  0.73179311  0.88552934  0.60835329  1  -0.175279  0  -0.059507  -0.098598  0  3.912663  0
C  C16  1  0.56276993  0.48485065  0.27948501  1  1.583588  0  0.218397  0.605498  0  4.152391  0
C  C17  1  0.86820936  0.93507440  0.59230474  1  0.54272  0  0.074627  0.129397  0  4.136032  0
C  C18  1  0.90698447  0.04572373  0.53963008  1  0.397981  0  0.077569  0.183843  0  4.130916  0
C  C19  1  0.80660307  0.11202726  0.51231090  1  0.096176  0  -0.114625  -0.265249  0  4.024412  0
C  C20  1  0.66376209  0.06565380  0.52858719  1  -0.038515  0  0.002871  0.091144  0  3.919217  0
C  C21  1  0.63229211  0.94287954  0.56674377  1  0.093846  0  -0.0028  0.043426  0  3.918158  0
C  C22  1  0.50261921  0.88612078  0.56203381  1  -0.063919  0  -0.012882  -0.061581  0  3.913636  0
C  C23  1  0.39301894  0.95855959  0.54710972  1  -0.041394  0  -0.079039  -0.082848  0  3.965668  0
C  C24  1  0.53557109  0.38676935  0.99967806  1  0.072054  0  -0.002719  0.020779  0  3.94009  0
C  C25  1  0.41363949  0.08378182  0.52563339  1  -0.020477  0  -0.07914  -0.080418  0  3.973483  0
C  C26  1  0.54930304  0.13625420  0.50939045  1  -0.023914  0  -0.008724  -0.067065  0  3.872474  0
C  C27  1  0.20740246  0.72999621  0.39996366  1  0.041094  0  -0.079286  -0.134591  0  3.931808  0
C  C28  1  0.56162739  0.26911523  0.47871902  1  1.575189  0  0.212245  0.589861  0  4.138395  0
C  C29  1  0.18419295  0.80680528  0.32918455  1  -0.048141  0  -0.078775  -0.064485  0  3.972352  0
C  C30  1  0.06750577  0.78700606  0.29206868  1  -0.129902  0  -0.059321  -0.05903  0  3.952254  0
C  C31  1  0.97157703  0.69243777  0.33109098  1  0.491899  0  0.099232  0.186526  0  4.023749  0
C  C32  1  0.98472778  0.61662127  0.41042509  1  0.491308  0  0.113402  0.066864  0  3.980124  0
C  C33  1  0.11044711  0.63265743  0.44027769  1  0.512546  0  0.12705  0.193478  0  3.947943  0
C  C34  1  0.03656021  0.46846388  0.55035934  1  0.549242  0  0.068464  0.065847  0  3.894147  0
C  C35  1  0.48941228  0.40202879  0.11657626  1  0.007722  0  -0.000954  -0.017131  0  3.938009  0
C  C36  1  0.90655094  0.46049506  0.52825768  1  0.553885  0  0.058351  0.049687  0  3.937126  0
C  C37  1  0.37755530  0.45355495  0.69588761  1  1.587578  0  0.204503  0.587035  0  4.162169  0
C  C38  1  0.18993691  0.28918370  0.95723965  1  -0.233887  0  -0.047176  0.01629  0  3.822076  0
C  C39  1  0.34715709  0.40075921  0.80352203  1  -0.008995  0  -0.017823  -0.0039  0  3.961588  0
C  C40  1  0.73926150  0.46869346  0.08770946  1  -0.041278  0  -0.07844  -0.070128  0  3.959034  0
C  C41  1  0.79213194  0.43208341  0.97532355  1  0.069888  0  -0.100619  -0.127187  0  4.051434  0
C  C42  1  0.69216953  0.38733735  0.93279293  1  -0.250644  0  -0.041495  0.015205  0  3.871723  0
C  C43  1  0.42322581  0.36952321  0.95414824  1  -0.005353  0  -0.008715  0.039705  0  3.957255  0
C  C44  1  0.27994460  0.32174501  0.01738669  1  0.01128  0  -0.010082  0.043528  0  3.968396  0
C  C45  1  0.24271702  0.31923884  0.13340281  1  -0.169473  0  -0.07188  -0.141819  0  3.931191  0
C  C46  1  0.34213076  0.35966091  0.17784787  1  0.541794  0  0.092458  0.210759  0  4.030819  0
C  C47  1  0.45072759  0.41202254  0.85067375  1  -0.048892  0  -0.090126  -0.140841  0  3.980416  0
C  C48  1  0.22025822  0.33161597  0.85488020  1  0.013208  0  -0.093144  -0.129419  0  3.97744  0
I  I49  1  0.66660682  0.74598049  0.71831455  1  0.17944  0  0.106854  0.049015  0  1.571025  0
I  I50  1  0.04402169  0.90303664  0.17947587  1  0.189187  0  0.081722  -0.010434  0  1.561427  0
I  I51  1  0.02540840  0.28947953  0.24924613  1  0.206709  0  0.118962  0.057604  0  1.886091  0
I  I52  1  0.02417022  0.15406053  0.99753027  1  0.122324  0  0.081485  -0.008795  0  1.644151  0
I  I53  1  0.78970900  0.28323511  0.77725097  1  0.122407  0  0.123812  0.005081  0  1.632346  0
N  N54  1  0.13610451  0.55214878  0.50673681  1  -1.21296  0  -0.288441  -0.188338  0  3.439741  0
N  N55  1  0.88334569  0.52998410  0.45743101  1  -1.213783  0  -0.303343  -0.215705  0  3.545085  0
O  O56  1  0.62410683  0.68829321  0.49293051  1  -1.162688  0  -0.318299  -0.556154  0  2.484631  0
O  O57  1  0.36891525  0.70198058  0.56625640  1  -1.16408  0  -0.309006  -0.532926  0  2.339601  0
O  O58  1  0.67754151  0.47152330  0.30246146  1  -1.1478  0  -0.314129  -0.546609  0  2.424301  0
O  O59  1  0.43402971  0.53133056  0.34638607  1  -1.169801  0  -0.314919  -0.559532  0  2.412289  0
O  O60  1  0.68543807  0.32172516  0.46375403  1  -1.169662  0  -0.320046  -0.529935  0  2.386071  0
O  O61  1  0.44836581  0.32308375  0.47214264  1  -1.165268  0  -0.307721  -0.547981  0  2.27975  0
O  O62  1  0.50937311  0.48662529  0.64125031  1  -1.184298  0  -0.317407  -0.577118  0  2.299061  0
O  O63  1  0.26714418  0.46030074  0.66570732  1  -1.156396  0  -0.325192  -0.537388  0  2.26523  0
F  F64  1  0.96457914  0.88416546  0.63099647  1  -0.632775  0  -0.093252  -0.11339  0  1.41889  0
F  F65  1  0.04467506  0.08971699  0.52251079  1  -0.628543  0  -0.100154  -0.128967  0  1.349752  0
F  F66  1  0.86413641  0.66983618  0.29308020  1  -0.624676  0  -0.076358  -0.087682  0  1.465595  0
F  F67  1  0.30042673  0.35445023  0.28734904  1  -0.638516  0  -0.088419  -0.105092  0  1.476406  0
