# generated using pymatgen
data_LiH13C9N2
_symmetry_space_group_name_H-M   'P 1'
_cell_length_a   10.68865630
_cell_length_b   16.46743857
_cell_length_c   16.79724081
_cell_angle_alpha   64.87040925
_cell_angle_beta   81.07121958
_cell_angle_gamma   84.53287743
_symmetry_Int_Tables_number   1
_chemical_formula_structural   LiH13C9N2
_chemical_formula_sum   'Li10 H130 C90 N20'
_cell_volume   2642.86102072
_cell_formula_units_Z   10
loop_
 _symmetry_equiv_pos_site_id
 _symmetry_equiv_pos_as_xyz
  1  'x, y, z'
loop_
 _atom_site_type_symbol
 _atom_site_label
 _atom_site_symmetry_multiplicity
 _atom_site_fract_x
 _atom_site_fract_y
 _atom_site_fract_z
 _atom_site_occupancy
 _atom_site_pbe_bader_charge
 _atom_site_pbe_bader_spin_density
 _atom_site_pbe_cm5_charge
 _atom_site_pbe_ddec_charge
 _atom_site_pbe_ddec_spin_density
 _atom_site_pbe_ddec_sum_bond_order
 _atom_site_pbe_magmom
Li  Li0  1  0.32466926  0.37609237  0.11391175  1  0.845839  0  0.534455  0.744804  0  0.579432  0
Li  Li1  1  0.67533258  0.62391551  0.88608494  1  0.845803  0  0.534435  0.744796  0  0.579462  0
Li  Li2  1  0.10527349  0.33461362  0.14273587  1  0.843148  0  0.511691  0.727013  0  0.623141  0
Li  Li3  1  0.89472710  0.66537347  0.85727083  1  0.843089  0  0.511728  0.727074  0  0.623082  0
Li  Li4  1  0.03715399  0.34987162  0.28714697  1  0.844441  0  0.50697  0.748237  0  0.611841  0
Li  Li5  1  0.96284256  0.65012422  0.71285709  1  0.844423  0  0.507035  0.748364  0  0.611711  0
Li  Li6  1  0.04462366  0.18967054  0.39800545  1  0.848884  0  0.54317  0.761748  0  0.548168  0
Li  Li7  1  0.95537561  0.81033133  0.60199938  1  0.848907  0  0.543139  0.76177  0  0.548105  0
Li  Li8  1  0.95184444  0.40026559  0.40659416  1  0.846102  0  0.542625  0.749977  0  0.575273  0
Li  Li9  1  0.04815699  0.59972820  0.59341500  1  0.846085  0  0.542702  0.750056  0  0.575178  0
H  H10  1  0.69138681  0.01685080  0.09018579  1  0.044562  0  0.1003  0.112091  0  0.994734  0
H  H11  1  0.30859505  0.98315454  0.90980454  1  0.044898  0  0.100361  0.11211  0  0.994653  0
H  H12  1  0.75282006  0.91380735  0.16679781  1  0.034021  0  0.09707  0.103888  0  1.003818  0
H  H13  1  0.24715807  0.08619870  0.83319679  1  0.033837  0  0.097052  0.103838  0  1.003798  0
H  H14  1  0.71747829  0.92221059  0.06300458  1  0.015368  0  0.083479  0.081412  0  1.028908  0
H  H15  1  0.28250271  0.07779476  0.93699060  1  0.015377  0  0.083485  0.081412  0  1.028859  0
H  H16  1  0.82456580  0.10876538  0.96025465  1  0.031063  0  0.103112  0.08139  0  0.964509  0
H  H17  1  0.17541340  0.89123933  0.03974576  1  0.031401  0  0.103202  0.081402  0  0.964474  0
H  H18  1  0.86512013  0.02076808  0.92401920  1  0.025543  0  0.089242  0.052831  0  1.010304  0
H  H19  1  0.13485804  0.97923663  0.07597595  1  0.025657  0  0.089204  0.052762  0  1.010318  0
H  H20  1  0.95182706  0.87478896  0.03254804  1  0.017986  0  0.089822  0.057678  0  0.987601  0
H  H21  1  0.04815504  0.12521170  0.96745018  1  0.018109  0  0.089758  0.057534  0  0.987652  0
H  H22  1  0.96945695  0.86803215  0.13932043  1  -0.023358  0  0.10059  0.073515  0  1.014273  0
H  H23  1  0.03052031  0.13197257  0.86067720  1  -0.02347  0  0.100653  0.07365  0  1.013917  0
H  H24  1  0.54934268  0.27291592  0.12739941  1  0.064714  0  0.109158  0.120341  0  1.005702  0
H  H25  1  0.45065822  0.72709264  0.87259888  1  0.064777  0  0.109145  0.12028  0  1.00564  0
H  H26  1  0.55674801  0.32704262  0.19860467  1  0.030164  0  0.101463  0.10368  0  1.033818  0
H  H27  1  0.44325484  0.67296189  0.80139094  1  0.030168  0  0.101442  0.103644  0  1.033807  0
H  H28  1  0.68139922  0.33933685  0.11088661  1  0.052771  0  0.092566  0.097805  0  1.034333  0
H  H29  1  0.31859711  0.66066504  0.88911317  1  0.052646  0  0.092549  0.097791  0  1.03423  0
H  H30  1  0.51170505  0.36431101  0.97468098  1  0.053816  0  0.117609  0.098276  0  0.966821  0
H  H31  1  0.48829389  0.63569689  0.02531304  1  0.053544  0  0.117645  0.098278  0  0.966824  0
H  H32  1  0.64059239  0.43393502  0.95727997  1  0.010771  0  0.098666  0.055821  0  1.019448  0
H  H33  1  0.35940563  0.56607356  0.04271624  1  0.010701  0  0.098669  0.055831  0  1.019424  0
H  H34  1  0.63872901  0.50695590  0.06335117  1  0.005955  0  0.103706  0.063219  0  1.017203  0
H  H35  1  0.36127079  0.49305467  0.93664104  1  0.005971  0  0.103728  0.063257  0  1.017243  0
H  H36  1  0.50990376  0.48441759  0.14960419  1  0.067057  0  0.110841  0.091795  0  1.013484  0
H  H37  1  0.49009520  0.51559165  0.85039283  1  0.066956  0  0.110869  0.091704  0  1.013607  0
H  H38  1  0.88545216  0.28461245  0.09593371  1  0.066682  0  0.105615  0.114479  0  1.03651  0
H  H39  1  0.11453327  0.71537342  0.90407271  1  0.066827  0  0.105575  0.114494  0  1.036572  0
H  H40  1  0.02057386  0.28071575  0.02089392  1  0.038991  0  0.109113  0.118828  0  1.003492  0
H  H41  1  0.97941816  0.71927409  0.97911431  1  0.039106  0  0.109117  0.118858  0  1.003517  0
H  H42  1  0.88275761  0.34532787  0.97860098  1  0.000903  0  0.087007  0.086619  0  1.006376  0
H  H43  1  0.11724373  0.65466659  0.02140375  1  0.000739  0  0.086976  0.086651  0  1.006392  0
H  H44  1  0.83666151  0.42245977  0.12010739  1  0.060133  0  0.117476  0.094677  0  0.979545  0
H  H45  1  0.16333179  0.57752538  0.87991398  1  0.060399  0  0.117501  0.094813  0  0.979352  0
H  H46  1  0.82045027  0.47463406  0.00463883  1  0.006507  0  0.099608  0.041402  0  1.041327  0
H  H47  1  0.17953457  0.52534914  0.99538424  1  0.005692  0  0.099637  0.041493  0  1.041274  0
H  H48  1  0.00945611  0.46972372  0.89699355  1  0.043667  0  0.105178  0.067359  0  1.036574  0
H  H49  1  0.99053236  0.53026348  0.10302569  1  0.04332  0  0.105187  0.067482  0  1.036353  0
H  H50  1  0.14832159  0.41323506  0.93917378  1  0.069344  0  0.112255  0.088805  0  1.018418  0
H  H51  1  0.85166589  0.58675282  0.06084349  1  0.06927  0  0.112194  0.088694  0  1.018501  0
H  H52  1  0.28186643  0.10943547  0.40306685  1  0.039554  0  0.104866  0.103374  0  1.027259  0
H  H53  1  0.71812155  0.89055641  0.59693024  1  0.039462  0  0.10485  0.103355  0  1.027329  0
H  H54  1  0.29004943  0.01336876  0.50625939  1  0.022885  0  0.092575  0.099251  0  0.995744  0
H  H55  1  0.70993667  0.98662314  0.49373908  1  0.023039  0  0.092543  0.099268  0  0.995759  0
H  H56  1  0.24290881  0.12059468  0.50585112  1  0.033096  0  0.105366  0.113029  0  1.011028  0
H  H57  1  0.75707920  0.87939720  0.49414717  1  0.032725  0  0.105398  0.113071  0  1.01108  0
H  H58  1  0.14912427  0.93903662  0.46085548  1  0.018114  0  0.096306  0.054264  0  1.012767  0
H  H59  1  0.85086726  0.06096261  0.53913698  1  0.01781  0  0.096331  0.054296  0  1.012563  0
H  H60  1  0.13528081  0.03471910  0.35945193  1  0.076381  0  0.112155  0.091663  0  0.99094  0
H  H61  1  0.86470222  0.96528020  0.64054318  1  0.076237  0  0.112139  0.091632  0  0.990927  0
H  H62  1  0.04763325  0.06242386  0.59920430  1  0.099491  0  0.106093  0.088325  0  1.028347  0
H  H63  1  0.95235846  0.93757067  0.40079248  1  0.099418  0  0.106132  0.088387  0  1.028348  0
H  H64  1  0.09712132  0.95564185  0.60177122  1  0.041931  0  0.099033  0.063239  0  1.046029  0
H  H65  1  0.90286757  0.04435271  0.39822705  1  0.04168  0  0.099108  0.063328  0  1.046089  0
H  H66  1  0.71684739  0.48077639  0.43450055  1  0.072087  0  0.106519  0.11488  0  1.00526  0
H  H67  1  0.28314939  0.51921611  0.56551263  1  0.072064  0  0.106476  0.114803  0  1.005264  0
H  H68  1  0.70016662  0.48966350  0.53845142  1  0.050749  0  0.09018  0.098374  0  1.032943  0
H  H69  1  0.29984045  0.51033294  0.46155843  1  0.050838  0  0.090189  0.09841  0  1.032937  0
H  H70  1  0.73130866  0.38239192  0.53491563  1  0.022224  0  0.103424  0.108254  0  1.008111  0
H  H71  1  0.26869096  0.61760190  0.46509907  1  0.022478  0  0.103454  0.108253  0  1.008081  0
H  H72  1  0.92153900  0.35360782  0.60504574  1  0.069624  0  0.108102  0.088499  0  1.01563  0
H  H73  1  0.07846338  0.64638329  0.39495968  1  0.069869  0  0.108162  0.088584  0  1.015708  0
H  H74  1  0.89329116  0.45706162  0.61598590  1  0.020553  0  0.100043  0.056338  0  1.014326  0
H  H75  1  0.10671321  0.54292678  0.38402163  1  0.020651  0  0.100028  0.056363  0  1.014299  0
H  H76  1  0.86985271  0.59585654  0.48434856  1  0.028211  0  0.101632  0.06518  0  1.009753  0
H  H77  1  0.13014761  0.40413726  0.51565120  1  0.028103  0  0.101598  0.065176  0  1.009636  0
H  H78  1  0.87944188  0.59196506  0.37899130  1  0.101589  0  0.110256  0.093039  0  1.003101  0
H  H79  1  0.12056333  0.40802400  0.62101111  1  0.101275  0  0.110295  0.093039  0  1.003192  0
H  H80  1  0.24380731  0.29758412  0.02543454  1  0.356319  0  0.260508  0.262193  0  1.049803  0
H  H81  1  0.75619152  0.70242645  0.97455598  1  0.356489  0  0.260546  0.262166  0  1.049934  0
H  H82  1  0.27383703  0.16055113  0.02023548  1  0.045822  0  0.084352  0.082149  0  1.07072  0
H  H83  1  0.72616442  0.83946278  0.97974683  1  0.046208  0  0.084385  0.082154  0  1.070871  0
H  H84  1  0.35211706  0.00349599  0.09068682  1  0.051291  0  0.090339  0.082323  0  1.02245  0
H  H85  1  0.64788157  0.99651257  0.90929029  1  0.051628  0  0.090375  0.082334  0  1.022553  0
H  H86  1  0.42663541  0.94287072  0.24002170  1  0.006382  0  0.086432  0.085412  0  1.024209  0
H  H87  1  0.57337076  0.05713508  0.75994862  1  0.006226  0  0.086438  0.085471  0  1.024005  0
H  H88  1  0.42069447  0.04491443  0.31647566  1  0.03643  0  0.092007  0.084008  0  1.012001  0
H  H89  1  0.57932991  0.95508653  0.68349832  1  0.035915  0  0.091954  0.083984  0  1.011932  0
H  H90  1  0.34630425  0.20227693  0.24543662  1  -0.01372  0  0.095197  0.075096  0  1.07547  0
H  H91  1  0.65371180  0.79772478  0.75455103  1  -0.014382  0  0.095259  0.075231  0  1.075636  0
H  H92  1  0.14489751  0.48338547  0.14937905  1  0.372874  0  0.266479  0.257607  0  1.067974  0
H  H93  1  0.85510978  0.51660426  0.85063417  1  0.371983  0  0.266548  0.257749  0  1.067677  0
H  H94  1  0.31348575  0.28872927  0.29771057  1  0.035463  0  0.110836  0.094698  0  1.044587  0
H  H95  1  0.68653172  0.71127381  0.70230613  1  0.035436  0  0.110848  0.09472  0  1.044538  0
H  H96  1  0.46108172  0.30147860  0.39089354  1  0.041923  0  0.096466  0.092718  0  0.997078  0
H  H97  1  0.53892607  0.69853126  0.60912075  1  0.042783  0  0.096441  0.09276  0  0.997102  0
H  H98  1  0.49703174  0.45084073  0.38794204  1  0.031874  0  0.094203  0.095694  0  1.01994  0
H  H99  1  0.50298130  0.54917847  0.61205887  1  0.032279  0  0.094097  0.095522  0  1.019945  0
H  H100  1  0.38196435  0.58671273  0.28870448  1  0.075293  0  0.100444  0.096696  0  0.990133  0
H  H101  1  0.61804020  0.41330049  0.71129148  1  0.075632  0  0.100454  0.096692  0  0.990068  0
H  H102  1  0.23613597  0.57471702  0.19416659  1  0.036329  0  0.097089  0.101709  0  1.01205  0
H  H103  1  0.76388030  0.42528471  0.80583353  1  0.036222  0  0.097098  0.101623  0  1.012121  0
H  H104  1  0.12197698  0.20634650  0.24930326  1  0.378229  0  0.267056  0.255611  0  1.078292  0
H  H105  1  0.87802476  0.79363656  0.75070975  1  0.378529  0  0.26698  0.255427  0  1.078447  0
H  H106  1  0.05598695  0.11755573  0.19175826  1  0.063215  0  0.097468  0.10408  0  1.024884  0
H  H107  1  0.94400983  0.88243072  0.80824672  1  0.062708  0  0.097477  0.104112  0  1.024863  0
H  H108  1  0.87874869  0.04211949  0.17684367  1  0.087723  0  0.089917  0.081982  0  1.063787  0
H  H109  1  0.12124854  0.95787768  0.82314667  1  0.087804  0  0.089992  0.082067  0  1.063803  0
H  H110  1  0.65601497  0.06756171  0.23821292  1  0.05216  0  0.084989  0.084221  0  1.057397  0
H  H111  1  0.34398036  0.93245894  0.76175353  1  0.052149  0  0.085014  0.084276  0  1.057245  0
H  H112  1  0.61747923  0.17157023  0.31314536  1  0.029698  0  0.08872  0.080199  0  1.015057  0
H  H113  1  0.38252005  0.82844636  0.68682475  1  0.03034  0  0.088692  0.080227  0  1.014822  0
H  H114  1  0.79495817  0.25017825  0.32523023  1  -0.012707  0  0.097678  0.08498  0  1.053899  0
H  H115  1  0.20504486  0.74981888  0.67476606  1  -0.012876  0  0.097682  0.084939  0  1.054067  0
H  H116  1  0.16640276  0.30589414  0.42136215  1  0.362626  0  0.26762  0.270999  0  1.055985  0
H  H117  1  0.83360139  0.69410232  0.57864324  1  0.36269  0  0.267637  0.271047  0  1.055908  0
H  H118  1  0.19820745  0.23974881  0.56971581  1  0.018653  0  0.097986  0.101108  0  1.000629  0
H  H119  1  0.80180042  0.76025164  0.43029049  1  0.018647  0  0.09799  0.101105  0  1.000426  0
H  H120  1  0.10658127  0.15761547  0.72503881  1  0.037575  0  0.095905  0.087473  0  1.028051  0
H  H121  1  0.89343104  0.84239972  0.27496980  1  0.037875  0  0.095834  0.087341  0  1.028058  0
H  H122  1  0.87765998  0.11744070  0.76327166  1  0.065239  0  0.093549  0.095615  0  1.035527  0
H  H123  1  0.12235051  0.88257383  0.23674099  1  0.065793  0  0.093635  0.095657  0  1.035401  0
H  H124  1  0.74359125  0.16305544  0.64161979  1  0.045489  0  0.096038  0.088916  0  1.00844  0
H  H125  1  0.25641466  0.83695243  0.35839315  1  0.045115  0  0.096107  0.088997  0  1.008321  0
H  H126  1  0.83431273  0.24546163  0.48497988  1  -0.008366  0  0.109582  0.090229  0  1.031645  0
H  H127  1  0.16569220  0.75454624  0.51503137  1  -0.008733  0  0.109549  0.090122  0  1.031654  0
H  H128  1  0.80341274  0.38372403  0.30704248  1  0.338817  0  0.262997  0.257832  0  1.048079  0
H  H129  1  0.19657710  0.61627388  0.69296024  1  0.338921  0  0.262998  0.257835  0  1.048036  0
H  H130  1  0.64966985  0.48692101  0.24307159  1  0.026084  0  0.085439  0.088018  0  1.063391  0
H  H131  1  0.35032328  0.51309163  0.75692165  1  0.025911  0  0.085469  0.088002  0  1.063528  0
H  H132  1  0.58835304  0.64636034  0.16254536  1  0.033248  0  0.090484  0.085921  0  1.011715  0
H  H133  1  0.41166834  0.35365274  0.83743638  1  0.032852  0  0.090497  0.085822  0  1.011662  0
H  H134  1  0.74241705  0.76661756  0.12581132  1  0.022905  0  0.083917  0.080026  0  1.073214  0
H  H135  1  0.25761304  0.23338874  0.87417114  1  0.022917  0  0.083873  0.079918  0  1.07332  0
H  H136  1  0.95989432  0.72188378  0.17065533  1  0.02024  0  0.090129  0.082951  0  1.030543  0
H  H137  1  0.04012411  0.27810854  0.82934730  1  0.020157  0  0.090136  0.083029  0  1.030476  0
H  H138  1  0.02158330  0.56252473  0.25061129  1  0.017183  0  0.096949  0.086381  0  1.050564  0
H  H139  1  0.97841719  0.43746975  0.74939888  1  0.017233  0  0.096972  0.08649  0  1.0505  0
C  C140  1  0.75539052  0.95880867  0.09598576  1  0.266433  0  -0.142249  -0.264324  0  3.990278  0
C  C141  1  0.24458381  0.04119539  0.90400650  1  0.266551  0  -0.142252  -0.264302  0  3.990473  0
C  C142  1  0.89167531  0.05215045  0.96584660  1  0.291401  0  -0.066809  -0.077116  0  3.960456  0
C  C143  1  0.10830860  0.94785354  0.03415063  1  0.29106  0  -0.066983  -0.077021  0  3.960117  0
C  C144  1  0.97444530  0.91370234  0.06860564  1  0.357346  0  -0.06753  -0.080247  0  3.955837  0
C  C145  1  0.02553486  0.08629967  0.93139162  1  0.357511  0  -0.067661  -0.080277  0  3.955667  0
C  C146  1  0.57812142  0.33385719  0.13008990  1  0.229182  0  -0.14697  -0.278135  0  3.950855  0
C  C147  1  0.42188539  0.66614327  0.86991056  1  0.229181  0  -0.146935  -0.27804  0  3.950861  0
C  C148  1  0.53744352  0.42508334  0.97932634  1  0.29738  0  -0.061942  -0.085201  0  3.946019  0
C  C149  1  0.46255258  0.57492525  0.02066887  1  0.297673  0  -0.061945  -0.085117  0  3.94612  0
C  C150  1  0.53605102  0.49424540  0.08038212  1  0.280519  0  -0.062346  -0.083275  0  3.928599  0
C  C151  1  0.46394510  0.50576252  0.91961337  1  0.281011  0  -0.062318  -0.083121  0  3.928609  0
C  C152  1  0.94236937  0.32398909  0.03299318  1  0.254329  0  -0.14251  -0.274257  0  3.946592  0
C  C153  1  0.05762272  0.67599941  0.96701740  1  0.254527  0  -0.1427  -0.27475  0  3.946975  0
C  C154  1  0.88784944  0.45919595  0.05374170  1  0.251495  0  -0.056787  -0.076419  0  3.933448  0
C  C155  1  0.11214005  0.54078923  0.94627886  1  0.252023  0  -0.056918  -0.076772  0  3.93349  0
C  C156  1  0.06684274  0.45420195  0.95127067  1  0.261877  0  -0.061467  -0.082641  0  3.911502  0
C  C157  1  0.93314479  0.54578324  0.04874593  1  0.262216  0  -0.061351  -0.082568  0  3.910921  0
C  C158  1  0.23704961  0.07704129  0.47203265  1  0.251219  0  -0.142004  -0.269392  0  3.962106  0
C  C159  1  0.76293744  0.92295060  0.52796573  1  0.251388  0  -0.14203  -0.269507  0  3.962211  0
C  C160  1  0.09370111  0.00232224  0.42923574  1  0.247815  0  -0.064651  -0.075812  0  3.924379  0
C  C161  1  0.90628763  0.99767567  0.57075875  1  0.247776  0  -0.064601  -0.075642  0  3.924004  0
C  C162  1  0.04332036  0.01819645  0.56606599  1  0.240879  0  -0.069509  -0.083793  0  3.905637  0
C  C163  1  0.95666658  0.98179879  0.43393040  1  0.240926  0  -0.069576  -0.083813  0  3.905457  0
C  C164  1  0.75128893  0.45416682  0.49954901  1  0.22783  0  -0.14443  -0.273109  0  3.953817  0
C  C165  1  0.24870965  0.54582767  0.50046135  1  0.227447  0  -0.144451  -0.273015  0  3.95379  0
C  C166  1  0.94078466  0.42553686  0.57202260  1  0.258699  0  -0.063531  -0.081613  0  3.92282  0
C  C167  1  0.05921492  0.57445293  0.42798367  1  0.258437  0  -0.06365  -0.081844  0  3.923299  0
C  C168  1  0.91724342  0.56161027  0.44287886  1  0.205219  0  -0.065706  -0.087634  0  3.926579  0
C  C169  1  0.08276182  0.43838081  0.55712747  1  0.20543  0  -0.065777  -0.087659  0  3.926516  0
C  C170  1  0.30311209  0.19577722  0.12618902  1  0.429166  0  0.084996  0.346453  0  4.144064  0
C  C171  1  0.69689343  0.80422726  0.87379679  1  0.429429  0  0.084914  0.346272  0  4.144226  0
C  C172  1  0.30696944  0.13541505  0.08512797  1  -0.106084  0  -0.124912  -0.231794  0  3.984251  0
C  C173  1  0.69302550  0.86459622  0.91485851  1  -0.106508  0  -0.12479  -0.231587  0  3.984224  0
C  C174  1  0.35043230  0.04675992  0.12531406  1  -0.093642  0  -0.108825  -0.076311  0  4.111125  0
C  C175  1  0.64956451  0.95324798  0.87466649  1  -0.093632  0  -0.108927  -0.076488  0  4.111131  0
C  C176  1  0.39180601  0.01223430  0.20912386  1  -0.05703  0  -0.134624  -0.161235  0  4.09927  0
C  C177  1  0.60821154  0.98777141  0.79084588  1  -0.05721  0  -0.134559  -0.161082  0  4.098944  0
C  C178  1  0.38818059  0.06961853  0.25143862  1  -0.038772  0  -0.106913  -0.07657  0  4.117305  0
C  C179  1  0.61184183  0.93038581  0.74853655  1  -0.03844  0  -0.106889  -0.076685  0  4.117352  0
C  C180  1  0.34503566  0.15863187  0.21152014  1  -0.071307  0  -0.119503  -0.2455  0  4.003945  0
C  C181  1  0.65498604  0.84136912  0.78846364  1  -0.070799  0  -0.1196  -0.245583  0  4.004232  0
C  C182  1  0.26281146  0.43060876  0.23733441  1  0.38807  0  0.081928  0.308622  0  4.165119  0
C  C183  1  0.73720039  0.56938832  0.76267823  1  0.390217  0  0.081797  0.308393  0  4.165198  0
C  C184  1  0.32952416  0.35451035  0.29477332  1  -0.124049  0  -0.101837  -0.225308  0  3.981401  0
C  C185  1  0.67049233  0.64549206  0.70524078  1  -0.124373  0  -0.101745  -0.225216  0  3.981738  0
C  C186  1  0.41181187  0.36182678  0.34801691  1  -0.061956  0  -0.100867  -0.083374  0  4.097795  0
C  C187  1  0.58820246  0.63818504  0.65199408  1  -0.063064  0  -0.100859  -0.083485  0  4.098108  0
C  C188  1  0.43180350  0.44497110  0.34699232  1  -0.037729  0  -0.12418  -0.157039  0  4.100144  0
C  C189  1  0.56820780  0.55504409  0.65301283  1  -0.038189  0  -0.124091  -0.156803  0  4.099885  0
C  C190  1  0.36716822  0.52100364  0.29104116  1  -0.092612  0  -0.096307  -0.067898  0  4.079543  0
C  C191  1  0.63283934  0.47900688  0.70896038  1  -0.09302  0  -0.096404  -0.068049  0  4.079581  0
C  C192  1  0.28467375  0.51440240  0.23782748  1  -0.093055  0  -0.109645  -0.22413  0  3.98133  0
C  C193  1  0.71533404  0.48560007  0.76217680  1  -0.093432  0  -0.1095  -0.223709  0  3.981127  0
C  C194  1  0.94026888  0.19028743  0.25953022  1  0.408727  0  0.080345  0.323283  0  4.159679  0
C  C195  1  0.05973092  0.80969497  0.74047911  1  0.408398  0  0.080377  0.32334  0  4.159981  0
C  C196  1  0.95965453  0.12943152  0.21872583  1  -0.086417  0  -0.108898  -0.211117  0  3.945245  0
C  C197  1  0.04034728  0.87054819  0.78128620  1  -0.091886  0  -0.108982  -0.211186  0  3.945197  0
C  C198  1  0.85934663  0.08623284  0.21118610  1  -0.099123  0  -0.100606  -0.059106  0  4.041036  0
C  C199  1  0.14065541  0.91376362  0.78880700  1  -0.093118  0  -0.100707  -0.059212  0  4.041004  0
C  C200  1  0.73490151  0.10059581  0.24491579  1  -0.07294  0  -0.129543  -0.154307  0  4.066457  0
C  C201  1  0.26509790  0.89941541  0.75505476  1  -0.073101  0  -0.129443  -0.15424  0  4.06653  0
C  C202  1  0.71368163  0.15958272  0.28616645  1  -0.048484  0  -0.106885  -0.077719  0  4.116168  0
C  C203  1  0.28631603  0.84042718  0.71381079  1  -0.049671  0  -0.106918  -0.077898  0  4.116107  0
C  C204  1  0.81356512  0.20415185  0.29294196  1  -0.122626  0  -0.115611  -0.246541  0  4.009016  0
C  C205  1  0.18643240  0.79583996  0.70705773  1  -0.121657  0  -0.115709  -0.246485  0  4.008973  0
C  C206  1  0.02441853  0.24954524  0.51406187  1  0.384997  0  0.064166  0.284124  0  4.212184  0
C  C207  1  0.97559161  0.75043977  0.48594528  1  0.384514  0  0.064193  0.284217  0  4.212082  0
C  C208  1  0.09816035  0.22321526  0.58523449  1  -0.073448  0  -0.108164  -0.205515  0  3.975143  0
C  C209  1  0.90185344  0.77677508  0.41477183  1  -0.073115  0  -0.10809  -0.205402  0  3.97487  0
C  C210  1  0.04578642  0.17742090  0.67287759  1  -0.080259  0  -0.094686  -0.0642  0  4.060266  0
C  C211  1  0.95422231  0.82258492  0.32713055  1  -0.080375  0  -0.094709  -0.064149  0  4.060407  0
C  C212  1  0.91771667  0.15538119  0.69470854  1  -0.072601  0  -0.120134  -0.147858  0  4.05222  0
C  C213  1  0.08228812  0.84463137  0.30530077  1  -0.073493  0  -0.120283  -0.147904  0  4.052233  0
C  C214  1  0.84299912  0.18088279  0.62609290  1  -0.040387  0  -0.093884  -0.060344  0  4.078098  0
C  C215  1  0.15700870  0.81912035  0.37391407  1  -0.039379  0  -0.094002  -0.060568  0  4.078061  0
C  C216  1  0.89435346  0.22690602  0.53778496  1  -0.10231  0  -0.111302  -0.257198  0  4.016682  0
C  C217  1  0.10565559  0.77308436  0.46222125  1  -0.10243  0  -0.111115  -0.256907  0  4.016655  0
C  C218  1  0.84063182  0.51087865  0.25380237  1  0.444374  0  0.083669  0.338252  0  4.1594  0
C  C219  1  0.15936467  0.48912391  0.74620723  1  0.443335  0  0.083754  0.338409  0  4.15929  0
C  C220  1  0.71811843  0.53853036  0.22677839  1  -0.100107  0  -0.125853  -0.236562  0  3.985168  0
C  C221  1  0.28188349  0.46147819  0.77322396  1  -0.099617  0  -0.125907  -0.236606  0  3.985373  0
C  C222  1  0.68384874  0.62858268  0.18155399  1  -0.072082  0  -0.109357  -0.077654  0  4.103812  0
C  C223  1  0.31615689  0.37142382  0.81844109  1  -0.071845  0  -0.109361  -0.077582  0  4.103871  0
C  C224  1  0.76975045  0.69615489  0.16042216  1  -0.029595  0  -0.138271  -0.176228  0  4.109157  0
C  C225  1  0.23026751  0.30384882  0.83956861  1  -0.029245  0  -0.138265  -0.175948  0  4.109236  0
C  C226  1  0.89108213  0.67065991  0.18635149  1  -0.088012  0  -0.107615  -0.077041  0  4.099025  0
C  C227  1  0.10892844  0.32934186  0.81364802  1  -0.087917  0  -0.107615  -0.077314  0  4.099254  0
C  C228  1  0.92598386  0.58081022  0.23180265  1  -0.075611  0  -0.115374  -0.229049  0  3.980868  0
C  C229  1  0.07401643  0.41918962  0.76820351  1  -0.075062  0  -0.115416  -0.229143  0  3.980966  0
N  N230  1  0.88379065  0.98839032  0.05876342  1  -1.040335  0  -0.348639  -0.101553  0  3.511808  0
N  N231  1  0.11619231  0.01161233  0.94123149  1  -1.040807  0  -0.348577  -0.101503  0  3.511905  0
N  N232  1  0.50770582  0.41251446  0.07230118  1  -1.099433  0  -0.440459  -0.191739  0  3.558618  0
N  N233  1  0.49229329  0.58748941  0.92769688  1  -1.099248  0  -0.440548  -0.191933  0  3.559005  0
N  N234  1  0.99314643  0.40180660  0.03718263  1  -1.068052  0  -0.405351  -0.168946  0  3.504709  0
N  N235  1  0.00684206  0.59817926  0.96283598  1  -1.067817  0  -0.405113  -0.168554  0  3.504089  0
N  N236  1  0.10342950  0.06187624  0.47324922  1  -1.084843  0  -0.438764  -0.201082  0  3.535965  0
N  N237  1  0.89655844  0.93811900  0.52674946  1  -1.08435  0  -0.438792  -0.201073  0  3.535866  0
N  N238  1  0.88887041  0.46538466  0.48657572  1  -1.068767  0  -0.433018  -0.192435  0  3.538525  0
N  N239  1  0.11113109  0.53460511  0.51343214  1  -1.068674  0  -0.432868  -0.192444  0  3.538807  0
N  N240  1  0.26126417  0.28378173  0.08827835  1  -1.385245  0  -0.791877  -0.971964  0  3.137057  0
N  N241  1  0.73874796  0.71622672  0.91171107  1  -1.385225  0  -0.791918  -0.971892  0  3.137126  0
N  N242  1  0.18400162  0.42126775  0.18404668  1  -1.40692  0  -0.790939  -1.006227  0  3.195206  0
N  N243  1  0.81601331  0.57872326  0.81597115  1  -1.406922  0  -0.791028  -1.006435  0  3.195243  0
N  N244  1  0.03878127  0.23447250  0.26784642  1  -1.426236  0  -0.841485  -1.044676  0  3.178926  0
N  N245  1  0.96121755  0.76550991  0.73216123  1  -1.426475  0  -0.841353  -1.044559  0  3.179073  0
N  N246  1  0.07257608  0.29432127  0.42576178  1  -1.37694  0  -0.826807  -1.03538  0  3.211873  0
N  N247  1  0.92743015  0.70566846  0.57424500  1  -1.376792  0  -0.82688  -1.035629  0  3.211941  0
N  N248  1  0.87770528  0.42286079  0.29857638  1  -1.376054  0  -0.785572  -0.976515  0  3.158013  0
N  N249  1  0.12228358  0.57714048  0.70142920  1  -1.376238  0  -0.785661  -0.97665  0  3.15814  0
