# generated using pymatgen
data_PrH24C24(NO2)6
_symmetry_space_group_name_H-M   'P 1'
_cell_length_a   16.07952138
_cell_length_b   16.07951820
_cell_length_c   16.33355327
_cell_angle_alpha   90.00001832
_cell_angle_beta   89.99998885
_cell_angle_gamma   120.00003327
_symmetry_Int_Tables_number   1
_chemical_formula_structural   PrH24C24(NO2)6
_chemical_formula_sum   'Pr4 H96 C96 N24 O48'
_cell_volume   3657.27239965
_cell_formula_units_Z   4
loop_
 _symmetry_equiv_pos_site_id
 _symmetry_equiv_pos_as_xyz
  1  'x, y, z'
loop_
 _atom_site_type_symbol
 _atom_site_label
 _atom_site_symmetry_multiplicity
 _atom_site_fract_x
 _atom_site_fract_y
 _atom_site_fract_z
 _atom_site_occupancy
 _atom_site_pbe_bader_charge
 _atom_site_pbe_bader_spin_density
 _atom_site_pbe_cm5_charge
 _atom_site_pbe_ddec_charge
 _atom_site_pbe_ddec_spin_density
 _atom_site_pbe_ddec_sum_bond_order
 _atom_site_pbe_magmom
Pr  Pr0  1  0.66666656  0.33333391  0.16202475  1  2.214589  0  1.488889  1.916088  0  2.330279  0
Pr  Pr1  1  0.33333388  0.66666674  0.33797552  1  2.214582  0  1.488917  1.916111  0  2.33026  0
Pr  Pr2  1  0.33333387  0.66666682  0.83797573  1  2.21464  0  1.488914  1.916101  0  2.330277  0
Pr  Pr3  1  0.66666654  0.33333399  0.66202434  1  2.214578  0  1.488909  1.916103  0  2.330281  0
H  H4  1  0.50313418  0.24938501  0.98093229  1  0.130219  0  0.108861  0.123731  0  1.012109  0
H  H5  1  0.75061425  0.25374961  0.98093166  1  0.085035  0  0.108858  0.123725  0  1.012105  0
H  H6  1  0.74625003  0.49686491  0.98093231  1  0.081859  0  0.108861  0.123732  0  1.01208  0
H  H7  1  0.24938583  0.50313465  0.51906776  1  0.130211  0  0.108853  0.123734  0  1.012095  0
H  H8  1  0.49686471  0.74625027  0.51906839  1  0.081856  0  0.108853  0.123717  0  1.012093  0
H  H9  1  0.25374948  0.75061451  0.51906841  1  0.08504  0  0.108856  0.123713  0  1.01212  0
H  H10  1  0.49686500  0.75061448  0.01906757  1  0.130211  0  0.108857  0.123723  0  1.012095  0
H  H11  1  0.24938618  0.74625112  0.01906759  1  0.085036  0  0.10885  0.12371  0  1.012101  0
H  H12  1  0.25374915  0.50313458  0.01906817  1  0.08185  0  0.108853  0.12372  0  1.012083  0
H  H13  1  0.75061433  0.49686511  0.48093210  1  0.130211  0  0.108853  0.123721  0  1.012102  0
H  H14  1  0.50313447  0.25374922  0.48093209  1  0.081856  0  0.108858  0.123719  0  1.012096  0
H  H15  1  0.74625032  0.24938560  0.48093145  1  0.085039  0  0.108879  0.123754  0  1.012063  0
H  H16  1  0.33639946  0.14809170  0.92965074  1  0.068981  0  0.104166  0.101414  0  1.005868  0
H  H17  1  0.85190860  0.18830829  0.92965069  1  0.070385  0  0.104172  0.101456  0  1.005856  0
H  H18  1  0.81169165  0.66360075  0.92965077  1  0.075121  0  0.104175  0.101448  0  1.005863  0
H  H19  1  0.14809155  0.33639964  0.57034991  1  0.068944  0  0.104162  0.101448  0  1.005846  0
H  H20  1  0.66360053  0.81169188  0.57034932  1  0.07514  0  0.104173  0.101423  0  1.00588  0
H  H21  1  0.18830794  0.85190793  0.57034937  1  0.07039  0  0.104174  0.101451  0  1.005853  0
H  H22  1  0.66360097  0.85190903  0.07034974  1  0.068947  0  0.104155  0.101428  0  1.005877  0
H  H23  1  0.14809120  0.81169182  0.07034978  1  0.070375  0  0.104168  0.101451  0  1.005856  0
H  H24  1  0.18830816  0.33639936  0.07034970  1  0.075113  0  0.104173  0.101453  0  1.005846  0
H  H25  1  0.85190887  0.66360110  0.42965056  1  0.068978  0  0.104166  0.101409  0  1.005885  0
H  H26  1  0.33639927  0.18830823  0.42965054  1  0.075116  0  0.104169  0.101433  0  1.005873  0
H  H27  1  0.81169222  0.14809182  0.42965049  1  0.0704  0  0.104163  0.101422  0  1.005888  0
H  H28  1  0.23830027  0.97585005  0.97126460  1  0.094675  0  0.099538  0.101846  0  1.004474  0
H  H29  1  0.02414887  0.26244956  0.97126512  1  0.056651  0  0.099547  0.101875  0  1.004452  0
H  H30  1  0.73755024  0.76169940  0.97126452  1  0.056243  0  0.099533  0.101831  0  1.0045  0
H  H31  1  0.97585065  0.23830057  0.52873548  1  0.094863  0  0.099545  0.101862  0  1.004468  0
H  H32  1  0.76169887  0.73754945  0.52873558  1  0.056255  0  0.099555  0.10188  0  1.004434  0
H  H33  1  0.26244933  0.02414894  0.52873551  1  0.056652  0  0.09956  0.101879  0  1.004429  0
H  H34  1  0.76169927  0.02414908  0.02873526  1  0.094862  0  0.099549  0.101877  0  1.004467  0
H  H35  1  0.97585031  0.73754993  0.02873535  1  0.056661  0  0.099556  0.101905  0  1.004413  0
H  H36  1  0.26245019  0.23830133  0.02873534  1  0.056248  0  0.099556  0.101891  0  1.004458  0
H  H37  1  0.02414952  0.76169918  0.47126500  1  0.094682  0  0.099544  0.101852  0  1.00447  0
H  H38  1  0.23830129  0.26245030  0.47126490  1  0.05625  0  0.099538  0.101844  0  1.004495  0
H  H39  1  0.73754985  0.97585055  0.47126496  1  0.056653  0  0.099557  0.101889  0  1.004438  0
H  H40  1  0.31095032  0.90551461  0.06295580  1  0.136028  0  0.102699  0.09999  0  1.046139  0
H  H41  1  0.09448575  0.40543621  0.06295574  1  0.097859  0  0.102736  0.100036  0  1.046046  0
H  H42  1  0.59456488  0.68905000  0.06295573  1  0.093541  0  0.102708  0.10001  0  1.04608  0
H  H43  1  0.90551475  0.31094999  0.43704387  1  0.136024  0  0.102703  0.09999  0  1.046122  0
H  H44  1  0.68904961  0.59456403  0.43704394  1  0.093564  0  0.102704  0.099997  0  1.045966  0
H  H45  1  0.40543610  0.09448579  0.43704450  1  0.097861  0  0.102723  0.100026  0  1.046033  0
H  H46  1  0.68904985  0.09448514  0.93704407  1  0.136032  0  0.102704  0.099996  0  1.046124  0
H  H47  1  0.90551467  0.59456452  0.93704412  1  0.09786  0  0.102709  0.100002  0  1.046116  0
H  H48  1  0.40543591  0.31095037  0.93704413  1  0.093566  0  0.102704  0.099985  0  1.045976  0
H  H49  1  0.09448541  0.68904976  0.56295599  1  0.136022  0  0.102699  0.099993  0  1.046128  0
H  H50  1  0.31095055  0.40543572  0.56295592  1  0.093524  0  0.10273  0.100036  0  1.046016  0
H  H51  1  0.59456469  0.90551458  0.56295597  1  0.09786  0  0.102711  0.100016  0  1.0461  0
H  H52  1  0.43764622  0.91370587  0.13811334  1  0.161768  0  0.128729  0.101555  0  1.012324  0
H  H53  1  0.08629443  0.52394187  0.13811270  1  0.163121  0  0.128732  0.101553  0  1.012333  0
H  H54  1  0.47605859  0.56235357  0.13811267  1  0.157531  0  0.128738  0.101607  0  1.012262  0
H  H55  1  0.91370566  0.43764627  0.36188756  1  0.161758  0  0.128727  0.101538  0  1.012339  0
H  H56  1  0.56235346  0.47605870  0.36188760  1  0.157536  0  0.128679  0.101496  0  1.012226  0
H  H57  1  0.52394171  0.08629444  0.36188754  1  0.16311  0  0.128732  0.101558  0  1.012311  0
H  H58  1  0.56235358  0.08629424  0.86188713  1  0.16176  0  0.128729  0.101557  0  1.012326  0
H  H59  1  0.91370600  0.47605887  0.86188716  1  0.163112  0  0.128726  0.101557  0  1.012303  0
H  H60  1  0.52394183  0.43764716  0.86188719  1  0.157546  0  0.128712  0.101538  0  1.012252  0
H  H61  1  0.08629486  0.56235312  0.63811292  1  0.161753  0  0.128723  0.101535  0  1.012326  0
H  H62  1  0.43764733  0.52394167  0.63811226  1  0.157545  0  0.128736  0.101597  0  1.01226  0
H  H63  1  0.47605845  0.91370531  0.63811293  1  0.163108  0  0.128712  0.101525  0  1.012285  0
H  H64  1  0.68056195  0.00690782  0.17875712  1  0.086441  0  0.122923  0.108697  0  0.955447  0
H  H65  1  0.99309303  0.67365531  0.17875720  1  0.084172  0  0.12293  0.108701  0  0.955502  0
H  H66  1  0.32634505  0.31943826  0.17875720  1  0.091462  0  0.122923  0.108699  0  0.955448  0
H  H67  1  0.00690788  0.68056218  0.32124252  1  0.086441  0  0.122921  0.108699  0  0.955448  0
H  H68  1  0.31943756  0.32634453  0.32124243  1  0.091455  0  0.122893  0.108664  0  0.955454  0
H  H69  1  0.67365461  0.99309263  0.32124311  1  0.084189  0  0.122928  0.108707  0  0.955445  0
H  H70  1  0.31943786  0.99309229  0.82124213  1  0.086447  0  0.12291  0.108686  0  0.955445  0
H  H71  1  0.00690740  0.32634542  0.82124205  1  0.084187  0  0.122906  0.108689  0  0.955444  0
H  H72  1  0.67365475  0.68056185  0.82124266  1  0.091467  0  0.122921  0.108697  0  0.95546  0
H  H73  1  0.99309193  0.31943793  0.67875673  1  0.086441  0  0.122925  0.108707  0  0.955448  0
H  H74  1  0.68056260  0.67365522  0.67875743  1  0.091461  0  0.122923  0.108696  0  0.95545  0
H  H75  1  0.32634520  0.00690748  0.67875736  1  0.084183  0  0.122916  0.1087  0  0.955462  0
H  H76  1  0.56425954  0.90811859  0.19779355  1  0.087321  0  0.119052  0.10101  0  1.000633  0
H  H77  1  0.09188159  0.65614127  0.19779294  1  0.083884  0  0.11906  0.101007  0  1.000613  0
H  H78  1  0.34385883  0.43574076  0.19779349  1  0.088808  0  0.119062  0.101007  0  1.000603  0
H  H79  1  0.90811875  0.56425926  0.30220675  1  0.087326  0  0.119072  0.101003  0  1.000612  0
H  H80  1  0.43574065  0.34385891  0.30220676  1  0.088811  0  0.119065  0.100998  0  1.000604  0
H  H81  1  0.65614009  0.09188131  0.30220670  1  0.083902  0  0.119071  0.101003  0  1.000596  0
H  H82  1  0.43574062  0.09188116  0.80220693  1  0.087318  0  0.119076  0.101  0  1.000614  0
H  H83  1  0.90811884  0.34385947  0.80220692  1  0.083906  0  0.119067  0.101001  0  1.000609  0
H  H84  1  0.65614098  0.56425935  0.80220698  1  0.088812  0  0.119066  0.101023  0  1.000586  0
H  H85  1  0.09188105  0.43574085  0.69779311  1  0.087328  0  0.119074  0.101016  0  1.000599  0
H  H86  1  0.56425951  0.65614084  0.69779310  1  0.088811  0  0.119064  0.101001  0  1.000605  0
H  H87  1  0.34385910  0.90811818  0.69779316  1  0.083894  0  0.119067  0.101034  0  1.000601  0
H  H88  1  0.61090131  0.10570992  0.14388353  1  0.529234  0  0.317068  0.271488  0  0.989645  0
H  H89  1  0.89429043  0.50519231  0.14388357  1  0.536695  0  0.317073  0.271514  0  0.989614  0
H  H90  1  0.49480838  0.38909781  0.14388359  1  0.528824  0  0.317067  0.271495  0  0.989647  0
H  H91  1  0.10570994  0.61090151  0.35611672  1  0.529233  0  0.317072  0.271499  0  0.989626  0
H  H92  1  0.38909810  0.49480816  0.35611667  1  0.528825  0  0.317068  0.271488  0  0.989647  0
H  H93  1  0.50519200  0.89428968  0.35611673  1  0.536688  0  0.317069  0.271491  0  0.989612  0
H  H94  1  0.38909849  0.89429019  0.85611633  1  0.529235  0  0.317072  0.271493  0  0.989647  0
H  H95  1  0.10571035  0.49480807  0.85611629  1  0.536687  0  0.317071  0.271487  0  0.989625  0
H  H96  1  0.50519178  0.61090194  0.85611627  1  0.528824  0  0.317091  0.271539  0  0.989643  0
H  H97  1  0.89428986  0.38909860  0.64388375  1  0.529232  0  0.317101  0.271546  0  0.989622  0
H  H98  1  0.61090206  0.50519159  0.64388380  1  0.528821  0  0.317069  0.271479  0  0.989663  0
H  H99  1  0.49480817  0.10571008  0.64388375  1  0.536691  0  0.317064  0.271474  0  0.989649  0
C  C100  1  0.50320884  0.13654684  0.05186132  1  0.645254  0  0.106005  0.358502  0  4.088303  0
C  C101  1  0.86345260  0.36666178  0.05186132  1  0.661584  0  0.106008  0.358487  0  4.088342  0
C  C102  1  0.63333807  0.49679076  0.05186136  1  0.712274  0  0.10601  0.35849  0  4.088348  0
C  C103  1  0.13654721  0.50320867  0.44813832  1  0.645254  0  0.106008  0.358509  0  4.088282  0
C  C104  1  0.49679069  0.63333824  0.44813830  1  0.711815  0  0.106032  0.358506  0  4.088273  0
C  C105  1  0.36666116  0.86345222  0.44813835  1  0.661581  0  0.106021  0.358486  0  4.08832  0
C  C106  1  0.49679132  0.86345292  0.94813855  1  0.645247  0  0.106011  0.358466  0  4.088354  0
C  C107  1  0.13654721  0.63333833  0.94813854  1  0.661569  0  0.106006  0.358464  0  4.088363  0
C  C108  1  0.36666174  0.50320935  0.94813850  1  0.711981  0  0.106014  0.358497  0  4.088314  0
C  C109  1  0.86345296  0.49679108  0.55186154  1  0.645269  0  0.106034  0.358513  0  4.08828  0
C  C110  1  0.50320911  0.36666187  0.55186095  1  0.712258  0  0.105987  0.35844  0  4.088366  0
C  C111  1  0.63333803  0.13654726  0.55186090  1  0.661582  0  0.10602  0.358538  0  4.088298  0
C  C112  1  0.46053452  0.17388905  0.99810491  1  -0.022033  0  -0.106107  -0.232312  0  3.952304  0
C  C113  1  0.82611066  0.28664579  0.99810489  1  -0.012242  0  -0.106107  -0.232294  0  3.952388  0
C  C114  1  0.71335391  0.53946532  0.99810494  1  -0.067242  0  -0.106092  -0.232294  0  3.952308  0
C  C115  1  0.17388890  0.46053472  0.50189513  1  -0.022036  0  -0.106125  -0.23234  0  3.952322  0
C  C116  1  0.53946511  0.71335413  0.50189514  1  -0.067264  0  -0.106106  -0.232302  0  3.952308  0
C  C117  1  0.28664566  0.82611094  0.50189518  1  -0.012253  0  -0.106103  -0.23227  0  3.952363  0
C  C118  1  0.53946529  0.82611106  0.00189495  1  -0.022032  0  -0.106089  -0.232255  0  3.952311  0
C  C119  1  0.17388915  0.71335432  0.00189497  1  -0.012235  0  -0.106088  -0.232236  0  3.952338  0
C  C120  1  0.28664652  0.46053541  0.00189553  1  -0.067422  0  -0.106133  -0.232337  0  3.952397  0
C  C121  1  0.82611090  0.53946540  0.49810473  1  -0.022029  0  -0.106105  -0.232308  0  3.952284  0
C  C122  1  0.46053532  0.28664661  0.49810472  1  -0.067245  0  -0.106116  -0.232308  0  3.952375  0
C  C123  1  0.71335414  0.17388918  0.49810468  1  -0.012285  0  -0.106137  -0.232369  0  3.952373  0
C  C124  1  0.36716138  0.11700638  0.97064610  1  -0.112097  0  -0.079315  -0.03204  0  4.014265  0
C  C125  1  0.88299204  0.25015307  0.97064484  1  -0.068708  0  -0.079325  -0.032132  0  4.014348  0
C  C126  1  0.74984612  0.63283900  0.97064492  1  -0.063308  0  -0.079313  -0.03207  0  4.014263  0
C  C127  1  0.11700732  0.36716049  0.52935516  1  -0.112035  0  -0.079319  -0.032135  0  4.014291  0
C  C128  1  0.63283789  0.74984474  0.52935395  1  -0.063287  0  -0.079298  -0.032025  0  4.014295  0
C  C129  1  0.25015332  0.88299198  0.52935462  1  -0.068724  0  -0.079309  -0.032069  0  4.014302  0
C  C130  1  0.63283950  0.88299265  0.02935499  1  -0.112023  0  -0.079315  -0.03211  0  4.014287  0
C  C131  1  0.11700777  0.74984704  0.02935502  1  -0.068714  0  -0.079332  -0.032144  0  4.014352  0
C  C132  1  0.25015332  0.36716147  0.02935494  1  -0.063289  0  -0.07929  -0.032065  0  4.014307  0
C  C133  1  0.88299357  0.63283854  0.47064592  1  -0.112066  0  -0.07932  -0.032051  0  4.014283  0
C  C134  1  0.36716103  0.25015377  0.47064469  1  -0.0633  0  -0.079295  -0.032026  0  4.014278  0
C  C135  1  0.74984488  0.11700725  0.47064585  1  -0.068685  0  -0.079316  -0.032076  0  4.014342  0
C  C136  1  0.31163454  0.01958952  0.99348986  1  -0.081655  0  -0.114028  -0.140219  0  4.06167  0
C  C137  1  0.98041093  0.29204561  0.99348984  1  -0.013147  0  -0.114034  -0.140228  0  4.061678  0
C  C138  1  0.70795459  0.68836530  0.99348993  1  -0.043696  0  -0.11403  -0.14021  0  4.061708  0
C  C139  1  0.01958939  0.31163472  0.50651017  1  -0.081778  0  -0.11402  -0.140183  0  4.061661  0
C  C140  1  0.68836505  0.70795479  0.50650955  1  -0.043712  0  -0.114047  -0.14027  0  4.061673  0
C  C141  1  0.29204524  0.98041027  0.50650963  1  -0.013144  0  -0.114045  -0.140258  0  4.061692  0
C  C142  1  0.68836588  0.98041122  0.00651000  1  -0.081868  0  -0.114037  -0.140235  0  4.061658  0
C  C143  1  0.01958949  0.70795512  0.00651002  1  -0.013161  0  -0.114043  -0.140281  0  4.06165  0
C  C144  1  0.29204557  0.31163446  0.00650993  1  -0.043691  0  -0.114042  -0.140255  0  4.061681  0
C  C145  1  0.98041041  0.68836539  0.49348970  1  -0.081609  0  -0.11403  -0.140218  0  4.061663  0
C  C146  1  0.31163476  0.29204532  0.49348970  1  -0.043689  0  -0.114037  -0.140234  0  4.061684  0
C  C147  1  0.70795493  0.01958948  0.49349023  1  -0.013157  0  -0.114031  -0.14023  0  4.061621  0
C  C148  1  0.35175724  0.98030076  0.04392259  1  -0.058441  0  -0.079777  -0.076274  0  3.984042  0
C  C149  1  0.01969872  0.37145626  0.04392253  1  -0.05853  0  -0.079797  -0.076291  0  3.984002  0
C  C150  1  0.62854374  0.64824255  0.04392251  1  -0.038738  0  -0.079786  -0.076298  0  3.984019  0
C  C151  1  0.98030089  0.35175691  0.45607709  1  -0.058523  0  -0.079764  -0.076246  0  3.984023  0
C  C152  1  0.64824244  0.62854389  0.45607716  1  -0.038758  0  -0.079796  -0.076303  0  3.983953  0
C  C153  1  0.37145615  0.01969875  0.45607770  1  -0.058522  0  -0.079788  -0.076274  0  3.983982  0
C  C154  1  0.64824293  0.01969900  0.95607727  1  -0.05811  0  -0.079774  -0.076259  0  3.984013  0
C  C155  1  0.98030108  0.62854385  0.95607733  1  -0.058517  0  -0.079769  -0.076242  0  3.984008  0
C  C156  1  0.37145606  0.35175756  0.95607735  1  -0.03876  0  -0.079782  -0.076274  0  3.983943  0
C  C157  1  0.01969928  0.64824284  0.54392278  1  -0.058528  0  -0.079783  -0.076287  0  3.984046  0
C  C158  1  0.35175798  0.37145684  0.54392270  1  -0.038711  0  -0.079793  -0.076324  0  3.983958  0
C  C159  1  0.62854365  0.98030136  0.54392277  1  -0.058526  0  -0.079781  -0.076278  0  3.984041  0
C  C160  1  0.44673660  0.03650561  0.07399366  1  0.035913  0  -0.03346  -0.097045  0  4.016511  0
C  C161  1  0.96349468  0.41023102  0.07399367  1  0.001039  0  -0.033444  -0.09702  0  4.016495  0
C  C162  1  0.58976885  0.55326338  0.07399373  1  0.020851  0  -0.033465  -0.097039  0  4.016489  0
C  C163  1  0.03650600  0.44673642  0.42600596  1  0.03592  0  -0.033442  -0.097027  0  4.016464  0
C  C164  1  0.55326329  0.58976900  0.42600594  1  0.021299  0  -0.033448  -0.096979  0  4.01653  0
C  C165  1  0.41023075  0.96349396  0.42600601  1  0.001042  0  -0.03349  -0.097113  0  4.016574  0
C  C166  1  0.55326356  0.96349414  0.92600620  1  0.035589  0  -0.033444  -0.097015  0  4.01648  0
C  C167  1  0.03650611  0.58976936  0.92600619  1  0.001049  0  -0.033455  -0.097033  0  4.016499  0
C  C168  1  0.41023095  0.44673674  0.92600613  1  0.021294  0  -0.033445  -0.096992  0  4.016454  0
C  C169  1  0.96349443  0.55326431  0.57399390  1  0.035926  0  -0.033439  -0.097017  0  4.016466  0
C  C170  1  0.44673688  0.41023075  0.57399393  1  0.020842  0  -0.033453  -0.096986  0  4.016504  0
C  C171  1  0.58976941  0.03650579  0.57399385  1  0.001041  0  -0.033479  -0.097084  0  4.016497  0
C  C172  1  0.48314400  0.99024290  0.12461598  1  0.515441  0  0.103284  0.1357  0  3.842315  0
C  C173  1  0.00975693  0.49290148  0.12461534  1  0.524928  0  0.103262  0.135692  0  3.842352  0
C  C174  1  0.50709841  0.51685558  0.12461591  1  0.522011  0  0.103257  0.135633  0  3.842211  0
C  C175  1  0.99024268  0.48314405  0.37538431  1  0.51545  0  0.103283  0.135708  0  3.842304  0
C  C176  1  0.51685549  0.50709854  0.37538436  1  0.52201  0  0.103293  0.135664  0  3.842211  0
C  C177  1  0.49290133  0.00975692  0.37538490  1  0.525073  0  0.10329  0.135716  0  3.842298  0
C  C178  1  0.51685581  0.00975721  0.87538449  1  0.515521  0  0.103282  0.135685  0  3.842306  0
C  C179  1  0.99024288  0.50709863  0.87538452  1  0.524944  0  0.103282  0.135694  0  3.842204  0
C  C180  1  0.49290201  0.48314515  0.87538457  1  0.522021  0  0.103326  0.135724  0  3.842131  0
C  C181  1  0.00975749  0.51685570  0.62461555  1  0.515532  0  0.103298  0.135723  0  3.842276  0
C  C182  1  0.48314432  0.49290157  0.62461550  1  0.521998  0  0.103282  0.13565  0  3.842168  0
C  C183  1  0.50709848  0.99024319  0.62461557  1  0.52509  0  0.103329  0.135746  0  3.842223  0
C  C184  1  0.60975799  0.98596470  0.20466591  1  0.323791  0  -0.045423  -0.053303  0  3.881502  0
C  C185  1  0.01403549  0.62379373  0.20466530  1  0.345482  0  -0.045453  -0.053296  0  3.881513  0
C  C186  1  0.37620684  0.39024184  0.20466584  1  0.315446  0  -0.045429  -0.053311  0  3.881486  0
C  C187  1  0.98596484  0.60975771  0.29533439  1  0.323791  0  -0.045443  -0.053305  0  3.881485  0
C  C188  1  0.39024175  0.37620694  0.29533441  1  0.343438  0  -0.04541  -0.053247  0  3.881454  0
C  C189  1  0.62379254  0.01403520  0.29533433  1  0.345464  0  -0.045441  -0.053301  0  3.881486  0
C  C190  1  0.39024280  0.01403567  0.79533456  1  0.346861  0  -0.045425  -0.053242  0  3.881426  0
C  C191  1  0.98596494  0.37620701  0.79533456  1  0.345457  0  -0.045443  -0.053279  0  3.88151  0
C  C192  1  0.62379297  0.60975827  0.79533463  1  0.315445  0  -0.045464  -0.053349  0  3.881511  0
C  C193  1  0.01403496  0.39024240  0.70466547  1  0.323802  0  -0.045466  -0.053352  0  3.881513  0
C  C194  1  0.60975806  0.62379317  0.70466545  1  0.343437  0  -0.045452  -0.053308  0  3.881523  0
C  C195  1  0.37620664  0.98596429  0.70466553  1  0.322403  0  -0.045474  -0.05342  0  3.8815  0
N  N196  1  0.56922628  0.03340138  0.15712988  1  -1.25164  0  -0.371679  -0.166677  0  3.617288  0
N  N197  1  0.96659916  0.53582575  0.15712930  1  -1.252673  0  -0.371661  -0.166722  0  3.617259  0
N  N198  1  0.46417432  0.43077327  0.15712995  1  -1.247482  0  -0.37165  -0.166669  0  3.617255  0
N  N199  1  0.03340142  0.56922648  0.34286976  1  -1.251646  0  -0.371688  -0.166694  0  3.617282  0
N  N200  1  0.43077319  0.46417444  0.34287031  1  -1.24749  0  -0.371636  -0.166616  0  3.617247  0
N  N201  1  0.53582508  0.96659878  0.34287038  1  -1.252804  0  -0.371691  -0.166687  0  3.617254  0
N  N202  1  0.43077352  0.96659873  0.84286999  1  -1.25172  0  -0.371677  -0.166692  0  3.617302  0
N  N203  1  0.03340162  0.46417463  0.84286994  1  -1.252669  0  -0.371657  -0.166673  0  3.617212  0
N  N204  1  0.53582549  0.56922684  0.84287053  1  -1.247505  0  -0.37169  -0.166718  0  3.61728  0
N  N205  1  0.96659839  0.43077363  0.65712949  1  -1.251723  0  -0.371707  -0.166728  0  3.617325  0
N  N206  1  0.56922698  0.53582531  0.65712955  1  -1.247479  0  -0.371654  -0.166646  0  3.617249  0
N  N207  1  0.46417472  0.03340133  0.65712948  1  -1.252809  0  -0.371658  -0.166614  0  3.617198  0
N  N208  1  0.79080349  0.27515418  0.25878016  1  0.827088  0  0.087522  0.730234  0  4.411107  0
N  N209  1  0.72484628  0.51564910  0.25878020  1  0.823894  0  0.08754  0.730265  0  4.411244  0
N  N210  1  0.48435133  0.20919707  0.25877956  1  0.816771  0  0.087518  0.73022  0  4.411156  0
N  N211  1  0.27515391  0.79080272  0.24122012  1  0.826971  0  0.087501  0.730119  0  4.411092  0
N  N212  1  0.20919703  0.48435147  0.24122007  1  0.816798  0  0.087499  0.730172  0  4.411222  0
N  N213  1  0.51564901  0.72484644  0.24122008  1  0.823909  0  0.087557  0.730221  0  4.411283  0
N  N214  1  0.20919703  0.72484521  0.74121970  1  0.827021  0  0.087483  0.730109  0  4.411299  0
N  N215  1  0.27515389  0.48435065  0.74122027  1  0.823915  0  0.087529  0.730193  0  4.411176  0
N  N216  1  0.51564847  0.79080304  0.74122030  1  0.816764  0  0.087479  0.730116  0  4.411323  0
N  N217  1  0.72484554  0.20919775  0.75878036  1  0.827019  0  0.08749  0.730144  0  4.411278  0
N  N218  1  0.79080277  0.51564864  0.75877979  1  0.816765  0  0.087531  0.730184  0  4.411154  0
N  N219  1  0.48435079  0.27515367  0.75877978  1  0.823896  0  0.087528  0.73022  0  4.411168  0
O  O220  1  0.59026304  0.19029542  0.08045705  1  -1.205824  0  -0.431161  -0.647025  0  2.319266  0
O  O221  1  0.80970482  0.39996866  0.08045707  1  -1.20366  0  -0.431191  -0.647027  0  2.319243  0
O  O222  1  0.60003191  0.40973629  0.08045709  1  -1.204943  0  -0.431198  -0.647036  0  2.319253  0
O  O223  1  0.19029543  0.59026324  0.41954259  1  -1.20583  0  -0.431168  -0.647028  0  2.31924  0
O  O224  1  0.40973624  0.60003208  0.41954257  1  -1.204947  0  -0.431203  -0.647048  0  2.31925  0
O  O225  1  0.39996775  0.80970344  0.41954260  1  -1.203668  0  -0.431183  -0.647012  0  2.319227  0
O  O226  1  0.40973614  0.80970407  0.91954281  1  -1.205837  0  -0.431197  -0.647029  0  2.319257  0
O  O227  1  0.19029561  0.60003207  0.91954280  1  -1.203654  0  -0.431189  -0.647022  0  2.319262  0
O  O228  1  0.39996789  0.59026382  0.91954277  1  -1.204947  0  -0.431205  -0.647056  0  2.319262  0
O  O229  1  0.80970376  0.40973625  0.58045727  1  -1.205839  0  -0.431193  -0.647035  0  2.319241  0
O  O230  1  0.59026455  0.39996829  0.58045729  1  -1.204948  0  -0.431186  -0.647023  0  2.319244  0
O  O231  1  0.60003241  0.19029631  0.58045726  1  -1.203659  0  -0.431199  -0.647048  0  2.319241  0
O  O232  1  0.78903381  0.35290753  0.27458138  1  -0.5897  0  -0.246721  -0.531873  0  1.991388  0
O  O233  1  0.64709366  0.43612703  0.27458141  1  -0.591452  0  -0.246723  -0.531868  0  1.99151  0
O  O234  1  0.56387389  0.21096677  0.27458138  1  -0.590514  0  -0.246725  -0.531882  0  1.991438  0
O  O235  1  0.35290688  0.78903339  0.22541767  1  -0.589617  0  -0.246713  -0.531851  0  1.991426  0
O  O236  1  0.21096710  0.56387369  0.22541765  1  -0.590518  0  -0.246718  -0.531865  0  1.99145  0
O  O237  1  0.43612696  0.64709382  0.22541764  1  -0.591453  0  -0.246717  -0.531863  0  1.991538  0
O  O238  1  0.21096698  0.64709284  0.72541786  1  -0.589638  0  -0.246677  -0.531794  0  1.991566  0
O  O239  1  0.35290676  0.56387370  0.72541784  1  -0.591467  0  -0.246707  -0.531852  0  1.991423  0
O  O240  1  0.43612628  0.78903298  0.72541787  1  -0.590521  0  -0.246655  -0.531754  0  1.991531  0
O  O241  1  0.64709293  0.21096672  0.77458219  1  -0.589633  0  -0.246698  -0.531826  0  1.991521  0
O  O242  1  0.78903306  0.43612606  0.77458160  1  -0.590517  0  -0.246713  -0.531856  0  1.991408  0
O  O243  1  0.56387347  0.35290691  0.77458161  1  -0.591464  0  -0.246699  -0.531852  0  1.991416  0
O  O244  1  0.74177378  0.22639734  0.19662466  1  -0.596008  0  -0.237392  -0.513842  0  2.026074  0
O  O245  1  0.77360432  0.51537758  0.19662471  1  -0.588364  0  -0.23741  -0.51385  0  2.026052  0
O  O246  1  0.48462327  0.25822638  0.19662408  1  -0.585445  0  -0.23741  -0.513856  0  2.026124  0
O  O247  1  0.22639645  0.74177239  0.30337560  1  -0.595986  0  -0.237393  -0.513789  0  2.026019  0
O  O248  1  0.25822572  0.48462279  0.30337556  1  -0.585465  0  -0.237395  -0.51383  0  2.026138  0
O  O249  1  0.51537689  0.77360389  0.30337558  1  -0.588368  0  -0.237403  -0.513827  0  2.0261  0
O  O250  1  0.25822701  0.77360304  0.80337581  1  -0.596024  0  -0.237407  -0.513831  0  2.026095  0
O  O251  1  0.22639611  0.48462315  0.80337577  1  -0.58844  0  -0.237411  -0.513849  0  2.026117  0
O  O252  1  0.51537654  0.74177373  0.80337578  1  -0.585437  0  -0.237413  -0.513835  0  2.026112  0
O  O253  1  0.77360309  0.25822674  0.69662487  1  -0.59601  0  -0.237368  -0.513808  0  2.026124  0
O  O254  1  0.74177346  0.51537670  0.69662430  1  -0.585446  0  -0.237407  -0.513815  0  2.026089  0
O  O255  1  0.48462256  0.22639658  0.69662428  1  -0.58836  0  -0.237412  -0.513866  0  2.02614  0
O  O256  1  0.83687009  0.24885310  0.30147753  1  -0.472655  0  -0.151071  -0.382242  0  1.926516  0
O  O257  1  0.75114647  0.58801734  0.30147759  1  -0.474633  0  -0.15107  -0.382257  0  1.926531  0
O  O258  1  0.41198257  0.16312941  0.30147756  1  -0.47137  0  -0.151056  -0.382228  0  1.926498  0
O  O259  1  0.24885309  0.83687032  0.19852274  1  -0.472645  0  -0.151079  -0.382221  0  1.926514  0
O  O260  1  0.16312937  0.41198270  0.19852207  1  -0.471383  0  -0.151068  -0.382234  0  1.926514  0
O  O261  1  0.58801821  0.75114689  0.19852269  1  -0.474642  0  -0.151105  -0.382257  0  1.926495  0
O  O262  1  0.16313007  0.75114665  0.69852233  1  -0.472636  0  -0.151074  -0.382217  0  1.92649  0
O  O263  1  0.24885333  0.41198277  0.69852288  1  -0.474617  0  -0.151084  -0.382239  0  1.926532  0
O  O264  1  0.58801723  0.83687070  0.69852230  1  -0.471373  0  -0.151081  -0.382243  0  1.926479  0
O  O265  1  0.75114671  0.16312980  0.80147834  1  -0.472659  0  -0.151097  -0.382248  0  1.926495  0
O  O266  1  0.83687044  0.58801741  0.80147718  1  -0.471366  0  -0.151078  -0.382232  0  1.926505  0
O  O267  1  0.41198257  0.24885348  0.80147717  1  -0.474625  0  -0.151091  -0.382249  0  1.92651  0
