# generated using pymatgen
data_CuH8C9SINO6
_symmetry_space_group_name_H-M   'P 1'
_cell_length_a   7.08107035
_cell_length_b   9.44509218
_cell_length_c   18.76019917
_cell_angle_alpha   90.00119880
_cell_angle_beta   99.04570780
_cell_angle_gamma   89.99862154
_symmetry_Int_Tables_number   1
_chemical_formula_structural   CuH8C9SINO6
_chemical_formula_sum   'Cu4 H32 C36 S4 I4 N4 O24'
_cell_volume   1239.10316368
_cell_formula_units_Z   4
loop_
 _symmetry_equiv_pos_site_id
 _symmetry_equiv_pos_as_xyz
  1  'x, y, z'
loop_
 _atom_site_type_symbol
 _atom_site_label
 _atom_site_symmetry_multiplicity
 _atom_site_fract_x
 _atom_site_fract_y
 _atom_site_fract_z
 _atom_site_occupancy
 _atom_site_pbe_bader_charge
 _atom_site_pbe_bader_spin_density
 _atom_site_pbe_cm5_charge
 _atom_site_pbe_ddec_charge
 _atom_site_pbe_ddec_spin_density
 _atom_site_pbe_ddec_sum_bond_order
 _atom_site_pbe_magmom
Cu  Cu0  1  0.92762284  0.08792949  0.16611392  1  1.117929  -0.600997  0.736934  0.912051  -0.777233  2.140097  -0.6
Cu  Cu1  1  0.92766720  0.41206925  0.66609425  1  1.118238  0.601006  0.736916  0.912143  0.777235  2.140007  0.6
Cu  Cu2  1  0.07234220  0.91207834  0.83390283  1  1.118307  -0.600991  0.73694  0.912121  -0.777223  2.140191  -0.6
Cu  Cu3  1  0.07236896  0.58792058  0.33389114  1  1.118047  0.600993  0.736927  0.912055  0.777228  2.140155  0.6
H  H4  1  0.93950680  0.09267706  0.30062142  1  0.630369  0.000489  0.309776  0.388238  4.6e-05  0.911185  0.0
H  H5  1  0.93953608  0.40731666  0.80060635  1  0.630561  -0.000489  0.309719  0.388212  -4.6e-05  0.910995  0.0
H  H6  1  0.06048362  0.90730218  0.69939277  1  0.630473  0.000489  0.30979  0.388331  4.6e-05  0.910845  0.0
H  H7  1  0.06048614  0.59267106  0.19938213  1  0.630439  -0.000489  0.30973  0.38815  -4.6e-05  0.911261  0.0
H  H8  1  0.07487803  0.65720901  0.94177526  1  0.109731  -0.004044  0.105865  0.070041  -0.001936  1.035269  -0.003
H  H9  1  0.07495531  0.84280911  0.44176312  1  0.108921  0.004042  0.105888  0.070091  0.001934  1.035115  0.003
H  H10  1  0.92504749  0.34281576  0.05824498  1  0.109483  -0.004043  0.105878  0.069998  -0.001935  1.035088  -0.003
H  H11  1  0.92510461  0.15718390  0.55821751  1  0.109812  0.004041  0.105892  0.07006  0.001934  1.035351  0.003
H  H12  1  0.75959536  0.00706803  0.25783402  1  0.69264  0.000365  0.307914  0.417856  1.9e-05  0.901775  0.0
H  H13  1  0.75961483  0.49292141  0.75781809  1  0.692726  -0.000365  0.307941  0.418041  -1.8e-05  0.901552  0.0
H  H14  1  0.24040102  0.99291121  0.74218312  1  0.692674  0.000365  0.307898  0.417916  1.8e-05  0.901715  0.0
H  H15  1  0.24039837  0.50705254  0.24216517  1  0.692625  -0.000365  0.307918  0.417911  -1.8e-05  0.901718  0.0
H  H16  1  0.19910607  0.63536183  0.07374113  1  0.096785  -0.00142  0.100238  0.102599  -0.000689  1.01528  -0.001
H  H17  1  0.19919522  0.86467139  0.57372850  1  0.096035  0.001422  0.100264  0.102648  0.00069  1.014959  0.001
H  H18  1  0.80081082  0.36466612  0.92627818  1  0.09592  -0.001421  0.10024  0.102623  -0.00069  1.015101  -0.001
H  H19  1  0.80086746  0.13532162  0.42625118  1  0.096254  0.001422  0.100201  0.10264  0.00069  1.015027  0.001
H  H20  1  0.95885565  0.35944396  0.21511656  1  0.65048  -0.000665  0.298696  0.422279  -0.000787  0.896066  -0.001
H  H21  1  0.95889059  0.14055355  0.71510554  1  0.650221  0.000666  0.29874  0.422376  0.000787  0.89595  0.001
H  H22  1  0.04112300  0.64054693  0.78489335  1  0.65044  -0.000666  0.298702  0.422363  -0.000788  0.895983  -0.001
H  H23  1  0.04112906  0.85944052  0.28488602  1  0.65023  0.000666  0.298724  0.422382  0.000787  0.895919  0.001
H  H24  1  0.33631798  0.84761334  0.14299320  1  0.136786  2.2e-05  0.114489  0.131398  2.5e-05  0.986974  0.0
H  H25  1  0.33639614  0.65240825  0.64297628  1  0.137483  -2.2e-05  0.114378  0.131276  -2.4e-05  0.987135  0.0
H  H26  1  0.66360630  0.15240719  0.85702912  1  0.13764  2.2e-05  0.114413  0.131258  2.5e-05  0.987205  0.0
H  H27  1  0.66365648  0.34758687  0.35700241  1  0.137058  -2.2e-05  0.114551  0.131477  -2.5e-05  0.986949  0.0
H  H28  1  0.73634941  0.29695920  0.20291262  1  0.654766  -0.000637  0.291995  0.397931  -0.000768  0.936011  -0.001
H  H29  1  0.73638860  0.20304798  0.70289108  1  0.654657  0.000639  0.292023  0.398127  0.000768  0.935783  0.001
H  H30  1  0.26364170  0.70304016  0.79710907  1  0.654482  -0.00064  0.292043  0.398032  -0.000769  0.935848  -0.001
H  H31  1  0.26364150  0.79694926  0.29709029  1  0.65484  0.000638  0.291922  0.397825  0.000769  0.936114  0.001
H  H32  1  0.41985564  0.33511267  0.06349127  1  0.1305  -0.000712  0.090999  0.098102  -0.000386  1.070968  0.0
H  H33  1  0.41990721  0.16490575  0.56346787  1  0.130483  0.000711  0.091016  0.098045  0.000386  1.071164  0.0
H  H34  1  0.58008136  0.66491316  0.93653004  1  0.130558  -0.000712  0.090986  0.097986  -0.000386  1.071232  0.0
H  H35  1  0.58014409  0.83509149  0.43651182  1  0.130488  0.000712  0.091023  0.098082  0.000386  1.070965  0.0
C  C36  1  0.13368630  0.74845561  0.97321137  1  0.479248  0.003314  0.048973  0.107393  0.001092  3.971093  0.003
C  C37  1  0.13374202  0.75156623  0.47319751  1  0.479607  -0.003312  0.048839  0.107298  -0.001092  3.971201  -0.003
C  C38  1  0.86625907  0.25156598  0.02680819  1  0.478855  0.003311  0.048987  0.107597  0.001093  3.970772  0.003
C  C39  1  0.86630814  0.24842466  0.52678533  1  0.478856  -0.003313  0.048965  0.10745  -0.001092  3.971053  -0.003
C  C40  1  0.20360753  0.73781433  0.04743453  1  -0.001785  -0.008609  -0.092073  -0.137645  -0.005927  4.008273  -0.007
C  C41  1  0.20367994  0.76220265  0.54742247  1  -0.000879  0.008606  -0.092015  -0.137704  0.005926  4.008032  0.007
C  C42  1  0.79632612  0.26220409  0.95258129  1  8.9e-05  -0.008606  -0.092077  -0.137822  -0.005927  4.008249  -0.007
C  C43  1  0.79637752  0.23779459  0.45256231  1  -0.002005  0.008607  -0.092091  -0.137699  0.005926  4.008489  0.007
C  C44  1  0.27839423  0.85541963  0.08578249  1  -0.014368  0.00551  -0.0594  -0.055168  0.003715  3.882255  0.003
C  C45  1  0.27845872  0.64459479  0.58576914  1  -0.01424  -0.00551  -0.059184  -0.054825  -0.003715  3.882505  -0.003
C  C46  1  0.72154681  0.14459773  0.91423634  1  -0.015484  0.00551  -0.059202  -0.054742  0.003715  3.882613  0.003
C  C47  1  0.72159016  0.35539928  0.41421524  1  -0.014171  -0.005509  -0.059302  -0.055143  -0.003715  3.882682  -0.003
C  C48  1  0.35421476  0.11825717  0.08130121  1  -0.189762  2e-06  -0.041745  -0.179737  -4.1e-05  3.978301  0.0
C  C49  1  0.35424988  0.38175485  0.58127927  1  -0.190132  -3e-06  -0.041685  -0.179843  4e-05  3.978865  0.0
C  C50  1  0.64574491  0.88175913  0.91871902  1  -0.190324  3e-06  -0.041678  -0.179914  -4e-05  3.978625  0.0
C  C51  1  0.64578880  0.61823180  0.41870250  1  -0.189892  0.0  -0.041583  -0.179388  4.2e-05  3.97819  0.0
C  C52  1  0.36047822  0.23735385  0.03840015  1  0.058711  -0.001569  -0.098687  -0.113019  -0.000966  4.059012  -0.001
C  C53  1  0.36053021  0.26265058  0.53838287  1  0.058354  0.001569  -0.098638  -0.112592  0.000965  4.059152  0.001
C  C54  1  0.63946834  0.76265927  0.96161681  1  0.058354  -0.00157  -0.098632  -0.112517  -0.000966  4.05912  -0.001
C  C55  1  0.63951685  0.73733713  0.46159716  1  0.059  0.001568  -0.098796  -0.113052  0.000966  4.058949  0.001
C  C56  1  0.28976202  0.23507521  0.96419595  1  -0.299596  -0.006173  -0.074984  -0.078553  -0.00424  3.920921  -0.005
C  C57  1  0.28981068  0.26493199  0.46418720  1  -0.29886  0.006172  -0.075102  -0.078925  0.00424  3.921093  0.005
C  C58  1  0.71019701  0.76494003  0.03581731  1  -0.298835  -0.006173  -0.075032  -0.079096  -0.004241  3.92124  -0.005
C  C59  1  0.71023845  0.73506101  0.53579986  1  -0.299448  0.006175  -0.074931  -0.078507  0.004241  3.920854  0.005
C  C60  1  0.20316209  0.11362263  0.93076045  1  0.741426  0.000114  0.071727  0.220725  -0.001882  4.186452  0.003
C  C61  1  0.20318656  0.38638123  0.43074565  1  0.741387  -0.000121  0.071906  0.220985  0.00188  4.185416  -0.003
C  C62  1  0.79681434  0.88638943  0.06925630  1  0.741651  0.00012  0.071936  0.22136  -0.00188  4.185571  0.003
C  C63  1  0.79685084  0.61360860  0.56923766  1  0.741361  -0.000115  0.071897  0.220775  0.001882  4.186132  -0.003
C  C64  1  0.28346589  0.98710823  0.04971755  1  -0.019187  -0.002757  -0.002686  0.050895  -0.00204  3.979331  -0.002
C  C65  1  0.28351643  0.51290215  0.54970999  1  -0.019803  0.002754  -0.002668  0.050889  0.002038  3.97972  0.002
C  C66  1  0.71648891  0.01290701  0.95029605  1  -0.019123  -0.002755  -0.002674  0.050823  -0.002039  3.979375  -0.002
C  C67  1  0.71652540  0.48708873  0.45027513  1  -0.019618  0.002757  -0.002869  0.05069  0.002039  3.980144  0.002
C  C68  1  0.21043418  0.98843251  0.97459653  1  0.443947  -0.005894  0.09577  0.095221  -0.004503  3.959219  -0.005
C  C69  1  0.21046505  0.51158275  0.47458870  1  0.443399  0.005897  0.095741  0.09533  0.004503  3.958411  0.005
C  C70  1  0.78953629  0.01158697  0.02541727  1  0.442866  -0.005897  0.095705  0.095295  -0.004504  3.958427  -0.005
C  C71  1  0.78956678  0.48840496  0.52539595  1  0.443884  0.0059  0.095841  0.095235  0.004504  3.959441  0.005
S  S72  1  0.41680577  0.13780992  0.17639762  1  3.194568  -0.000332  0.506303  1.193451  -0.000111  6.182759  0.0
S  S73  1  0.41684729  0.36219205  0.67637689  1  3.194156  0.000331  0.506176  1.19317  0.000111  6.182559  0.0
S  S74  1  0.58316671  0.86220214  0.82362268  1  3.19362  -0.000331  0.50613  1.19322  -0.000111  6.182882  0.0
S  S75  1  0.58318696  0.63779142  0.32360307  1  3.19414  0.000332  0.506135  1.192953  0.000112  6.18275  0.0
I  I76  1  0.30885177  0.41226805  0.89865723  1  0.146667  -0.005181  0.147909  0.071073  -0.004876  1.743668  -0.003
I  I77  1  0.30891294  0.08774396  0.39863274  1  0.146408  0.005186  0.147893  0.071071  0.00488  1.743696  0.003
I  I78  1  0.69108390  0.58775566  0.10136509  1  0.146519  -0.005186  0.14788  0.071112  -0.00488  1.743711  -0.003
I  I79  1  0.69114944  0.91225434  0.60134374  1  0.146825  0.005183  0.147862  0.071014  0.004878  1.743727  0.003
N  N80  1  0.13935908  0.86993045  0.93794240  1  -1.215736  -0.10386  -0.354496  -0.297498  -0.06918  3.671185  -0.089
N  N81  1  0.13938695  0.63008314  0.43792576  1  -1.215759  0.103838  -0.354533  -0.297682  0.069166  3.671191  0.088
N  N82  1  0.86061054  0.13008373  0.06207776  1  -1.215579  -0.103842  -0.35461  -0.297849  -0.069169  3.67116  -0.088
N  N83  1  0.86064577  0.36990986  0.56205307  1  -1.21503  0.103842  -0.354593  -0.297707  0.069174  3.671282  0.088
O  O84  1  0.55560408  0.02493905  0.20066359  1  -1.336305  0.001329  -0.339261  -0.619765  0.000995  2.28991  0.001
O  O85  1  0.55564729  0.47507334  0.70065236  1  -1.335947  -0.00133  -0.339063  -0.619556  -0.000995  2.290035  -0.001
O  O86  1  0.44437171  0.97507408  0.79934619  1  -1.335899  0.001329  -0.339063  -0.619535  0.000994  2.290272  0.001
O  O87  1  0.44438177  0.52491754  0.29933323  1  -1.336082  -0.001329  -0.339148  -0.619582  -0.000995  2.289843  -0.001
O  O88  1  0.90312309  0.00972242  0.27024207  1  -1.24297  -0.058451  -0.546674  -0.718171  -0.039199  2.182427  -0.051
O  O89  1  0.90315112  0.49027146  0.77022545  1  -1.243252  0.058454  -0.546653  -0.718289  0.039207  2.182283  0.051
O  O90  1  0.09686018  0.99026211  0.72977180  1  -1.243147  -0.058453  -0.546657  -0.718294  -0.039206  2.182168  -0.051
O  O91  1  0.09686790  0.50971520  0.22975914  1  -1.243048  0.058457  -0.546694  -0.718205  0.039202  2.182468  0.051
O  O92  1  0.49671323  0.28153495  0.18838269  1  -1.324783  -0.000953  -0.341427  -0.586007  -0.000541  2.202925  -0.001
O  O93  1  0.49676620  0.21846515  0.68836138  1  -1.324884  0.000955  -0.341507  -0.585931  0.000542  2.202999  0.001
O  O94  1  0.50325344  0.71846864  0.81163626  1  -1.324715  -0.000955  -0.341452  -0.585924  -0.000542  2.202966  -0.001
O  O95  1  0.50327495  0.78152150  0.31161624  1  -1.324652  0.000955  -0.341366  -0.585801  0.000542  2.202881  0.001
O  O96  1  0.87592491  0.27420133  0.20933908  1  -1.242698  -0.050316  -0.593716  -0.792147  -0.033602  2.192703  -0.044
O  O97  1  0.87596125  0.22579417  0.70930958  1  -1.24254  0.050297  -0.59386  -0.792611  0.033594  2.192596  0.044
O  O98  1  0.12405157  0.72580120  0.79069367  1  -1.242598  -0.050301  -0.593882  -0.792543  -0.033596  2.192751  -0.044
O  O99  1  0.12405836  0.77418824  0.29066597  1  -1.242515  0.050314  -0.593696  -0.792221  0.0336  2.192692  0.044
O  O100  1  0.23770455  0.11883838  0.20586008  1  -1.338248  0.000299  -0.359419  -0.635854  -6.5e-05  2.340641  -0.001
O  O101  1  0.23773914  0.38116085  0.70584772  1  -1.337477  -0.000296  -0.359355  -0.635847  6.8e-05  2.34005  0.001
O  O102  1  0.76227621  0.88115992  0.79415740  1  -1.337167  0.000297  -0.359386  -0.635868  -6.7e-05  2.340194  -0.001
O  O103  1  0.76228820  0.61881203  0.29413459  1  -1.338079  -0.000295  -0.359465  -0.63581  6.8e-05  2.340549  0.001
O  O104  1  0.11763911  0.10760693  0.86393927  1  -1.059338  -0.152068  -0.323011  -0.465673  -0.09734  2.358778  -0.135
O  O105  1  0.11765326  0.39239929  0.36392244  1  -1.058884  0.152082  -0.323153  -0.465862  0.097344  2.358461  0.135
O  O106  1  0.88233308  0.89240407  0.13607781  1  -1.05889  -0.152075  -0.323184  -0.465957  -0.097339  2.358499  -0.135
O  O107  1  0.88238528  0.60759266  0.63605773  1  -1.059251  0.152063  -0.323084  -0.465608  0.097338  2.358686  0.135
