# generated using pymatgen
data_H8PbC8S2(NO4)2
_symmetry_space_group_name_H-M   'P 1'
_cell_length_a   7.11054957
_cell_length_b   7.61461948
_cell_length_c   13.77968135
_cell_angle_alpha   83.13563671
_cell_angle_beta   86.99968168
_cell_angle_gamma   62.09957322
_symmetry_Int_Tables_number   1
_chemical_formula_structural   H8PbC8S2(NO4)2
_chemical_formula_sum   'H16 Pb2 C16 S4 N4 O16'
_cell_volume   654.63320105
_cell_formula_units_Z   2
loop_
 _symmetry_equiv_pos_site_id
 _symmetry_equiv_pos_as_xyz
  1  'x, y, z'
loop_
 _atom_site_type_symbol
 _atom_site_label
 _atom_site_symmetry_multiplicity
 _atom_site_fract_x
 _atom_site_fract_y
 _atom_site_fract_z
 _atom_site_occupancy
 _atom_site_hle17_bader_spin_density
 _atom_site_hle17_ddec_charge
 _atom_site_hle17_ddec_spin_density
 _atom_site_hle17_ddec_sum_bond_order
 _atom_site_hle17_magmom
 _atom_site_hse06_10hf_bader_spin_density
 _atom_site_hse06_10hf_ddec_charge
 _atom_site_hse06_10hf_ddec_spin_density
 _atom_site_hse06_10hf_ddec_sum_bond_order
 _atom_site_hse06_10hf_magmom
 _atom_site_hse06_bader_spin_density
 _atom_site_hse06_ddec_charge
 _atom_site_hse06_ddec_spin_density
 _atom_site_hse06_ddec_sum_bond_order
 _atom_site_hse06_magmom
 _atom_site_pbe_bader_spin_density
 _atom_site_pbe_cm5_charge
 _atom_site_pbe_ddec_charge
 _atom_site_pbe_ddec_spin_density
 _atom_site_pbe_ddec_sum_bond_order
 _atom_site_pbe_magmom
H  H0  1  0.48954413  0.84076646  0.27194024  1  0  0.172971  0  0.938569  0  0  0.180669  0  0.997517  0  0  0.185953  0  0.995154  0  0  0.116129  0.176936  0  0.999371  0
H  H1  1  0.51045649  0.15923240  0.72806017  1  0  0.172976  0  0.938523  0  0  0.18067  0  0.997473  0  0  0.185955  0  0.995107  0  0  0.116149  0.176938  0  0.999326  0
H  H2  1  0.65107539  0.87919323  0.11474019  1  0  0.143846  0  0.9406  0  0  0.167395  0  0.992888  0  0  0.169274  0  0.992723  0  0  0.104688  0.166008  0  0.993086  0
H  H3  1  0.34892445  0.12080716  0.88525796  1  0  0.143796  0  0.940628  0  0  0.167415  0  0.992845  0  0  0.169294  0  0.992681  0  0  0.10471  0.166029  0  0.993043  0
H  H4  1  0.58194126  0.78682703  0.01525428  1  0  0.14109  0  0.949946  0  0  0.15688  0  1.01557  0  0  0.159708  0  1.014059  0  0  0.101199  0.154797  0  1.016675  0
H  H5  1  0.41805438  0.21317040  0.98474347  1  0  0.1411  0  0.949979  0  0  0.156901  0  1.015577  0  0  0.159729  0  1.014068  0  0  0.101209  0.154819  0  1.016682  0
H  H6  1  0.82391457  0.63605389  0.08005090  1  0  0.157519  0  0.930281  0  0  0.177339  0  0.987103  0  0  0.18051  0  0.985224  0  0  0.107217  0.174997  0  0.988528  0
H  H7  1  0.17608320  0.36394500  0.91994814  1  0  0.157531  0  0.930248  0  0  0.17734  0  0.987091  0  0  0.180519  0  0.985201  0  0  0.107208  0.174999  0  0.988513  0
H  H8  1  0.91019527  0.86476075  0.22330220  1  0  0.169329  0  0.935728  0  0  0.178616  0  0.990797  0  0  0.18306  0  0.989567  0  0  0.117866  0.17541  0  0.991922  0
H  H9  1  0.08980688  0.13523507  0.77670126  1  0  0.16936  0  0.935712  0  0  0.178646  0  0.990781  0  0  0.183092  0  0.98954  0  0  0.117869  0.175438  0  0.991915  0
H  H10  1  0.07819341  0.96115297  0.08127741  1  0  0.138507  0  0.947006  0  0  0.159399  0  1.002903  0  0  0.160934  0  1.003353  0  0  0.102807  0.158262  0  1.002623  0
H  H11  1  0.92180933  0.03884441  0.91872158  1  0  0.138404  0  0.947078  0  0  0.159305  0  1.002977  0  0  0.16084  0  1.003425  0  0  0.102768  0.158168  0  1.002697  0
H  H12  1  0.20662521  0.10789508  0.10335917  1  0  0.144047  0  0.951545  0  0  0.162905  0  1.011352  0  0  0.16477  0  1.011635  0  0  0.103639  0.161529  0  1.011193  0
H  H13  1  0.79337890  0.89210527  0.89664031  1  0  0.144078  0  0.951539  0  0  0.162909  0  1.011382  0  0  0.164773  0  1.011666  0  0  0.103664  0.161533  0  1.011222  0
H  H14  1  0.93938223  0.22826346  0.06127613  1  0  0.151923  0  0.920588  0  0  0.169325  0  0.981392  0  0  0.172471  0  0.979255  0  0  0.106486  0.167012  0  0.982973  0
H  H15  1  0.06061629  0.77173687  0.93872643  1  0  0.151912  0  0.920564  0  0  0.169317  0  0.98137  0  0  0.172464  0  0.979232  0  0  0.106494  0.167005  0  0.982951  0
Pb  Pb16  1  0.40979012  0.28691910  0.48462713  1  0  1.440749  0  1.333102  0  0  1.263633  0  1.722744  0  0  1.323504  0  1.677564  0  0  0.702495  1.219818  0  1.754714  0
Pb  Pb17  1  0.59019478  0.71308879  0.51537245  1  0  1.440763  0  1.333058  0  0  1.263645  0  1.722704  0  0  1.323512  0  1.677524  0  0  0.702494  1.21983  0  1.754669  0
C  C18  1  0.39885781  0.60427259  0.31378770  1  0  0.640725  0  3.892694  0  0  0.594211  0  4.180665  0  0  0.630014  0  4.1782  0  0  0.223923  0.570062  0  4.181383  0
C  C19  1  0.60114207  0.39572776  0.68621263  1  0  0.640684  0  3.892744  0  0  0.594159  0  4.180736  0  0  0.629961  0  4.178272  0  0  0.22391  0.570008  0  4.181454  0
C  C20  1  0.47284920  0.71870630  0.24670222  1  0  -0.427239  0  3.6768  0  0  -0.450957  0  3.943909  0  0  -0.46969  0  3.957552  0  0  -0.13188  -0.438693  0  3.934904  0
C  C21  1  0.52715000  0.28129257  0.75329823  1  0  -0.427116  0  3.676731  0  0  -0.450853  0  3.943823  0  0  -0.469582  0  3.957468  0  0  -0.131852  -0.438589  0  3.934815  0
C  C22  1  0.54800627  0.66075643  0.15711004  1  0  0.449569  0  3.684147  0  0  0.432017  0  3.960958  0  0  0.453214  0  3.969878  0  0  0.113025  0.41767  0  3.954676  0
C  C23  1  0.45199790  0.33924093  0.84288964  1  0  0.449458  0  3.684327  0  0  0.431936  0  3.961087  0  0  0.453121  0  3.970021  0  0  0.112983  0.417592  0  3.954802  0
C  C24  1  0.65653529  0.74725999  0.08789148  1  0  -0.404726  0  3.665756  0  0  -0.48452  0  3.899296  0  0  -0.490272  0  3.903645  0  0  -0.239709  -0.480228  0  3.896246  0
C  C25  1  0.34346527  0.25274185  0.91210873  1  0  -0.404723  0  3.665803  0  0  -0.484585  0  3.899329  0  0  -0.490344  0  3.903676  0  0  -0.239736  -0.480296  0  3.89628  0
C  C26  1  0.79088507  0.03511876  0.34951844  1  0  0.664668  0  3.852247  0  0  0.62034  0  4.137284  0  0  0.656866  0  4.131195  0  0  0.229708  0.595557  0  4.140579  0
C  C27  1  0.20911114  0.96488906  0.65048153  1  0  0.664715  0  3.852121  0  0  0.620336  0  4.137248  0  0  0.656861  0  4.13116  0  0  0.229692  0.595554  0  4.140542  0
C  C28  1  0.90708763  0.98574631  0.25903009  1  0  -0.401845  0  3.645407  0  0  -0.427957  0  3.912109  0  0  -0.444625  0  3.923626  0  0  -0.126488  -0.417009  0  3.904592  0
C  C29  1  0.09291661  0.01425100  0.74097321  1  0  -0.401955  0  3.645423  0  0  -0.428058  0  3.912161  0  0  -0.444722  0  3.923679  0  0  -0.1265  -0.417112  0  3.904644  0
C  C30  1  0.98064198  0.10667467  0.21012447  1  0  0.438597  0  3.670355  0  0  0.417423  0  3.95604  0  0  0.437388  0  3.965951  0  0  0.109872  0.403875  0  3.949161  0
C  C31  1  0.01935935  0.89332272  0.78987456  1  0  0.438692  0  3.67042  0  0  0.417482  0  3.956139  0  0  0.437448  0  3.966046  0  0  0.109884  0.403937  0  3.949262  0
C  C32  1  0.05673885  0.09907653  0.10790208  1  0  -0.400134  0  3.672479  0  0  -0.478205  0  3.90664  0  0  -0.483882  0  3.912833  0  0  -0.237818  -0.474014  0  3.902346  0
C  C33  1  0.94326390  0.90092084  0.89209763  1  0  -0.400076  0  3.672491  0  0  -0.478134  0  3.906651  0  0  -0.483809  0  3.912842  0  0  -0.237843  -0.473944  0  3.902355  0
S  S34  1  0.35595248  0.43855936  0.17232309  1  0  1.431118  0  5.528366  0  0  1.314229  0  6.078067  0  0  1.369826  0  6.052325  0  0  0.643518  1.276062  0  6.094762  0
S  S35  1  0.64406238  0.56142757  0.82767257  1  0  1.43124  0  5.528083  0  0  1.314313  0  6.077807  0  0  1.3699  0  6.052078  0  0  0.643556  1.27615  0  6.094503  0
S  S36  1  0.97006196  0.24873516  0.37240813  1  0  1.452863  0  5.527177  0  0  1.338244  0  6.058295  0  0  1.394345  0  6.034088  0  0  0.654169  1.299456  0  6.073935  0
S  S37  1  0.02992771  0.75128312  0.62759208  1  0  1.45263  0  5.527176  0  0  1.338016  0  6.058276  0  0  1.394118  0  6.03406  0  0  0.65404  1.299228  0  6.07391  0
N  N38  1  0.36075363  0.46004341  0.28560273  1  0  -0.722662  0  2.994582  0  0  -0.666966  0  3.292274  0  0  -0.697833  0  3.293781  0  0  -0.372863  -0.645829  0  3.290579  0
N  N39  1  0.63924773  0.53995100  0.71439576  1  0  -0.722688  0  2.994739  0  0  -0.667026  0  3.292494  0  0  -0.697883  0  3.293997  0  0  -0.372918  -0.645894  0  3.290815  0
N  N40  1  0.79805363  0.17591209  0.40034840  1  0  -0.73441  0  3.012848  0  0  -0.672291  0  3.306241  0  0  -0.704318  0  3.307351  0  0  -0.374033  -0.650085  0  3.304724  0
N  N41  1  0.20194407  0.82409274  0.59965244  1  0  -0.734423  0  3.012911  0  0  -0.672249  0  3.306287  0  0  -0.704277  0  3.307397  0  0  -0.374011  -0.650042  0  3.304766  0
O  O42  1  0.43907876  0.23269683  0.15610427  1  0  -0.5938  0  1.954634  0  0  -0.549689  0  2.200065  0  0  -0.570688  0  2.187842  0  0  -0.29389  -0.535118  0  2.20808  0
O  O43  1  0.56092583  0.76731396  0.84389379  1  0  -0.594009  0  1.954042  0  0  -0.549861  0  2.19946  0  0  -0.570857  0  2.18724  0  0  -0.293992  -0.535292  0  2.207476  0
O  O44  1  0.15879293  0.58279707  0.12493264  1  0  -0.612001  0  1.9337  0  0  -0.566796  0  2.176395  0  0  -0.589403  0  2.164457  0  0  -0.299  -0.550978  0  2.184007  0
O  O45  1  0.84120779  0.41719289  0.87506471  1  0  -0.611922  0  1.934098  0  0  -0.566695  0  2.176787  0  0  -0.589303  0  2.164857  0  0  -0.298883  -0.550865  0  2.184375  0
O  O46  1  0.53896994  0.50246958  0.12271477  1  0  -0.417394  0  2.167585  0  0  -0.343282  0  2.403072  0  0  -0.36465  0  2.397528  0  0  -0.162857  -0.328558  0  2.406466  0
O  O47  1  0.46102782  0.49752931  0.87728427  1  0  -0.417344  0  2.167519  0  0  -0.343196  0  2.402936  0  0  -0.364554  0  2.397397  0  0  -0.162843  -0.328473  0  2.406326  0
O  O48  1  0.38054850  0.62443387  0.40616573  1  0  -0.666607  0  2.018843  0  0  -0.581507  0  2.2599  0  0  -0.614723  0  2.252717  0  0  -0.281428  -0.557886  0  2.263826  0
O  O49  1  0.61945216  0.37556202  0.59383414  1  0  -0.666643  0  2.018809  0  0  -0.581535  0  2.259884  0  0  -0.61475  0  2.2527  0  0  -0.281431  -0.557913  0  2.263812  0
O  O50  1  0.89816308  0.45116438  0.39476773  1  0  -0.651141  0  1.97381  0  0  -0.601479  0  2.233566  0  0  -0.625085  0  2.219992  0  0  -0.291754  -0.584838  0  2.242414  0
O  O51  1  0.10183394  0.54883601  0.60523051  1  0  -0.6511  0  1.973486  0  0  -0.601444  0  2.233235  0  0  -0.625049  0  2.219658  0  0  -0.291735  -0.584811  0  2.242099  0
O  O52  1  0.18401233  0.10638390  0.40445495  1  0  -0.653198  0  2.009054  0  0  -0.601385  0  2.270517  0  0  -0.627716  0  2.260832  0  0  -0.28666  -0.582714  0  2.276661  0
O  O53  1  0.81598607  0.89362239  0.59554722  1  0  -0.65307  0  2.00916  0  0  -0.601293  0  2.270654  0  0  -0.627643  0  2.261016  0  0  -0.286614  -0.582623  0  2.276798  0
O  O54  1  0.97876464  0.26498940  0.25125025  1  0  -0.402761  0  2.161139  0  0  -0.326397  0  2.396128  0  0  -0.347577  0  2.391206  0  0  -0.154915  -0.311781  0  2.39917  0
O  O55  1  0.02123742  0.73500943  0.74875157  1  0  -0.402736  0  2.161239  0  0  -0.326343  0  2.396206  0  0  -0.347525  0  2.391296  0  0  -0.15487  -0.31173  0  2.399249  0
O  O56  1  0.66245884  0.96767184  0.37901225  1  0  -0.649577  0  1.966767  0  0  -0.581181  0  2.201889  0  0  -0.611351  0  2.194115  0  0  -0.283436  -0.559707  0  2.206528  0
O  O57  1  0.33753673  0.03233448  0.62098929  1  0  -0.64956  0  1.966732  0  0  -0.581133  0  2.201848  0  0  -0.611314  0  2.194105  0  0  -0.283413  -0.559659  0  2.206488  0
