# generated using pymatgen
data_SnH16C16(ClO)2
_symmetry_space_group_name_H-M   'P 1'
_cell_length_a   8.63896900
_cell_length_b   8.63892079
_cell_length_c   11.26652424
_cell_angle_alpha   87.59808731
_cell_angle_beta   87.59795979
_cell_angle_gamma   87.49435168
_symmetry_Int_Tables_number   1
_chemical_formula_structural   SnH16C16(ClO)2
_chemical_formula_sum   'Sn2 H32 C32 Cl4 O4'
_cell_volume   838.61734722
_cell_formula_units_Z   2
loop_
 _symmetry_equiv_pos_site_id
 _symmetry_equiv_pos_as_xyz
  1  'x, y, z'
loop_
 _atom_site_type_symbol
 _atom_site_label
 _atom_site_symmetry_multiplicity
 _atom_site_fract_x
 _atom_site_fract_y
 _atom_site_fract_z
 _atom_site_occupancy
 _atom_site_hle17_bader_spin_density
 _atom_site_hle17_ddec_charge
 _atom_site_hle17_ddec_spin_density
 _atom_site_hle17_ddec_sum_bond_order
 _atom_site_hle17_magmom
 _atom_site_hse06_10hf_bader_spin_density
 _atom_site_hse06_10hf_ddec_charge
 _atom_site_hse06_10hf_ddec_spin_density
 _atom_site_hse06_10hf_ddec_sum_bond_order
 _atom_site_hse06_10hf_magmom
 _atom_site_hse06_bader_spin_density
 _atom_site_hse06_ddec_charge
 _atom_site_hse06_ddec_spin_density
 _atom_site_hse06_ddec_sum_bond_order
 _atom_site_hse06_magmom
 _atom_site_pbe_bader_spin_density
 _atom_site_pbe_cm5_charge
 _atom_site_pbe_ddec_charge
 _atom_site_pbe_ddec_spin_density
 _atom_site_pbe_ddec_sum_bond_order
 _atom_site_pbe_magmom
Sn  Sn0  1  0.04510761  0.95136585  0.50305477  1  0  1.236396  0  2.845207  0  0  1.066493  0  3.313517  0  0  1.108308  0  3.29954  0  0  0.533711  1.037565  0  3.3232  0
Sn  Sn1  1  0.95136678  0.04510455  0.00305815  1  0  1.236392  0  2.845142  0  0  1.066421  0  3.313546  0  0  1.108238  0  3.29957  0  0  0.533692  1.037495  0  3.32323  0
H  H2  1  0.01229735  0.70418058  0.71484940  1  0  0.070531  0  0.99047  0  0  0.083035  0  1.054762  0  0  0.085156  0  1.053793  0  0  0.087538  0.081363  0  1.055729  0
H  H3  1  0.70417888  0.01229589  0.21485036  1  0  0.070529  0  0.990487  0  0  0.083029  0  1.054783  0  0  0.08515  0  1.053815  0  0  0.087548  0.081358  0  1.05575  0
H  H4  1  0.18596200  0.52708623  0.83218013  1  0  0.081725  0  0.955283  0  0  0.093274  0  1.015101  0  0  0.095776  0  1.014643  0  0  0.091638  0.091545  0  1.015317  0
H  H5  1  0.52708623  0.18596201  0.33218043  1  0  0.081661  0  0.955197  0  0  0.093186  0  1.015055  0  0  0.095685  0  1.014599  0  0  0.091597  0.091457  0  1.015271  0
H  H6  1  0.47160306  0.53401112  0.79748657  1  0  0.074853  0  0.988505  0  0  0.081194  0  1.061019  0  0  0.083545  0  1.060374  0  0  0.089859  0.079396  0  1.061672  0
H  H7  1  0.53401356  0.47160385  0.29748793  1  0  0.074843  0  0.988564  0  0  0.081217  0  1.06104  0  0  0.083553  0  1.060403  0  0  0.089872  0.079422  0  1.061691  0
H  H8  1  0.58249898  0.71314941  0.64100287  1  0  0.072112  0  0.989372  0  0  0.082935  0  1.054509  0  0  0.085134  0  1.054223  0  0  0.088668  0.081289  0  1.054933  0
H  H9  1  0.71315299  0.58249979  0.14100323  1  0  0.072016  0  0.989448  0  0  0.082926  0  1.054507  0  0  0.085099  0  1.054247  0  0  0.088656  0.081281  0  1.054933  0
H  H10  1  0.40990084  0.88395909  0.51813028  1  0  0.078017  0  0.955596  0  0  0.088078  0  1.020549  0  0  0.090865  0  1.019088  0  0  0.094659  0.086288  0  1.021161  0
H  H11  1  0.88395924  0.40989628  0.01813060  1  0  0.078032  0  0.955552  0  0  0.088095  0  1.020499  0  0  0.090881  0  1.01904  0  0  0.094668  0.086306  0  1.021111  0
H  H12  1  0.97374056  0.22275940  0.30754441  1  0  0.08347  0  0.984859  0  0  0.091811  0  1.053849  0  0  0.093584  0  1.054788  0  0  0.092452  0.090508  0  1.053287  0
H  H13  1  0.22275914  0.97374349  0.80754086  1  0  0.083473  0  0.984952  0  0  0.091879  0  1.053859  0  0  0.093654  0  1.054797  0  0  0.092482  0.090576  0  1.053296  0
H  H14  1  0.06911438  0.48404811  0.25849384  1  0  0.077659  0  0.963414  0  0  0.086689  0  1.028593  0  0  0.08934  0  1.02779  0  0  0.092609  0.084776  0  1.029236  0
H  H15  1  0.48405076  0.06911015  0.75849552  1  0  0.077664  0  0.963393  0  0  0.086682  0  1.028578  0  0  0.089333  0  1.027775  0  0  0.092605  0.084771  0  1.029219  0
H  H16  1  0.27165077  0.59125066  0.37914477  1  0  0.086713  0  0.986818  0  0  0.091048  0  1.059965  0  0  0.0941  0  1.058438  0  0  0.091679  0.088715  0  1.061311  0
H  H17  1  0.59125242  0.27165006  0.87914912  1  0  0.08673  0  0.986832  0  0  0.091116  0  1.059908  0  0  0.094173  0  1.058388  0  0  0.091693  0.088779  0  1.061264  0
H  H18  1  0.38138925  0.43324109  0.54737214  1  0  0.081414  0  0.980952  0  0  0.090701  0  1.044998  0  0  0.092684  0  1.045778  0  0  0.091034  0.089192  0  1.044656  0
H  H19  1  0.43323620  0.38138758  0.04737383  1  0  0.081476  0  0.980908  0  0  0.090719  0  1.045004  0  0  0.092699  0  1.04578  0  0  0.091065  0.089209  0  1.044656  0
H  H20  1  0.28847091  0.17083463  0.59727633  1  0  0.078659  0  0.975504  0  0  0.088208  0  1.043362  0  0  0.090113  0  1.043496  0  0  0.093488  0.086826  0  1.043353  0
H  H21  1  0.17082963  0.28847296  0.09727007  1  0  0.078645  0  0.975489  0  0  0.088196  0  1.043348  0  0  0.090099  0  1.043486  0  0  0.093508  0.086817  0  1.043331  0
H  H22  1  0.76014387  0.86770010  0.55867206  1  0  0.105786  0  0.988178  0  0  0.120132  0  1.048296  0  0  0.122562  0  1.04891  0  0  0.084726  0.118276  0  1.04816  0
H  H23  1  0.86770313  0.76013797  0.05867091  1  0  0.105832  0  0.988144  0  0  0.120147  0  1.048293  0  0  0.122581  0  1.048896  0  0  0.084731  0.118291  0  1.048157  0
H  H24  1  0.75967903  0.96581015  0.41803113  1  0  0.104213  0  1.002577  0  0  0.114766  0  1.070316  0  0  0.116631  0  1.072135  0  0  0.081282  0.113458  0  1.069027  0
H  H25  1  0.96581254  0.75967399  0.91803039  1  0  0.104226  0  1.002555  0  0  0.114787  0  1.070279  0  0  0.116651  0  1.072099  0  0  0.081299  0.113478  0  1.068993  0
H  H26  1  0.69882651  0.68060271  0.40182777  1  0  0.089293  0  0.953849  0  0  0.111345  0  1.015533  0  0  0.1116  0  1.01665  0  0  0.078052  0.111107  0  1.014758  0
H  H27  1  0.68060405  0.69881961  0.90182911  1  0  0.08927  0  0.953914  0  0  0.111299  0  1.015625  0  0  0.111553  0  1.016742  0  0  0.078048  0.111059  0  1.014851  0
H  H28  1  0.88062496  0.62421885  0.45965138  1  0  0.087224  0  0.963847  0  0  0.107042  0  1.029988  0  0  0.107695  0  1.031407  0  0  0.079763  0.106536  0  1.029043  0
H  H29  1  0.62422303  0.88061975  0.95965102  1  0  0.087187  0  0.963876  0  0  0.10702  0  1.029989  0  0  0.107672  0  1.031408  0  0  0.079771  0.106514  0  1.029044  0
H  H30  1  0.87215537  0.72492828  0.31993637  1  0  0.091696  0  0.960064  0  0  0.112863  0  1.023554  0  0  0.114132  0  1.023663  0  0  0.08191  0.111816  0  1.023705  0
H  H31  1  0.72493065  0.87215045  0.81993508  1  0  0.09173  0  0.960019  0  0  0.112851  0  1.023555  0  0  0.114122  0  1.023661  0  0  0.081902  0.111803  0  1.023707  0
H  H32  1  0.32366802  0.95001530  0.09014550  1  0  0.108835  0  0.957183  0  0  0.111396  0  1.017393  0  0  0.113312  0  1.018159  0  0  0.112561  0.110052  0  1.017013  0
H  H33  1  0.95000891  0.32366144  0.59015800  1  0  0.108741  0  0.957135  0  0  0.111315  0  1.017349  0  0  0.113227  0  1.018119  0  0  0.112522  0.109974  0  1.01696  0
C  C34  1  0.19811997  0.80761121  0.60883103  1  0  -0.2935  0  3.686622  0  0  -0.240876  0  3.941708  0  0  -0.252792  0  3.97112  0  0  -0.103765  -0.233019  0  3.921998  0
C  C35  1  0.80761164  0.19811860  0.10883288  1  0  -0.293527  0  3.686655  0  0  -0.240896  0  3.941716  0  0  -0.252813  0  3.971132  0  0  -0.103752  -0.233041  0  3.92201  0
C  C36  1  0.13727579  0.70693215  0.69795097  1  0  -0.064988  0  3.843993  0  0  -0.084221  0  4.087371  0  0  -0.084313  0  4.111232  0  0  -0.099604  -0.084249  0  4.071586  0
C  C37  1  0.70693244  0.13727348  0.19795201  1  0  -0.064919  0  3.843938  0  0  -0.084139  0  4.087283  0  0  -0.084231  0  4.111145  0  0  -0.099597  -0.084168  0  4.071499  0
C  C38  1  0.23485867  0.60799119  0.76516359  1  0  -0.075843  0  3.779543  0  0  -0.086243  0  4.025055  0  0  -0.089103  0  4.047037  0  0  -0.098307  -0.08439  0  4.010218  0
C  C39  1  0.60799521  0.23485909  0.26516549  1  0  -0.075762  0  3.779439  0  0  -0.086135  0  4.024956  0  0  -0.08899  0  4.04693  0  0  -0.098248  -0.084282  0  4.01012  0
C  C40  1  0.39529748  0.61142686  0.74542430  1  0  -0.070966  0  3.783542  0  0  -0.084521  0  4.028961  0  0  -0.085842  0  4.050898  0  0  -0.095094  -0.083232  0  4.014096  0
C  C41  1  0.61143113  0.39529693  0.24542815  1  0  -0.071061  0  3.7837  0  0  -0.084659  0  4.029153  0  0  -0.085962  0  4.051092  0  0  -0.095148  -0.083368  0  4.014272  0
C  C42  1  0.45726221  0.71202290  0.65733536  1  0  -0.079807  0  3.773169  0  0  -0.087897  0  4.012576  0  0  -0.091187  0  4.035367  0  0  -0.096726  -0.08561  0  3.996825  0
C  C43  1  0.71202371  0.45726117  0.15733664  1  0  -0.079683  0  3.773191  0  0  -0.087848  0  4.012585  0  0  -0.091116  0  4.035393  0  0  -0.096709  -0.085561  0  3.996836  0
C  C44  1  0.35938295  0.80877470  0.58849939  1  0  -0.046675  0  3.805013  0  0  -0.064385  0  4.046622  0  0  -0.064419  0  4.070052  0  0  -0.09288  -0.063858  0  4.030051  0
C  C45  1  0.80877466  0.35938060  0.08850233  1  0  -0.046669  0  3.804979  0  0  -0.064365  0  4.046583  0  0  -0.0644  0  4.070013  0  0  -0.092893  -0.06384  0  4.030015  0
C  C46  1  0.12583507  0.17694743  0.45489514  1  0  -0.325042  0  3.745054  0  0  -0.272585  0  4.00231  0  0  -0.285444  0  4.032588  0  0  -0.111483  -0.26392  0  3.981702  0
C  C47  1  0.17694131  0.12583692  0.95488927  1  0  -0.324982  0  3.744907  0  0  -0.272521  0  4.002167  0  0  -0.285384  0  4.032452  0  0  -0.111462  -0.263858  0  3.981561  0
C  C48  1  0.06442401  0.26679461  0.35987634  1  0  -0.059354  0  3.81635  0  0  -0.078438  0  4.059202  0  0  -0.078487  0  4.083462  0  0  -0.099395  -0.078337  0  4.042788  0
C  C49  1  0.26679009  0.06442831  0.85987286  1  0  -0.059365  0  3.816542  0  0  -0.078492  0  4.059348  0  0  -0.078542  0  4.08361  0  0  -0.099417  -0.078391  0  4.042934  0
C  C50  1  0.11814309  0.41482310  0.33214476  1  0  -0.07021  0  3.759454  0  0  -0.077595  0  3.999431  0  0  -0.08053  0  4.021135  0  0  -0.094462  -0.075575  0  3.984726  0
C  C51  1  0.41482041  0.11814305  0.83214482  1  0  -0.07024  0  3.75951  0  0  -0.077622  0  3.999524  0  0  -0.080558  0  4.021233  0  0  -0.094481  -0.075601  0  3.984817  0
C  C52  1  0.23242379  0.47456241  0.39920367  1  0  -0.064225  0  3.744483  0  0  -0.075579  0  3.986822  0  0  -0.077031  0  4.00831  0  0  -0.092673  -0.074454  0  3.972321  0
C  C53  1  0.47456089  0.23242362  0.89920286  1  0  -0.064275  0  3.744557  0  0  -0.075656  0  3.986817  0  0  -0.077119  0  4.008315  0  0  -0.092712  -0.074529  0  3.972317  0
C  C54  1  0.29380624  0.38590475  0.49398727  1  0  -0.065687  0  3.753246  0  0  -0.074274  0  3.991384  0  0  -0.077297  0  4.014004  0  0  -0.09616  -0.072138  0  3.975981  0
C  C55  1  0.38590032  0.29381034  0.99398478  1  0  -0.065742  0  3.753327  0  0  -0.074303  0  3.991496  0  0  -0.077317  0  4.014111  0  0  -0.096158  -0.072162  0  3.976088  0
C  C56  1  0.24106838  0.23757739  0.52169375  1  0  -0.068457  0  3.830283  0  0  -0.085481  0  4.071429  0  0  -0.085723  0  4.095396  0  0  -0.10121  -0.085262  0  4.055142  0
C  C57  1  0.23757411  0.24106848  0.02169005  1  0  -0.068452  0  3.830173  0  0  -0.085475  0  4.071305  0  0  -0.085718  0  4.095267  0  0  -0.10125  -0.085255  0  4.055023  0
C  C58  1  0.81819478  0.87216795  0.47006750  1  0  -0.424017  0  3.634797  0  0  -0.428542  0  3.899057  0  0  -0.439535  0  3.914762  0  0  -0.241079  -0.420997  0  3.888257  0
C  C59  1  0.87216833  0.81818832  0.97006613  1  0  -0.42413  0  3.634861  0  0  -0.428627  0  3.899086  0  0  -0.439621  0  3.914797  0  0  -0.241117  -0.421081  0  3.888288  0
C  C60  1  0.81814563  0.71748773  0.40981855  1  0  -0.230804  0  3.78176  0  0  -0.304817  0  4.028129  0  0  -0.305483  0  4.042333  0  0  -0.254051  -0.30406  0  4.018343  0
C  C61  1  0.71749099  0.81813845  0.90981814  1  0  -0.230728  0  3.781875  0  0  -0.304697  0  4.028247  0  0  -0.305365  0  4.042462  0  0  -0.25404  -0.303937  0  4.01846  0
C  C62  1  0.16148774  0.88530602  0.23479988  1  0  0.663885  0  3.858527  0  0  0.603793  0  4.165526  0  0  0.638293  0  4.156836  0  0  0.230702  0.580412  0  4.170741  0
C  C63  1  0.88529261  0.16148527  0.73480796  1  0  0.663988  0  3.857833  0  0  0.60393  0  4.164784  0  0  0.63843  0  4.156099  0  0  0.230886  0.580549  0  4.17  0
C  C64  1  0.30296549  0.84940034  0.15035670  1  0  -0.005418  0  3.580154  0  0  -0.017848  0  3.85689  0  0  -0.015821  0  3.860316  0  0  -0.014902  -0.019547  0  3.854795  0
C  C65  1  0.84939040  0.30296822  0.65036821  1  0  -0.005253  0  3.580104  0  0  -0.017714  0  3.856879  0  0  -0.015686  0  3.860309  0  0  -0.014825  -0.019413  0  3.854785  0
Cl  Cl66  1  0.47547452  0.80586164  0.22699742  1  0  -0.063782  0  1.331586  0  0  -0.047347  0  1.56939  0  0  -0.048926  0  1.560254  0  0  0.018105  -0.046092  0  1.5756  0
Cl  Cl67  1  0.80586025  0.47547892  0.72700702  1  0  -0.063796  0  1.331621  0  0  -0.047377  0  1.569465  0  0  -0.048958  0  1.560333  0  0  0.018069  -0.046122  0  1.575676  0
Cl  Cl68  1  0.25961521  0.69411920  0.05939014  1  0  -0.077656  0  1.280078  0  0  -0.061353  0  1.510799  0  0  -0.064105  0  1.504489  0  0  0.013266  -0.059173  0  1.515274  0
Cl  Cl69  1  0.69411409  0.25961784  0.55939539  1  0  -0.077682  0  1.28004  0  0  -0.061373  0  1.510774  0  0  -0.064127  0  1.504466  0  0  0.013239  -0.059194  0  1.51525  0
O  O70  1  0.17830247  0.85359176  0.34438106  1  0  -0.583394  0  2.115917  0  0  -0.512972  0  2.363956  0  0  -0.539855  0  2.35782  0  0  -0.264999  -0.494373  0  2.367611  0
O  O71  1  0.85357313  0.17829347  0.84439045  1  0  -0.583502  0  2.115713  0  0  -0.513079  0  2.363766  0  0  -0.53994  0  2.357582  0  0  -0.265091  -0.494478  0  2.367422  0
O  O72  1  0.04022324  0.94342760  0.18941996  1  0  -0.602641  0  2.054377  0  0  -0.539791  0  2.304472  0  0  -0.566905  0  2.298632  0  0  -0.27089  -0.520803  0  2.307801  0
O  O73  1  0.94342394  0.04022200  0.68942128  1  0  -0.602688  0  2.053797  0  0  -0.539875  0  2.303896  0  0  -0.566987  0  2.298052  0  0  -0.270974  -0.520888  0  2.307226  0
