# generated using pymatgen
data_Zr3H19C44Br2Cl5O16
_symmetry_space_group_name_H-M   'P 1'
_cell_length_a   19.20622721
_cell_length_b   19.15525191
_cell_length_c   19.17904647
_cell_angle_alpha   59.56226089
_cell_angle_beta   59.87120339
_cell_angle_gamma   59.99310276
_symmetry_Int_Tables_number   1
_chemical_formula_structural   Zr3H19C44Br2Cl5O16
_chemical_formula_sum   'Zr6 H38 C88 Br4 Cl10 O32'
_cell_volume   4967.52863929
_cell_formula_units_Z   2
loop_
 _symmetry_equiv_pos_site_id
 _symmetry_equiv_pos_as_xyz
  1  'x, y, z'
loop_
 _atom_site_type_symbol
 _atom_site_label
 _atom_site_symmetry_multiplicity
 _atom_site_fract_x
 _atom_site_fract_y
 _atom_site_fract_z
 _atom_site_occupancy
 _atom_site_pbe_bader_charge
 _atom_site_pbe_bader_spin_density
 _atom_site_pbe_cm5_charge
 _atom_site_pbe_ddec_charge
 _atom_site_pbe_ddec_spin_density
 _atom_site_pbe_ddec_sum_bond_order
 _atom_site_pbe_magmom
Zr  Zr0  1  0.90715065  0.40787344  0.59214116  1  2.636454  0  1.628756  2.379962  0  2.760876  0
Zr  Zr1  1  0.09281684  0.59162840  0.40840036  1  2.633697  0  1.628927  2.380023  0  2.760831  0
Zr  Zr2  1  0.09135706  0.40604629  0.59400721  1  2.634926  0  1.623027  2.377928  0  2.740023  0
Zr  Zr3  1  0.90858292  0.59349154  0.40656918  1  2.634331  0  1.622846  2.377638  0  2.741175  0
Zr  Zr4  1  0.90806323  0.59168828  0.59217019  1  2.635444  0  1.628508  2.380245  0  2.759488  0
Zr  Zr5  1  0.09187326  0.40787024  0.40836482  1  2.634888  0  1.627702  2.380165  0  2.758457  0
H  H6  1  0.92652190  0.42630356  0.71885221  1  0.603268  0  0.330998  0.422402  0  0.857567  0
H  H7  1  0.92831034  0.71833993  0.42680977  1  0.613907  0  0.331272  0.422695  0  0.857471  0
H  H8  1  0.21725747  0.42670977  0.42842752  1  0.620762  0  0.331574  0.423972  0  0.855451  0
H  H9  1  0.92760057  0.42790044  0.42721814  1  0.616666  0  0.331682  0.424273  0  0.854817  0
H  H10  1  0.45371517  0.61342545  0.04655617  1  0.064975  0  0.102936  0.112353  0  1.025612  0
H  H11  1  0.54672208  0.38567941  0.95440244  1  0.063557  0  0.103177  0.112885  0  1.025236  0
H  H12  1  0.68086667  0.60735448  0.81571686  1  0.083448  0  0.107316  0.111854  0  1.013273  0
H  H13  1  0.55445339  0.61219361  0.94516389  1  0.044885  0  0.105557  0.109389  0  1.005522  0
H  H14  1  0.31582235  0.39559405  0.18120205  1  0.113572  0  0.107262  0.1121  0  1.013671  0
H  H15  1  0.44521663  0.38780685  0.05478245  1  0.048109  0  0.105645  0.109432  0  1.005858  0
H  H16  1  0.11305543  0.95414792  0.38574952  1  0.079112  0  0.102688  0.112385  0  1.025835  0
H  H17  1  0.88613850  0.04630270  0.61348634  1  0.075273  0  0.103032  0.112539  0  1.025495  0
H  H18  1  0.10729641  0.18089398  0.39587181  1  0.127291  0  0.107214  0.111735  0  1.013347  0
H  H19  1  0.11201999  0.05463858  0.38786734  1  0.086579  0  0.105566  0.109454  0  1.005346  0
H  H20  1  0.89592770  0.81548874  0.60757279  1  0.120829  0  0.107206  0.111865  0  1.013583  0
H  H21  1  0.88801354  0.94503353  0.61224825  1  0.048546  0  0.105719  0.10934  0  1.005708  0
H  H22  1  0.45311653  0.04786862  0.38617212  1  0.058422  0  0.102852  0.112306  0  1.025033  0
H  H23  1  0.54792752  0.95290869  0.61319731  1  0.089144  0  0.102678  0.112174  0  1.025083  0
H  H24  1  0.67945085  0.81649483  0.39637781  1  0.091599  0  0.108911  0.113808  0  1.004479  0
H  H25  1  0.55345245  0.94612499  0.38836333  1  0.075199  0  0.105143  0.108405  0  1.00695  0
H  H26  1  0.31714987  0.17972072  0.60755218  1  0.088643  0  0.109382  0.114563  0  1.003525  0
H  H27  1  0.44681421  0.05385247  0.61179163  1  0.072189  0  0.105337  0.108276  0  1.007501  0
H  H28  1  0.88607398  0.61317102  0.95305028  1  0.053607  0  0.102627  0.112235  0  1.025788  0
H  H29  1  0.11296324  0.38615497  0.04803380  1  0.088488  0  0.102805  0.112408  0  1.025339  0
H  H30  1  0.89558044  0.60732018  0.18013876  1  0.133773  0  0.109264  0.114235  0  1.003711  0
H  H31  1  0.88764781  0.61175858  0.05411146  1  0.042801  0  0.105281  0.108187  0  1.006945  0
H  H32  1  0.10775825  0.39613257  0.81689472  1  0.135152  0  0.108838  0.113748  0  1.004694  0
H  H33  1  0.11217663  0.38833779  0.94638512  1  0.041779  0  0.105137  0.10806  0  1.007742  0
H  H34  1  0.11315182  0.81994241  0.17717006  1  0.142878  0  0.096256  0.107733  0  1.0595  0
H  H35  1  0.89036843  0.81915307  0.17779737  1  0.141907  0  0.098135  0.110636  0  1.049251  0
H  H36  1  0.88971583  0.17666056  0.82051338  1  0.110599  0  0.096374  0.108216  0  1.058602  0
H  H37  1  0.11265820  0.17727147  0.81972955  1  0.143064  0  0.097921  0.110531  0  1.048922  0
H  H38  1  0.45357673  0.38492585  0.61431036  1  0.033342  0  0.102811  0.112285  0  1.025803  0
H  H39  1  0.54728912  0.61405953  0.38519296  1  0.071928  0  0.102695  0.111995  0  1.025346  0
H  H40  1  0.68028421  0.39587125  0.60743412  1  0.130158  0  0.107755  0.112887  0  1.011338  0
H  H41  1  0.55436436  0.38744105  0.61268738  1  0.080423  0  0.104731  0.108282  0  1.006196  0
H  H42  1  0.31627249  0.60704586  0.39632446  1  0.133564  0  0.107716  0.112609  0  1.011074  0
H  H43  1  0.44539592  0.61245304  0.38773316  1  0.081886  0  0.105088  0.10861  0  1.005528  0
C  C44  1  0.76332461  0.49924821  0.73227195  1  1.56899  0  0.233661  0.648601  0  4.101342  0
C  C45  1  0.00510158  0.73185713  0.49966621  1  1.565368  0  0.234957  0.651102  0  4.098662  0
C  C46  1  0.23238902  0.50459616  0.26383164  1  1.566018  0  0.234115  0.650883  0  4.099347  0
C  C47  1  0.99918888  0.26333911  0.50503781  1  1.572886  0  0.233491  0.649884  0  4.099683  0
C  C48  1  0.00160463  0.26156485  0.73438558  1  1.544454  0  0.237976  0.642399  0  4.087767  0
C  C49  1  0.76345155  0.50577140  0.49849781  1  1.569087  0  0.233502  0.648838  0  4.098337  0
C  C50  1  0.00247592  0.73384188  0.26208227  1  1.545329  0  0.237068  0.641135  0  4.088334  0
C  C51  1  0.23228430  0.49798061  0.50629408  1  1.574332  0  0.233364  0.646489  0  4.101794  0
C  C52  1  0.99937800  0.50389888  0.73296591  1  1.57318  0  0.233403  0.6485  0  4.100628  0
C  C53  1  0.23128114  0.26211645  0.50115154  1  1.556922  0  0.234431  0.650177  0  4.097414  0
C  C54  1  0.00541256  0.50072979  0.26260520  1  1.567728  0  0.234544  0.650644  0  4.098671  0
C  C55  1  0.76380966  0.73254574  0.50429155  1  1.56537  0  0.234172  0.650407  0  4.100269  0
C  C56  1  0.31067969  0.50705018  0.18630122  1  0.047573  0  -0.020116  -0.106466  0  3.919114  0
C  C57  1  0.68599025  0.49584424  0.81074370  1  0.048722  0  -0.019994  -0.105905  0  3.920051  0
C  C58  1  0.35181763  0.56828339  0.14637885  1  0.027357  0  0.025901  0.155221  0  4.000112  0
C  C59  1  0.42523059  0.56435241  0.07436412  1  0.076596  0  -0.094218  -0.202339  0  3.959818  0
C  C60  1  0.64625790  0.43318562  0.85213865  1  0.023815  0  0.025751  0.155134  0  4.000151  0
C  C61  1  0.57431071  0.43567955  0.92561949  1  0.070725  0  -0.094634  -0.203462  0  3.959285  0
C  C62  1  0.65010244  0.55915764  0.84734334  1  -0.009993  0  -0.077578  -0.064975  0  3.982427  0
C  C63  1  0.57869696  0.56134435  0.92040747  1  -0.046972  0  -0.089751  -0.137658  0  3.971539  0
C  C64  1  0.34734664  0.44299948  0.15041450  1  -0.0529  0  -0.077379  -0.065642  0  3.983332  0
C  C65  1  0.42037768  0.43921372  0.07899959  1  -0.051106  0  -0.090487  -0.138016  0  3.972952  0
C  C66  1  0.46122340  0.50054533  0.03873824  1  0.005193  0  0.002002  0.096953  0  3.980241  0
C  C67  1  0.53853811  0.49931535  0.96141241  1  -0.039951  0  0.001973  0.097138  0  3.978905  0
C  C68  1  0.00731436  0.81043903  0.49609699  1  0.034936  0  -0.020552  -0.107067  0  3.920703  0
C  C69  1  0.99591176  0.18589545  0.50736828  1  0.006033  0  -0.019751  -0.106069  0  3.919634  0
C  C70  1  0.06828415  0.85184624  0.43336904  1  0.0031  0  0.025772  0.155452  0  4.000549  0
C  C71  1  0.06424845  0.92538423  0.43576514  1  -0.012606  0  -0.093131  -0.202212  0  3.95853  0
C  C72  1  0.93341375  0.14601972  0.56851857  1  0.048875  0  0.025537  0.15437  0  3.999833  0
C  C73  1  0.93590640  0.07410312  0.56446218  1  -0.012607  0  -0.094596  -0.202521  0  3.960055  0
C  C74  1  0.05914703  0.15010567  0.44324374  1  0.013281  0  -0.077264  -0.064951  0  3.982068  0
C  C75  1  0.06127411  0.07878198  0.43933578  1  -0.102127  0  -0.089996  -0.137966  0  3.971134  0
C  C76  1  0.94325680  0.84710731  0.55934191  1  0.013319  0  -0.077295  -0.064865  0  3.9826  0
C  C77  1  0.93938995  0.92023265  0.56142514  1  -0.054627  0  -0.090125  -0.137711  0  3.972385  0
C  C78  1  0.00058415  0.96122004  0.49936977  1  0.056431  0  0.001454  0.096588  0  3.979421  0
C  C79  1  0.99935514  0.03852817  0.50062380  1  0.004629  0  0.001941  0.097189  0  3.979668  0
C  C80  1  0.31039178  0.18552947  0.49680976  1  0.02717  0  -0.0195  -0.106568  0  3.919586  0
C  C81  1  0.68612569  0.81061471  0.50718740  1  0.047634  0  -0.019842  -0.10682  0  3.919261  0
C  C82  1  0.35128442  0.14660042  0.43401537  1  0.002289  0  0.026217  0.154799  0  3.998609  0
C  C83  1  0.42494721  0.07493976  0.43610734  1  0.080999  0  -0.094691  -0.203895  0  3.957601  0
C  C84  1  0.64695254  0.85129818  0.56822604  1  0.057923  0  0.026243  0.155805  0  3.999273  0
C  C85  1  0.57506344  0.92477525  0.56431644  1  0.023484  0  -0.094537  -0.204465  0  3.958798  0
C  C86  1  0.64942605  0.84778399  0.44347769  1  -0.063234  0  -0.076967  -0.064186  0  3.981983  0
C  C87  1  0.57816523  0.92089074  0.43964786  1  -0.051021  0  -0.090094  -0.13766  0  3.972525  0
C  C88  1  0.34809247  0.14938883  0.55949665  1  0.000608  0  -0.077356  -0.065114  0  3.983221  0
C  C89  1  0.42136194  0.07835333  0.56125657  1  -0.052148  0  -0.089985  -0.137154  0  3.972219  0
C  C90  1  0.46155876  0.03868805  0.49942893  1  -0.024428  0  0.002331  0.097729  0  3.975622  0
C  C91  1  0.53875729  0.96133921  0.50068111  1  0.015678  0  0.002504  0.097346  0  3.976725  0
C  C92  1  0.99614801  0.50693608  0.81094238  1  0.040066  0  -0.018849  -0.105316  0  3.917583  0
C  C93  1  0.00729137  0.49657569  0.18589140  1  -0.008452  0  -0.020294  -0.108297  0  3.919762  0
C  C94  1  0.93362546  0.56806230  0.85153374  1  -5.4e-05  0  0.026424  0.155108  0  3.999445  0
C  C95  1  0.93593797  0.56423874  0.92497448  1  0.024066  0  -0.094182  -0.203952  0  3.960093  0
C  C96  1  0.06817151  0.43387358  0.14686352  1  0.049317  0  0.026402  0.155801  0  3.998428  0
C  C97  1  0.06409430  0.43605526  0.07515081  1  0.055526  0  -0.094557  -0.203934  0  3.957579  0
C  C98  1  0.94305638  0.55931359  0.14974286  1  0.002218  0  -0.076728  -0.063573  0  3.981363  0
C  C99  1  0.93911433  0.56118271  0.07861890  1  -0.062371  0  -0.090445  -0.137773  0  3.972099  0
C  C100  1  0.05939853  0.44328660  0.84811468  1  -0.06445  0  -0.077756  -0.065187  0  3.982609  0
C  C101  1  0.06139252  0.43958227  0.92115373  1  -0.014272  0  -0.089699  -0.136548  0  3.972753  0
C  C102  1  0.99931279  0.50063787  0.96156403  1  0.026249  0  0.002193  0.096799  0  3.978277  0
C  C103  1  0.00041418  0.49939929  0.03890429  1  -0.009464  0  0.002416  0.0974  0  3.976524  0
C  C104  1  0.06461218  0.84978466  0.14774970  1  0.002317  0  -0.080993  -0.124415  0  3.91881  0
C  C105  1  0.06515017  0.92401037  0.07484332  1  0.003403  0  -0.00904  0.045217  0  4.004946  0
C  C106  1  0.12893584  0.96403215  0.03576458  1  -0.09165  0  -0.021858  0.012385  0  3.939818  0
C  C107  1  0.93840718  0.84932148  0.14813294  1  -0.007986  0  -0.08279  -0.126856  0  3.925963  0
C  C108  1  0.93623412  0.92356828  0.07528731  1  0.014635  0  -0.009678  0.043165  0  4.012658  0
C  C109  1  0.87144799  0.96320335  0.03662631  1  -0.026835  0  -0.022049  0.011991  0  3.940412  0
C  C110  1  0.93785137  0.14724716  0.85035081  1  0.001541  0  -0.082035  -0.126555  0  3.919638  0
C  C111  1  0.93599798  0.07432331  0.92456683  1  0.023297  0  -0.008857  0.046538  0  4.00587  0
C  C112  1  0.87125089  0.03528824  0.96456386  1  -0.088564  0  -0.021842  0.011791  0  3.942564  0
C  C113  1  0.06412357  0.14761402  0.84987556  1  -0.008248  0  -0.08305  -0.128005  0  3.925941  0
C  C114  1  0.06492411  0.07473274  0.92409631  1  0.055604  0  -0.009344  0.044229  0  4.013132  0
C  C115  1  0.12877224  0.03609019  0.96366935  1  -0.026896  0  -0.022256  0.011426  0  3.94008  0
C  C116  1  0.00199788  0.81286113  0.18374172  1  -0.045705  0  -0.015114  -0.021382  0  3.977104  0
C  C117  1  0.00051022  0.96197394  0.03716148  1  0.030212  0  0.006762  0.016932  0  3.910728  0
C  C118  1  0.00139068  0.18325501  0.81341448  1  0.015037  0  -0.014762  -0.020227  0  3.976023  0
C  C119  1  0.00036302  0.03661557  0.96252299  1  -0.067746  0  0.006515  0.015284  0  3.912506  0
C  C120  1  0.31071862  0.49484710  0.50837515  1  -0.041536  0  -0.018834  -0.103621  0  3.911921  0
C  C121  1  0.68608604  0.50794746  0.49526378  1  -0.032389  0  -0.018878  -0.103727  0  3.910878  0
C  C122  1  0.35188352  0.43221561  0.56951314  1  0.069365  0  0.024753  0.152774  0  4.000837  0
C  C123  1  0.42522589  0.43501240  0.56518131  1  0.033161  0  -0.094772  -0.203455  0  3.957777  0
C  C124  1  0.64647744  0.56912999  0.43259556  1  0.075593  0  0.024556  0.152931  0  3.999359  0
C  C125  1  0.57465440  0.56489655  0.43529946  1  -0.010626  0  -0.094725  -0.203142  0  3.957155  0
C  C126  1  0.64989105  0.44342540  0.55901238  1  0.021919  0  -0.077188  -0.06548  0  3.978625  0
C  C127  1  0.57864511  0.43930051  0.56142243  1  -0.103455  0  -0.089369  -0.135898  0  3.968909  0
C  C128  1  0.34759672  0.55866793  0.44382804  1  0.018138  0  -0.07749  -0.064884  0  3.976894  0
C  C129  1  0.42055768  0.56117392  0.43961468  1  -0.087647  0  -0.089296  -0.13653  0  3.967666  0
C  C130  1  0.46137124  0.49907949  0.50092865  1  0.055023  0  0.001654  0.096633  0  3.974494  0
C  C131  1  0.53863680  0.50067323  0.49931476  1  0.013714  0  0.002478  0.096445  0  3.974732  0
Br  Br132  1  0.21321142  0.08784178  0.91299796  1  -0.035468  0  0.029729  -0.049214  0  1.461069  0
Br  Br133  1  0.21332258  0.91406955  0.08690788  1  -0.024448  0  0.035208  -0.047834  0  1.527218  0
Br  Br134  1  0.78567563  0.08652704  0.91458697  1  -0.027743  0  0.035332  -0.047544  0  1.527858  0
Br  Br135  1  0.78582178  0.91264911  0.08841584  1  -0.039366  0  0.02948  -0.049645  0  1.460969  0
Cl  Cl136  1  0.31741009  0.65195923  0.18049628  1  -0.189368  0  -0.008703  -0.074715  0  1.533581  0
Cl  Cl137  1  0.68111571  0.34905335  0.81847256  1  -0.187276  0  -0.008675  -0.075069  0  1.532514  0
Cl  Cl138  1  0.15121032  0.81810524  0.34927840  1  -0.186228  0  -0.008839  -0.075257  0  1.533104  0
Cl  Cl139  1  0.85001018  0.18011444  0.65219773  1  -0.186702  0  -0.00861  -0.074487  0  1.532621  0
Cl  Cl140  1  0.31634382  0.18175539  0.35046660  1  -0.187794  0  -0.008553  -0.075641  0  1.501787  0
Cl  Cl141  1  0.68227314  0.81649931  0.65139499  1  -0.191821  0  -0.008549  -0.075954  0  1.502553  0
Cl  Cl142  1  0.84997220  0.65123076  0.81666345  1  -0.186924  0  -0.008768  -0.075902  0  1.502345  0
Cl  Cl143  1  0.15151981  0.35030048  0.18197753  1  -0.189496  0  -0.008565  -0.075731  0  1.502057  0
Cl  Cl144  1  0.31749912  0.34779459  0.65357042  1  -0.197162  0  -0.011352  -0.080133  0  1.497259  0
Cl  Cl145  1  0.68131479  0.65315533  0.34820110  1  -0.192819  0  -0.011365  -0.080238  0  1.497163  0
O  O146  1  0.79484723  0.44235824  0.69871204  1  -1.173208  0  -0.366083  -0.625237  0  2.379732  0
O  O147  1  0.06408535  0.69819513  0.44287508  1  -1.175963  0  -0.366591  -0.62595  0  2.379154  0
O  O148  1  0.19968615  0.56275580  0.29611444  1  -1.167355  0  -0.366412  -0.626832  0  2.382012  0
O  O149  1  0.94150982  0.29555805  0.56326127  1  -1.185189  0  -0.365644  -0.625646  0  2.380271  0
O  O150  1  0.06114625  0.29199643  0.70385001  1  -1.177981  0  -0.358379  -0.617379  0  2.276375  0
O  O151  1  0.79591679  0.56459155  0.44072377  1  -1.178755  0  -0.364895  -0.626914  0  2.373283  0
O  O152  1  0.94304463  0.70329376  0.29251414  1  -1.182242  0  -0.357961  -0.616872  0  2.276821  0
O  O153  1  0.19881492  0.44017696  0.56512488  1  -1.182412  0  -0.364697  -0.626051  0  2.372105  0
O  O154  1  0.94234205  0.56255176  0.69916921  1  -1.182291  0  -0.365546  -0.624169  0  2.381837  0
O  O155  1  0.19820997  0.29490005  0.44342715  1  -1.180693  0  -0.365333  -0.623655  0  2.378989  0
O  O156  1  0.06340729  0.44295636  0.29538747  1  -1.173546  0  -0.365275  -0.623972  0  2.380423  0
O  O157  1  0.79591303  0.69871686  0.56300365  1  -1.169455  0  -0.365703  -0.62513  0  2.3824  0
O  O158  1  0.20274226  0.29039799  0.56145629  1  -1.176112  0  -0.348212  -0.61542  0  2.257536  0
O  O159  1  0.94532810  0.56096235  0.29096656  1  -1.185174  0  -0.34786  -0.614948  0  2.257924  0
O  O160  1  0.79361597  0.70565152  0.44267728  1  -1.175598  0  -0.34708  -0.612872  0  2.258783  0
O  O161  1  0.05807453  0.44224602  0.70612857  1  -1.175872  0  -0.346997  -0.612244  0  2.259008  0
O  O162  1  0.94211846  0.29258323  0.70443784  1  -1.175055  0  -0.345055  -0.602576  0  2.278593  0
O  O163  1  0.20468383  0.55773630  0.44497129  1  -1.176841  0  -0.345715  -0.608459  0  2.268957  0
O  O164  1  0.06086846  0.70392256  0.29312664  1  -1.17562  0  -0.344909  -0.602187  0  2.279369  0
O  O165  1  0.79260698  0.44440974  0.55824461  1  -1.178958  0  -0.345827  -0.610122  0  2.267681  0
O  O166  1  0.05873393  0.29299259  0.44418482  1  -1.176599  0  -0.34773  -0.612272  0  2.27117  0
O  O167  1  0.79350698  0.55818453  0.70458433  1  -1.17396  0  -0.34764  -0.61138  0  2.272625  0
O  O168  1  0.94368064  0.70417499  0.55863680  1  -1.175177  0  -0.348232  -0.612779  0  2.271951  0
O  O169  1  0.20405710  0.44374215  0.29347354  1  -1.176252  0  -0.347646  -0.612363  0  2.270944  0
O  O170  1  0.94806175  0.44883901  0.44761393  1  -1.245062  0  -0.69558  -1.068049  0  2.36602  0
O  O171  1  0.15545991  0.44709760  0.44937334  1  -1.248955  0  -0.695308  -1.06734  0  2.365887  0
O  O172  1  0.94870274  0.65618069  0.44743581  1  -1.243197  0  -0.694855  -1.068301  0  2.365061  0
O  O173  1  0.94767760  0.44691805  0.65669480  1  -1.232435  0  -0.694507  -1.068047  0  2.364634  0
O  O174  1  0.03831323  0.53708676  0.53905981  1  -1.197766  0  -0.792633  -1.148057  0  2.1328  0
O  O175  1  0.88552624  0.53854392  0.53760058  1  -1.195905  0  -0.792483  -1.147491  0  2.131377  0
O  O176  1  0.03845948  0.53886851  0.38497796  1  -1.193443  0  -0.791444  -1.149504  0  2.128029  0
O  O177  1  0.03767847  0.38448978  0.53936497  1  -1.195752  0  -0.791775  -1.150424  0  2.129859  0
