# generated using pymatgen
data_CdH24C24(N7O3)2
_symmetry_space_group_name_H-M   'P 1'
_cell_length_a   8.31372573
_cell_length_b   8.55403025
_cell_length_c   21.19000000
_cell_angle_alpha   90.00000000
_cell_angle_beta   90.00000000
_cell_angle_gamma   106.07634005
_symmetry_Int_Tables_number   1
_chemical_formula_structural   CdH24C24(N7O3)2
_chemical_formula_sum   'Cd2 H48 C48 N28 O12'
_cell_volume   1448.01388673
_cell_formula_units_Z   2
loop_
 _symmetry_equiv_pos_site_id
 _symmetry_equiv_pos_as_xyz
  1  'x, y, z'
loop_
 _atom_site_type_symbol
 _atom_site_label
 _atom_site_symmetry_multiplicity
 _atom_site_fract_x
 _atom_site_fract_y
 _atom_site_fract_z
 _atom_site_occupancy
 _atom_site_hle17_bader_spin_density
 _atom_site_hle17_ddec_charge
 _atom_site_hle17_ddec_spin_density
 _atom_site_hle17_ddec_sum_bond_order
 _atom_site_hle17_magmom
 _atom_site_hse06_10hf_bader_spin_density
 _atom_site_hse06_10hf_ddec_charge
 _atom_site_hse06_10hf_ddec_spin_density
 _atom_site_hse06_10hf_ddec_sum_bond_order
 _atom_site_hse06_10hf_magmom
 _atom_site_hse06_bader_spin_density
 _atom_site_hse06_ddec_charge
 _atom_site_hse06_ddec_spin_density
 _atom_site_hse06_ddec_sum_bond_order
 _atom_site_hse06_magmom
 _atom_site_pbe_bader_charge
 _atom_site_pbe_bader_spin_density
 _atom_site_pbe_cm5_charge
 _atom_site_pbe_ddec_charge
 _atom_site_pbe_ddec_spin_density
 _atom_site_pbe_ddec_sum_bond_order
 _atom_site_pbe_magmom
Cd  Cd0  1  0.00000001  0.49999922  0.49999953  1  0  1.05758  0  1.773643  0  0  0.850029  0  2.230262  0  0  0.903369  0  2.184816  0  1.269228  0  0.785995  0.812008  0  2.261368  0
Cd  Cd1  1  0.00000069  0.00000243  0.99999906  1  0  1.057554  0  1.773646  0  0  0.849975  0  2.230269  0  0  0.90331  0  2.184832  0  1.269248  0  0.785958  0.811953  0  2.261377  0
H  H2  1  0.20969081  0.88590165  0.43931005  1  0  0.099795  0  0.941308  0  0  0.109328  0  1.003085  0  0  0.111461  0  1.000502  0  0.175326  0  0.134417  0.107678  0  1.005017  0
H  H3  1  0.20969648  0.38590973  0.06069278  1  0  0.099788  0  0.941277  0  0  0.109285  0  1.00309  0  0  0.111411  0  1.000519  0  0.175257  0  0.134364  0.107636  0  1.005022  0
H  H4  1  0.79031043  0.11409922  0.56069042  1  0  0.09982  0  0.941282  0  0  0.10936  0  1.003041  0  0  0.111511  0  1.000438  0  0.175319  0  0.13442  0.10771  0  1.004973  0
H  H5  1  0.79030390  0.61409236  0.93930816  1  0  0.099813  0  0.941307  0  0  0.109311  0  1.003108  0  0  0.111436  0  1.000537  0  0.175259  0  0.134386  0.107663  0  1.005039  0
H  H6  1  0.68834513  0.68083719  0.44449646  1  0  0.109949  0  0.948769  0  0  0.116831  0  1.015683  0  0  0.119189  0  1.012657  0  0.187466  0  0.138509  0.115044  0  1.017875  0
H  H7  1  0.68835337  0.18084162  0.05550401  1  0  0.109927  0  0.948789  0  0  0.116799  0  1.015729  0  0  0.119155  0  1.012704  0  0.187506  0  0.138489  0.115012  0  1.017923  0
H  H8  1  0.31165611  0.31916369  0.55550448  1  0  0.109936  0  0.948775  0  0  0.116814  0  1.015703  0  0  0.11917  0  1.012677  0  0.187448  0  0.13851  0.115026  0  1.017893  0
H  H9  1  0.31164787  0.81915926  0.94449693  1  0  0.109908  0  0.948838  0  0  0.116793  0  1.015755  0  0  0.119143  0  1.012731  0  0.187494  0  0.138495  0.115007  0  1.017947  0
H  H10  1  0.79919084  0.13191414  0.39173856  1  0  0.096928  0  0.938181  0  0  0.107889  0  1.00772  0  0  0.108972  0  1.007418  0  0.10437  0  0.117566  0.107094  0  1.007935  0
H  H11  1  0.79919069  0.63191701  0.10826286  1  0  0.096914  0  0.938257  0  0  0.107871  0  1.00781  0  0  0.108953  0  1.007511  0  0.104574  0  0.117557  0.107076  0  1.008022  0
H  H12  1  0.20080764  0.86808551  0.60826192  1  0  0.096908  0  0.938194  0  0  0.107859  0  1.007759  0  0  0.108943  0  1.007456  0  0.104604  0  0.117559  0.107064  0  1.007974  0
H  H13  1  0.20080659  0.36808264  0.89173856  1  0  0.096913  0  0.938228  0  0  0.107844  0  1.007808  0  0  0.108927  0  1.007509  0  0.104572  0  0.117547  0.107049  0  1.008022  0
H  H14  1  0.64704872  0.01067460  0.44451345  1  0  0.096689  0  0.938259  0  0  0.105074  0  1.012391  0  0  0.106318  0  1.01079  0  0.110759  0  0.113736  0.104104  0  1.013563  0
H  H15  1  0.64705029  0.51067504  0.05548749  1  0  0.096712  0  0.938278  0  0  0.105093  0  1.012415  0  0  0.106334  0  1.010817  0  0.110786  0  0.113747  0.104123  0  1.013584  0
H  H16  1  0.35295182  0.98932384  0.55548655  1  0  0.09666  0  0.938291  0  0  0.105048  0  1.012419  0  0  0.106294  0  1.010815  0  0.110745  0  0.113727  0.104078  0  1.013591  0
H  H17  1  0.35294975  0.48932584  0.94451345  1  0  0.096704  0  0.938282  0  0  0.10508  0  1.01242  0  0  0.106323  0  1.010822  0  0.110773  0  0.113742  0.10411  0  1.01359  0
H  H18  1  0.42770515  0.77446439  0.40766399  1  0  0.096738  0  0.997429  0  0  0.100943  0  1.070173  0  0  0.104602  0  1.067529  0  0.085977  0  0.09486  0.098231  0  1.072215  0
H  H19  1  0.42770703  0.27446761  0.09233554  1  0  0.096734  0  0.997453  0  0  0.100939  0  1.070195  0  0  0.104599  0  1.067549  0  0.085958  0  0.094855  0.098227  0  1.072235  0
H  H20  1  0.57229315  0.22553040  0.59233459  1  0  0.096761  0  0.997394  0  0  0.100945  0  1.070167  0  0  0.104604  0  1.067522  0  0.085961  0  0.094889  0.098233  0  1.072209  0
H  H21  1  0.57228784  0.72553205  0.90766399  1  0  0.096782  0  0.997433  0  0  0.100977  0  1.070179  0  0  0.104637  0  1.06753  0  0.085984  0  0.094856  0.098264  0  1.07222  0
H  H22  1  0.24733383  0.64262446  0.31862435  1  0  0.087305  0  0.983739  0  0  0.09595  0  1.049431  0  0  0.09787  0  1.049925  0  0.07123  0  0.095802  0.094569  0  1.049177  0
H  H23  1  0.24733622  0.14262524  0.18137471  1  0  0.087327  0  0.983673  0  0  0.095935  0  1.04942  0  0  0.097854  0  1.049915  0  0.071244  0  0.095798  0.094554  0  1.049166  0
H  H24  1  0.75266379  0.35737641  0.68137423  1  0  0.087354  0  0.983673  0  0  0.09597  0  1.049403  0  0  0.097889  0  1.049898  0  0.071234  0  0.095814  0.094589  0  1.049147  0
H  H25  1  0.75266277  0.85737198  0.81862529  1  0  0.08732  0  0.983712  0  0  0.095964  0  1.049412  0  0  0.097885  0  1.049905  0  0.07122  0  0.095812  0.094583  0  1.049158  0
H  H26  1  0.58989642  0.94292936  0.18701557  1  0  0.101412  0  0.981617  0  0  0.113261  0  1.042992  0  0  0.11614  0  1.04105  0  0.089135  0  0.09869  0.111182  0  1.044441  0
H  H27  1  0.58990034  0.44292284  0.31298537  1  0  0.101385  0  0.981615  0  0  0.11326  0  1.042965  0  0  0.11614  0  1.04102  0  0.089154  0  0.098693  0.111181  0  1.044409  0
H  H28  1  0.41010139  0.05707638  0.81298490  1  0  0.101443  0  0.981561  0  0  0.113287  0  1.042942  0  0  0.116169  0  1.040996  0  0.089178  0  0.098697  0.111209  0  1.044386  0
H  H29  1  0.41010293  0.55706830  0.68701557  1  0  0.10136  0  0.981738  0  0  0.11326  0  1.043055  0  0  0.116128  0  1.041126  0  0.089129  0  0.098738  0.111181  0  1.044501  0
H  H30  1  0.77334807  0.07663228  0.27606607  1  0  0.094361  0  0.958336  0  0  0.102585  0  1.022677  0  0  0.105654  0  1.021291  0  0.076649  0  0.098021  0.100396  0  1.023755  0
H  H31  1  0.77335272  0.57662663  0.22393487  1  0  0.094358  0  0.958415  0  0  0.102619  0  1.022705  0  0  0.105686  0  1.021322  0  0.076631  0  0.098034  0.100428  0  1.023782  0
H  H32  1  0.22664904  0.92337103  0.72393440  1  0  0.09437  0  0.95834  0  0  0.102606  0  1.022663  0  0  0.105676  0  1.021277  0  0.076641  0  0.098035  0.100417  0  1.023743  0
H  H33  1  0.22664850  0.42336572  0.77606513  1  0  0.09433  0  0.958378  0  0  0.102562  0  1.022702  0  0  0.105631  0  1.021317  0  0.076599  0  0.098012  0.100372  0  1.02378  0
H  H34  1  0.37717320  0.67397790  0.15428834  1  0  0.099904  0  0.926431  0  0  0.110843  0  0.994654  0  0  0.111927  0  0.994066  0  0.100902  0  0.119029  0.109931  0  0.995223  0
H  H35  1  0.37717455  0.17397503  0.34571118  1  0  0.099905  0  0.926439  0  0  0.110858  0  0.99464  0  0  0.111945  0  0.994048  0  0.100925  0  0.119024  0.109945  0  0.995209  0
H  H36  1  0.62282461  0.32602784  0.84571071  1  0  0.099835  0  0.92643  0  0  0.11082  0  0.994619  0  0  0.111878  0  0.994054  0  0.10085  0  0.119011  0.109907  0  0.995188  0
H  H37  1  0.62282736  0.82601976  0.65428882  1  0  0.099852  0  0.926523  0  0  0.1108  0  0.994727  0  0  0.111907  0  0.994118  0  0.10093  0  0.119012  0.109887  0  0.995296  0
H  H38  1  0.21737741  0.57962559  0.20915007  1  0  0.098155  0  0.916661  0  0  0.107116  0  0.986139  0  0  0.108662  0  0.984978  0  0.104413  0  0.115816  0.105991  0  0.986988  0
H  H39  1  0.21737791  0.07962394  0.29084946  1  0  0.098169  0  0.916609  0  0  0.107116  0  0.98611  0  0  0.108662  0  0.984948  0  0.104398  0  0.115819  0.105991  0  0.986959  0
H  H40  1  0.78262125  0.42037893  0.79084804  1  0  0.098118  0  0.916606  0  0  0.107071  0  0.986121  0  0  0.108618  0  0.984954  0  0.104824  0  0.115805  0.105947  0  0.98697  0
H  H41  1  0.78262159  0.92037085  0.70915149  1  0  0.098165  0  0.916644  0  0  0.107121  0  0.986138  0  0  0.108669  0  0.984977  0  0.104535  0  0.115824  0.105996  0  0.986988  0
H  H42  1  0.28565240  0.82545403  0.07189004  1  0  0.103561  0  0.971556  0  0  0.107367  0  1.046259  0  0  0.110538  0  1.041573  0  0.201128  0  0.135265  0.105003  0  1.049567  0
H  H43  1  0.28565445  0.32545360  0.42810949  1  0  0.103488  0  0.971624  0  0  0.107372  0  1.04624  0  0  0.110546  0  1.041548  0  0.201127  0  0.135274  0.105007  0  1.04955  0
H  H44  1  0.71434661  0.17455171  0.92810901  1  0  0.103469  0  0.971649  0  0  0.107318  0  1.046313  0  0  0.11049  0  1.041622  0  0.201576  0  0.135258  0.104956  0  1.049616  0
H  H45  1  0.71434850  0.67454485  0.57189051  1  0  0.103553  0  0.971565  0  0  0.10735  0  1.046266  0  0  0.110522  0  1.041576  0  0.201148  0  0.135263  0.104985  0  1.049572  0
H  H46  1  0.88566528  0.93771616  0.16627513  1  0  0.098369  0  0.932792  0  0  0.109239  0  0.991662  0  0  0.111088  0  0.989577  0  0.162867  0  0.135593  0.107856  0  0.993202  0
H  H47  1  0.88566732  0.43771572  0.33372393  1  0  0.098404  0  0.932766  0  0  0.109275  0  0.991637  0  0  0.111123  0  0.989555  0  0.162823  0  0.135601  0.107893  0  0.993174  0
H  H48  1  0.11433373  0.06228958  0.83372345  1  0  0.098396  0  0.932768  0  0  0.109248  0  0.991659  0  0  0.111091  0  0.989591  0  0.162856  0  0.135616  0.107866  0  0.993196  0
H  H49  1  0.11433648  0.56228150  0.66627607  1  0  0.098405  0  0.932854  0  0  0.109302  0  0.991675  0  0  0.111153  0  0.989588  0  0.162825  0  0.135597  0.107918  0  0.993219  0
C  C50  1  0.07625702  0.87104919  0.43561067  1  0  0.201113  0  3.696722  0  0  0.148215  0  3.984944  0  0  0.15989  0  3.998096  0  0.952956  0  0.139996  0.140714  0  3.975614  0
C  C51  1  0.07626320  0.37105484  0.06439122  1  0  0.201225  0  3.696623  0  0  0.14837  0  3.984834  0  0  0.160047  0  3.997997  0  0.952823  0  0.140055  0.140864  0  3.975506  0
C  C52  1  0.92374353  0.12894925  0.56438839  1  0  0.201117  0  3.696709  0  0  0.148212  0  3.984939  0  0  0.159874  0  3.998084  0  0.952973  0  0.139999  0.140712  0  3.975609  0
C  C53  1  0.92373718  0.62894725  0.93560925  1  0  0.201228  0  3.696599  0  0  0.14838  0  3.9848  0  0  0.160056  0  3.997962  0  0.953036  0  0.140073  0.140874  0  3.975471  0
C  C54  1  0.81231589  0.76362677  0.43933506  1  0  0.174378  0  3.644601  0  0  0.098456  0  3.90714  0  0  0.112882  0  3.919051  0  0.989978  0  0.159668  0.089357  0  3.89868  0
C  C55  1  0.81232293  0.26363120  0.06066588  1  0  0.174399  0  3.644615  0  0  0.098485  0  3.907135  0  0  0.112906  0  3.919052  0  0.990035  0  0.159666  0.089384  0  3.898675  0
C  C56  1  0.18768655  0.23637411  0.56066588  1  0  0.17441  0  3.64452  0  0  0.098471  0  3.907069  0  0  0.112898  0  3.918979  0  0.990019  0  0.159653  0.089372  0  3.898609  0
C  C57  1  0.18767865  0.73637089  0.93933459  1  0  0.17443  0  3.64461  0  0  0.098522  0  3.907172  0  0  0.112953  0  3.919081  0  0.990029  0  0.159726  0.089421  0  3.898711  0
C  C58  1  0.72336438  0.00830098  0.40245163  1  0  -0.061218  0  3.636706  0  0  -0.141616  0  3.888131  0  0  -0.137284  0  3.897712  0  0.255945  0  -0.048737  -0.144205  0  3.881477  0
C  C59  1  0.72336870  0.50830263  0.09754837  1  0  -0.061291  0  3.636677  0  0  -0.141647  0  3.8881  0  0  -0.137319  0  3.897687  0  0.255798  0  -0.048731  -0.144247  0  3.88147  0
C  C60  1  0.27663290  0.99169868  0.59754790  1  0  -0.061168  0  3.636712  0  0  -0.141539  0  3.888114  0  0  -0.137206  0  3.897687  0  0.25601  0  -0.04873  -0.144129  0  3.881459  0
C  C61  1  0.27663219  0.49169703  0.90245163  1  0  -0.061264  0  3.636673  0  0  -0.141584  0  3.888029  0  0  -0.137263  0  3.897626  0  0.255813  0  -0.04871  -0.144182  0  3.881391  0
C  C62  1  0.61322486  0.93304922  0.34771260  1  0  0.065081  0  3.767338  0  0  0.085104  0  4.005053  0  0  0.083502  0  4.031341  0  -0.041822  0  -0.017003  0.08628  0  3.987059  0
C  C63  1  0.61322622  0.43304635  0.15228740  1  0  0.065202  0  3.767153  0  0  0.085092  0  4.005048  0  0  0.083487  0  4.031339  0  -0.042181  0  -0.017016  0.086269  0  3.987048  0
C  C64  1  0.38677637  0.06695166  0.65228693  1  0  0.065117  0  3.767271  0  0  0.085078  0  4.005082  0  0  0.083476  0  4.031371  0  -0.042147  0  -0.017015  0.086254  0  3.987086  0
C  C65  1  0.38676968  0.56694844  0.84771213  1  0  0.065072  0  3.767242  0  0  0.085056  0  4.004998  0  0  0.083454  0  4.03129  0  -0.041522  0  -0.017013  0.086233  0  3.987001  0
C  C66  1  0.46447326  0.81156391  0.35931524  1  0  -0.126584  0  3.757418  0  0  -0.143686  0  4.002981  0  0  -0.147715  0  4.025732  0  -0.069973  0  -0.099324  -0.140837  0  3.987543  0
C  C67  1  0.46447290  0.31156348  0.14068570  1  0  -0.126645  0  3.757487  0  0  -0.143708  0  4.00306  0  0  -0.147738  0  4.025817  0  -0.069908  0  -0.099315  -0.140856  0  3.987617  0
C  C68  1  0.53552883  0.18843574  0.64068523  1  0  -0.126552  0  3.757389  0  0  -0.143626  0  4.002958  0  0  -0.147655  0  4.025713  0  -0.069963  0  -0.099304  -0.140778  0  3.98752  0
C  C69  1  0.53552283  0.68843496  0.85931477  1  0  -0.126593  0  3.757369  0  0  -0.143673  0  4.002908  0  0  -0.147702  0  4.025665  0  -0.069937  0  -0.099277  -0.140823  0  3.987469  0
C  C70  1  0.36304335  0.73706072  0.30937612  1  0  -0.102194  0  3.751918  0  0  -0.121827  0  3.996646  0  0  -0.124142  0  4.019373  0  -0.046396  0  -0.092484  -0.12015  0  3.981143  0
C  C71  1  0.36304556  0.23705663  0.19062577  1  0  -0.102249  0  3.752042  0  0  -0.121829  0  3.996749  0  0  -0.124144  0  4.019475  0  -0.046414  0  -0.092522  -0.120154  0  3.981246  0
C  C72  1  0.63695411  0.26294381  0.69062529  1  0  -0.102306  0  3.752153  0  0  -0.12191  0  3.996864  0  0  -0.124225  0  4.019589  0  -0.046457  0  -0.092547  -0.120233  0  3.981361  0
C  C73  1  0.63695309  0.76293938  0.80937565  1  0  -0.102234  0  3.751939  0  0  -0.121864  0  3.996662  0  0  -0.12418  0  4.019388  0  -0.046472  0  -0.092505  -0.120189  0  3.98116  0
C  C74  1  0.40829129  0.78275077  0.24716659  1  0  0.073056  0  3.751899  0  0  0.091322  0  3.994233  0  0  0.090301  0  4.018908  0  0.042416  0  -0.012847  0.092051  0  3.977355  0
C  C75  1  0.40829384  0.28274790  0.25283341  1  0  0.073183  0  3.752066  0  0  0.091425  0  3.994407  0  0  0.090404  0  4.019081  0  0.042394  0  -0.012771  0.092154  0  3.977529  0
C  C76  1  0.59170703  0.21725254  0.75283247  1  0  0.073093  0  3.752197  0  0  0.091376  0  3.994504  0  0  0.090359  0  4.019167  0  0.042385  0  -0.012798  0.092107  0  3.977626  0
C  C77  1  0.59170806  0.71724689  0.74716659  1  0  0.073069  0  3.75196  0  0  0.091329  0  3.99432  0  0  0.090307  0  4.018998  0  0.042481  0  -0.012877  0.092058  0  3.977443  0
C  C78  1  0.55571506  0.90645275  0.23557527  1  0  -0.113992  0  3.740327  0  0  -0.134629  0  3.984219  0  0  -0.13751  0  4.006776  0  -0.050897  0  -0.092586  -0.132527  0  3.96888  0
C  C79  1  0.55571761  0.40644988  0.26442520  1  0  -0.113948  0  3.740267  0  0  -0.134599  0  3.984164  0  0  -0.137482  0  4.006719  0  -0.050912  0  -0.092585  -0.132499  0  3.96883  0
C  C80  1  0.44428446  0.09355056  0.76442473  1  0  -0.114049  0  3.740284  0  0  -0.134679  0  3.98417  0  0  -0.137562  0  4.006722  0  -0.050904  0  -0.09261  -0.132578  0  3.968834  0
C  C81  1  0.44428258  0.59354734  0.73557527  1  0  -0.114015  0  3.740469  0  0  -0.134699  0  3.984364  0  0  -0.137573  0  4.006926  0  -0.050749  0  -0.09265  -0.132597  0  3.969028  0
C  C82  1  0.65799745  0.98096325  0.28545635  1  0  -0.10861  0  3.744136  0  0  -0.124622  0  3.984663  0  0  -0.127349  0  4.006867  0  -0.073353  0  -0.091416  -0.122675  0  3.969504  0
C  C83  1  0.65800241  0.48096038  0.21454365  1  0  -0.108706  0  3.744189  0  0  -0.124707  0  3.98476  0  0  -0.127436  0  4.006968  0  -0.073343  0  -0.09147  -0.122752  0  3.969593  0
C  C84  1  0.34200052  0.01903884  0.71454318  1  0  -0.108643  0  3.744081  0  0  -0.124646  0  3.98463  0  0  -0.127375  0  4.006835  0  -0.073321  0  -0.091427  -0.122697  0  3.969469  0
C  C85  1  0.34199864  0.51903563  0.78545588  1  0  -0.108538  0  3.744149  0  0  -0.124548  0  3.984695  0  0  -0.127274  0  4.006894  0  -0.073904  0  -0.091424  -0.122596  0  3.96953  0
C  C86  1  0.30030662  0.69678826  0.19348844  1  0  -0.056811  0  3.635112  0  0  -0.133683  0  3.881585  0  0  -0.129791  0  3.891339  0  0.275485  0  -0.040476  -0.135959  0  3.874786  0
C  C87  1  0.30030832  0.19678660  0.30651109  1  0  -0.056874  0  3.635137  0  0  -0.133726  0  3.881575  0  0  -0.129828  0  3.891321  0  0.275427  0  -0.040479  -0.136003  0  3.874778  0
C  C88  1  0.69969239  0.30321748  0.80651015  1  0  -0.056606  0  3.63493  0  0  -0.133558  0  3.881459  0  0  -0.129634  0  3.891204  0  0.275037  0  -0.040445  -0.135836  0  3.874662  0
C  C89  1  0.69969359  0.80320819  0.69348938  1  0  -0.056713  0  3.635186  0  0  -0.133603  0  3.881611  0  0  -0.129726  0  3.891357  0  0.275163  0  -0.040434  -0.13588  0  3.874812  0
C  C90  1  0.19610500  0.84268133  0.10661538  1  0  0.18224  0  3.662059  0  0  0.099458  0  3.939994  0  0  0.114568  0  3.950425  0  1.004677  0  0.161405  0.089892  0  3.93255  0
C  C91  1  0.19610824  0.34268089  0.39338414  1  0  0.182299  0  3.662036  0  0  0.099473  0  3.939978  0  0  0.114589  0  3.9504  0  1.004613  0  0.161368  0.089906  0  3.932536  0
C  C92  1  0.80389402  0.15732441  0.89338320  1  0  0.182279  0  3.662064  0  0  0.099447  0  3.940013  0  0  0.114565  0  3.950433  0  1.004246  0  0.161352  0.089881  0  3.93257  0
C  C93  1  0.80389556  0.65731633  0.60661633  1  0  0.18232  0  3.66209  0  0  0.09953  0  3.940011  0  0  0.114643  0  3.950437  0  1.004666  0  0.161435  0.089964  0  3.932568  0
C  C94  1  0.99442874  0.89525501  0.15626852  1  0  0.184396  0  3.739133  0  0  0.131565  0  4.035819  0  0  0.143657  0  4.046722  0  0.928314  0  0.138737  0.123685  0  4.028211  0
C  C95  1  0.99443078  0.39525457  0.34373101  1  0  0.18426  0  3.739326  0  0  0.131424  0  4.036017  0  0  0.143518  0  4.046918  0  0.928408  0  0.138655  0.123544  0  4.028413  0
C  C96  1  0.00557183  0.10475195  0.84373053  1  0  0.184271  0  3.73942  0  0  0.131441  0  4.036108  0  0  0.143534  0  4.047006  0  0.928386  0  0.138622  0.123562  0  4.028505  0
C  C97  1  0.00557302  0.60474265  0.65626899  1  0  0.184315  0  3.739203  0  0  0.131459  0  4.035906  0  0  0.143552  0  4.046809  0  0.928337  0  0.138703  0.123579  0  4.028302  0
N  N98  1  0.95749484  0.73000920  0.45061869  1  0  -0.415964  0  3.194306  0  0  -0.34006  0  3.485325  0  0  -0.363225  0  3.499914  0  -1.230152  0  -0.350642  -0.324226  0  3.474682  0
N  N99  1  0.95750257  0.23001607  0.04938273  1  0  -0.416018  0  3.194473  0  0  -0.34011  0  3.485475  0  0  -0.363277  0  3.500069  0  -1.230172  0  -0.350604  -0.324274  0  3.474832  0
N  N100  1  0.04250640  0.26999167  0.54938226  1  0  -0.415973  0  3.194179  0  0  -0.340066  0  3.485208  0  0  -0.363233  0  3.499801  0  -1.230189  0  -0.350606  -0.324232  0  3.474565  0
N  N101  1  0.04249936  0.76998724  0.95061822  1  0  -0.416015  0  3.194322  0  0  -0.340106  0  3.485325  0  0  -0.363273  0  3.499915  0  -1.230204  0  -0.35065  -0.32427  0  3.474684  0
N  N102  1  0.84384874  0.91756168  0.41885559  1  0  0.053554  0  3.542838  0  0  0.173257  0  3.73127  0  0  0.162663  0  3.754445  0  -0.806233  0  -0.127807  0.179078  0  3.717474  0
N  N103  1  0.84385423  0.41756489  0.08114582  1  0  0.053721  0  3.542715  0  0  0.173409  0  3.731152  0  0  0.162841  0  3.754286  0  -0.805998  0  -0.127702  0.17923  0  3.717351  0
N  N104  1  0.15615164  0.08244041  0.58114441  1  0  0.053507  0  3.542904  0  0  0.173243  0  3.731282  0  0  0.162642  0  3.754473  0  -0.806231  0  -0.127831  0.179065  0  3.717486  0
N  N105  1  0.15614665  0.58243476  0.91885512  1  0  0.053696  0  3.54264  0  0  0.17333  0  3.731133  0  0  0.162754  0  3.754281  0  -0.805973  0  -0.127793  0.179153  0  3.717333  0
N  N106  1  0.01191647  0.98812304  0.41583577  1  0  -0.265849  0  2.856869  0  0  -0.265236  0  3.126751  0  0  -0.273655  0  3.141959  0  -0.664418  0  -0.218709  -0.259277  0  3.116372  0
N  N107  1  0.01191904  0.48812869  0.08416659  1  0  -0.266021  0  2.85679  0  0  -0.26541  0  3.126663  0  0  -0.273838  0  3.141873  0  -0.664316  0  -0.218804  -0.259448  0  3.116285  0
N  N108  1  0.98808477  0.01187783  0.58416423  1  0  -0.265832  0  2.856886  0  0  -0.265235  0  3.126776  0  0  -0.273652  0  3.141989  0  -0.664461  0  -0.218699  -0.259276  0  3.116398  0
N  N109  1  0.98807979  0.51187219  0.91583483  1  0  -0.266044  0  2.856774  0  0  -0.265418  0  3.126656  0  0  -0.27384  0  3.141862  0  -0.664531  0  -0.218782  -0.259457  0  3.116278  0
N  N110  1  0.19464600  0.79098362  0.16633082  1  0  0.051166  0  3.565183  0  0  0.168652  0  3.757568  0  0  0.158483  0  3.779876  0  -0.798968  0  -0.130286  0.174329  0  3.744126  0
N  N111  1  0.19464770  0.29098197  0.33366871  1  0  0.051124  0  3.56529  0  0  0.168584  0  3.757705  0  0  0.158395  0  3.780049  0  -0.79893  0  -0.130305  0.174261  0  3.744265  0
N  N112  1  0.80535301  0.20902212  0.83366777  1  0  0.051017  0  3.565292  0  0  0.168522  0  3.757653  0  0  0.15832  0  3.780017  0  -0.798965  0  -0.130336  0.174199  0  3.744214  0
N  N113  1  0.80535576  0.70901404  0.66633176  1  0  0.051055  0  3.565365  0  0  0.168631  0  3.75766  0  0  0.158448  0  3.779997  0  -0.798942  0  -0.13028  0.174308  0  3.744219  0
N  N114  1  0.06601208  0.82246115  0.19907787  1  0  -0.279414  0  2.83309  0  0  -0.283055  0  3.103445  0  0  -0.289426  0  3.113651  0  -0.682398  0  -0.228444  -0.278589  0  3.096706  0
N  N115  1  0.06601533  0.32246072  0.30092166  1  0  -0.279372  0  2.833242  0  0  -0.283007  0  3.103599  0  0  -0.289375  0  3.113808  0  -0.682452  0  -0.228451  -0.278541  0  3.096858  0
N  N116  1  0.93398539  0.17754337  0.80092166  1  0  -0.279332  0  2.833417  0  0  -0.282964  0  3.103748  0  0  -0.289328  0  3.113958  0  -0.682505  0  -0.228406  -0.278499  0  3.097006  0
N  N117  1  0.93398848  0.67753651  0.69907834  1  0  -0.279424  0  2.833187  0  0  -0.283091  0  3.103533  0  0  -0.28946  0  3.113741  0  -0.682476  0  -0.228475  -0.278625  0  3.096794  0
N  N118  1  0.07040182  0.91012085  0.09842850  1  0  -0.424453  0  3.201349  0  0  -0.353147  0  3.501876  0  0  -0.376392  0  3.515847  0  -1.230129  0  -0.354198  -0.337249  0  3.491716  0
N  N119  1  0.07040507  0.41012041  0.40157055  1  0  -0.424364  0  3.20132  0  0  -0.353073  0  3.501872  0  0  -0.376315  0  3.515833  0  -1.230069  0  -0.354096  -0.337174  0  3.49171  0
N  N120  1  0.92959564  0.08988367  0.90157008  1  0  -0.42433  0  3.201227  0  0  -0.353005  0  3.50175  0  0  -0.376243  0  3.515708  0  -1.229996  0  -0.35406  -0.337105  0  3.491585  0
N  N121  1  0.92959943  0.58987924  0.59842898  1  0  -0.424434  0  3.201418  0  0  -0.353134  0  3.501961  0  0  -0.376378  0  3.515927  0  -1.230107  0  -0.354183  -0.337234  0  3.491797  0
N  N122  1  0.60207703  0.31536419  0.46146295  1  0  0.686464  0  4.169077  0  0  0.719753  0  4.461209  0  0  0.747461  0  4.467607  0  0.820066  0  0.09567  0.70132  0  4.456331  0
N  N123  1  0.60207774  0.81536584  0.03853752  1  0  0.68651  0  4.169067  0  0  0.719776  0  4.461216  0  0  0.74748  0  4.467617  0  0.820087  0  0.095693  0.701348  0  4.456333  0
N  N124  1  0.39792316  0.68463303  0.53853752  1  0  0.686591  0  4.168973  0  0  0.71989  0  4.461124  0  0  0.747601  0  4.467533  0  0.819496  0  0.095725  0.701453  0  4.456249  0
N  N125  1  0.39792350  0.18463503  0.96146295  1  0  0.686408  0  4.169134  0  0  0.719686  0  4.461294  0  0  0.747392  0  4.467699  0  0.820062  0  0.095645  0.701253  0  4.456415  0
O  O126  1  0.71143834  0.33208173  0.50567107  1  0  -0.503991  0  1.835526  0  0  -0.473924  0  2.074373  0  0  -0.492984  0  2.065756  0  -0.580614  0  -0.204968  -0.460506  0  2.079826  0
O  O127  1  0.71143990  0.83208216  0.99432893  1  0  -0.504044  0  1.835503  0  0  -0.47393  0  2.074312  0  0  -0.492984  0  2.065691  0  -0.580651  0  -0.204992  -0.460515  0  2.07977  0
O  O128  1  0.28856186  0.66791550  0.49432893  1  0  -0.504032  0  1.835478  0  0  -0.473959  0  2.074322  0  0  -0.493026  0  2.065725  0  -0.580621  0  -0.204995  -0.460533  0  2.079761  0
O  O129  1  0.28856219  0.16791749  0.00567060  1  0  -0.503949  0  1.835516  0  0  -0.473863  0  2.074363  0  0  -0.492919  0  2.065745  0  -0.580602  0  -0.204949  -0.460437  0  2.0798  0
O  O130  1  0.63258426  0.40783804  0.41414016  1  0  -0.465982  0  1.759872  0  0  -0.460623  0  1.973248  0  0  -0.473726  0  1.967074  0  -0.553013  0  -0.188676  -0.451627  0  1.977431  0
O  O131  1  0.63258462  0.90783848  0.08585984  1  0  -0.465973  0  1.759946  0  0  -0.460582  0  1.973293  0  0  -0.47369  0  1.967127  0  -0.553036  0  -0.188647  -0.451591  0  1.977477  0
O  O132  1  0.36741508  0.59216040  0.58586078  1  0  -0.465985  0  1.759931  0  0  -0.460621  0  1.973291  0  0  -0.47372  0  1.967112  0  -0.553079  0  -0.188634  -0.451626  0  1.977479  0
O  O133  1  0.36741627  0.09216118  0.91414016  1  0  -0.465956  0  1.759869  0  0  -0.460583  0  1.973247  0  0  -0.473685  0  1.967075  0  -0.553039  0  -0.188673  -0.451587  0  1.977426  0
O  O134  1  0.46539335  0.20572022  0.46689240  1  0  -0.45832  0  1.736607  0  0  -0.451109  0  1.949372  0  0  -0.464306  0  1.94306  0  -0.546238  0  -0.187168  -0.441957  0  1.953551  0
O  O135  1  0.46539611  0.70572066  0.03310760  1  0  -0.458345  0  1.736575  0  0  -0.45114  0  1.949363  0  0  -0.464326  0  1.943032  0  -0.546217  0  -0.187194  -0.441987  0  1.953544  0
O  O136  1  0.53460530  0.79427579  0.53310760  1  0  -0.458414  0  1.736538  0  0  -0.451214  0  1.949307  0  0  -0.464421  0  1.943013  0  -0.545607  0  -0.187238  -0.442063  0  1.953486  0
O  O137  1  0.53460512  0.29428022  0.96689287  1  0  -0.458322  0  1.736649  0  0  -0.451111  0  1.949424  0  0  -0.464301  0  1.943104  0  -0.546238  0  -0.18717  -0.441958  0  1.953602  0
