# generated using pymatgen
data_ZnH12C20N2(OF)4
_symmetry_space_group_name_H-M   'P 1'
_cell_length_a   10.47167776
_cell_length_b   11.71303966
_cell_length_c   13.34254231
_cell_angle_alpha   103.26223463
_cell_angle_beta   110.70856315
_cell_angle_gamma   107.00932601
_symmetry_Int_Tables_number   1
_chemical_formula_structural   ZnH12C20N2(OF)4
_chemical_formula_sum   'Zn3 H36 C60 N6 O12 F12'
_cell_volume   1358.71123417
_cell_formula_units_Z   3
loop_
 _symmetry_equiv_pos_site_id
 _symmetry_equiv_pos_as_xyz
  1  'x, y, z'
loop_
 _atom_site_type_symbol
 _atom_site_label
 _atom_site_symmetry_multiplicity
 _atom_site_fract_x
 _atom_site_fract_y
 _atom_site_fract_z
 _atom_site_occupancy
 _atom_site_hle17_bader_spin_density
 _atom_site_hle17_ddec_charge
 _atom_site_hle17_ddec_spin_density
 _atom_site_hle17_ddec_sum_bond_order
 _atom_site_hle17_magmom
 _atom_site_hse06_10hf_bader_spin_density
 _atom_site_hse06_10hf_ddec_charge
 _atom_site_hse06_10hf_ddec_spin_density
 _atom_site_hse06_10hf_ddec_sum_bond_order
 _atom_site_hse06_10hf_magmom
 _atom_site_hse06_bader_spin_density
 _atom_site_hse06_ddec_charge
 _atom_site_hse06_ddec_spin_density
 _atom_site_hse06_ddec_sum_bond_order
 _atom_site_hse06_magmom
 _atom_site_pbe_bader_spin_density
 _atom_site_pbe_cm5_charge
 _atom_site_pbe_ddec_charge
 _atom_site_pbe_ddec_spin_density
 _atom_site_pbe_ddec_sum_bond_order
 _atom_site_pbe_magmom
Zn  Zn0  1  0.49999932  0.50000033  0.49999985  1  0  1.102582  0  1.854996  0  0  0.933814  0  2.318793  0  0  0.977477  0  2.264113  0  0  0.722134  0.901887  0  2.358574  0
Zn  Zn1  1  0.44378214  0.66607097  0.24773129  1  0  1.057426  0  1.736425  0  0  0.861917  0  2.200155  0  0  0.914611  0  2.141027  0  0  0.688403  0.824553  0  2.240923  0
Zn  Zn2  1  0.55621910  0.33392871  0.75226894  1  0  1.057455  0  1.736364  0  0  0.861956  0  2.200111  0  0  0.914651  0  2.140983  0  0  0.688431  0.824594  0  2.240885  0
H  H3  1  0.54943111  0.32799403  0.31999941  1  0  0.082981  0  0.945386  0  0  0.090785  0  1.010871  0  0  0.092936  0  1.008308  0  0  0.113677  0.089194  0  1.012573  0
H  H4  1  0.45056855  0.67200662  0.67999982  1  0  0.082992  0  0.945365  0  0  0.090803  0  1.010832  0  0  0.09295  0  1.00828  0  0  0.113696  0.089212  0  1.012544  0
H  H5  1  0.17733422  0.35221804  0.34909899  1  0  0.076588  0  0.972331  0  0  0.083539  0  1.040609  0  0  0.085414  0  1.038216  0  0  0.109817  0.082109  0  1.042276  0
H  H6  1  0.82266601  0.64778166  0.65090171  1  0  0.076599  0  0.972344  0  0  0.083538  0  1.040615  0  0  0.085414  0  1.038221  0  0  0.10982  0.082111  0  1.042283  0
H  H7  1  0.39134837  0.13809492  0.13525133  1  0  0.10292  0  0.961669  0  0  0.112821  0  1.024778  0  0  0.113983  0  1.027143  0  0  0.10342  0.112103  0  1.023147  0
H  H8  1  0.60864981  0.86190478  0.86474730  1  0  0.102915  0  0.961625  0  0  0.112818  0  1.024745  0  0  0.113985  0  1.027103  0  0  0.103429  0.112101  0  1.023113  0
H  H9  1  0.00402557  0.16637465  0.16706366  1  0  0.110566  0  0.984997  0  0  0.115963  0  1.05259  0  0  0.11934  0  1.050838  0  0  0.101399  0.113546  0  1.053975  0
H  H10  1  0.99597410  0.83362601  0.83293708  1  0  0.11152  0  0.984035  0  0  0.11597  0  1.052583  0  0  0.119347  0  1.05083  0  0  0.1014  0.11356  0  1.053965  0
H  H11  1  0.10959996  0.93622055  0.03848868  1  0  0.097706  0  0.933539  0  0  0.112936  0  0.999993  0  0  0.114341  0  0.999285  0  0  0.100767  0.111953  0  1.000532  0
H  H12  1  0.89039869  0.06378011  0.96151177  1  0  0.097509  0  0.934022  0  0  0.112959  0  0.999973  0  0  0.114365  0  0.999264  0  0  0.100762  0.111976  0  1.000511  0
H  H13  1  0.12141760  0.03476541  0.95876483  1  0  0.081723  0  0.939418  0  0  0.101506  0  1.000003  0  0  0.10156  0  1.001193  0  0  0.097817  0.101281  0  0.999555  0
H  H14  1  0.87858115  0.96523332  0.04123527  1  0  0.081666  0  0.939581  0  0  0.101527  0  0.999973  0  0  0.101584  0  1.001161  0  0  0.097818  0.101303  0  0.999523  0
H  H15  1  0.49072744  0.46482268  0.08863723  1  0  0.083787  0  0.968051  0  0  0.088857  0  1.037567  0  0  0.09164  0  1.034757  0  0  0.111954  0.08687  0  1.0396  0
H  H16  1  0.50927334  0.53517605  0.91136342  1  0  0.083791  0  0.968064  0  0  0.088872  0  1.037557  0  0  0.091653  0  1.034756  0  0  0.111961  0.086888  0  1.039588  0
H  H17  1  0.11270349  0.49685679  0.09908379  1  0  0.077542  0  0.981593  0  0  0.083761  0  1.050959  0  0  0.08616  0  1.04845  0  0  0.109201  0.081663  0  1.053397  0
H  H18  1  0.88729663  0.50314483  0.90091576  1  0  0.077548  0  0.981634  0  0  0.083766  0  1.050978  0  0  0.086165  0  1.048469  0  0  0.109202  0.081669  0  1.053417  0
H  H19  1  0.33983932  0.26621632  0.91145480  1  0  0.121149  0  0.959867  0  0  0.128224  0  1.024466  0  0  0.132087  0  1.022745  0  0  0.103643  0.125262  0  1.02608  0
H  H20  1  0.66016044  0.73378241  0.08854557  1  0  0.121149  0  0.959899  0  0  0.128251  0  1.024472  0  0  0.132112  0  1.022752  0  0  0.103639  0.125287  0  1.026091  0
H  H21  1  0.94287565  0.29498414  0.92559360  1  0  0.124899  0  0.953492  0  0  0.134192  0  1.014487  0  0  0.137652  0  1.01328  0  0  0.108323  0.131481  0  1.015862  0
H  H22  1  0.05712503  0.70501650  0.07440591  1  0  0.124922  0  0.953358  0  0  0.13419  0  1.014435  0  0  0.13765  0  1.013224  0  0  0.108317  0.131477  0  1.015811  0
H  H23  1  0.09183395  0.09467916  0.77086197  1  0  0.080304  0  0.927534  0  0  0.097416  0  0.986574  0  0  0.098903  0  0.985385  0  0  0.093171  0.096288  0  0.987494  0
H  H24  1  0.90816526  0.90532054  0.22913844  1  0  0.080323  0  0.927523  0  0  0.097439  0  0.986563  0  0  0.098926  0  0.985374  0  0  0.093189  0.096311  0  0.987483  0
H  H25  1  0.94864743  0.07366194  0.81540355  1  0  0.086939  0  0.951634  0  0  0.105475  0  1.012885  0  0  0.106028  0  1.014006  0  0  0.09838  0.105086  0  1.01202  0
H  H26  1  0.05135224  0.92633872  0.18459719  1  0  0.086973  0  0.951592  0  0  0.105501  0  1.01285  0  0  0.106054  0  1.013971  0  0  0.098374  0.105111  0  1.011985  0
H  H27  1  0.73060902  0.87480875  0.32150521  1  0  0.078004  0  0.949915  0  0  0.085619  0  1.016579  0  0  0.088037  0  1.014423  0  0  0.112663  0.083804  0  1.018151  0
H  H28  1  0.26939370  0.12519189  0.67849561  1  0  0.078034  0  0.949867  0  0  0.085649  0  1.016514  0  0  0.088066  0  1.014356  0  0  0.112681  0.083833  0  1.018087  0
H  H29  1  0.47056947  0.81739279  0.49260633  1  0  0.075801  0  0.965646  0  0  0.08698  0  1.026836  0  0  0.088603  0  1.025513  0  0  0.113529  0.085796  0  1.02769  0
H  H30  1  0.52943074  0.18260689  0.50739211  1  0  0.075802  0  0.965655  0  0  0.086979  0  1.026849  0  0  0.0886  0  1.025526  0  0  0.113517  0.085795  0  1.027701  0
H  H31  1  0.93253888  0.07061252  0.48947203  1  0  0.102431  0  0.967256  0  0  0.110973  0  1.031916  0  0  0.113682  0  1.031834  0  0  0.099918  0.108973  0  1.032304  0
H  H32  1  0.06746282  0.92938813  0.51052851  1  0  0.102449  0  0.967239  0  0  0.110964  0  1.03193  0  0  0.113674  0  1.031848  0  0  0.099919  0.108967  0  1.032319  0
H  H33  1  0.66050893  0.01116736  0.66772143  1  0  0.125831  0  0.950984  0  0  0.135173  0  1.011137  0  0  0.13862  0  1.010386  0  0  0.108659  0.132637  0  1.011897  0
H  H34  1  0.33949129  0.98883233  0.33227852  1  0  0.125783  0  0.951046  0  0  0.135127  0  1.011187  0  0  0.138573  0  1.010439  0  0  0.108655  0.132598  0  1.01194  0
H  H35  1  0.00812619  0.23453583  0.67373851  1  0  0.059279  0  0.987615  0  0  0.075308  0  1.055792  0  0  0.073912  0  1.059768  0  0  0.083947  0.076144  0  1.053216  0
H  H36  1  0.99187404  0.76546387  0.32626218  1  0  0.059243  0  0.987617  0  0  0.075272  0  1.055804  0  0  0.073875  0  1.059778  0  0  0.083927  0.076107  0  1.053227  0
H  H37  1  0.87669024  0.22901007  0.72981802  1  0  0.097291  0  0.945006  0  0  0.112794  0  1.0087  0  0  0.114048  0  1.008515  0  0  0.098425  0.111792  0  1.008912  0
H  H38  1  0.12330897  0.77098962  0.27018239  1  0  0.097265  0  0.945053  0  0  0.112778  0  1.008748  0  0  0.114015  0  1.008581  0  0  0.098412  0.111774  0  1.008959  0
C  C39  1  0.25843867  0.60448390  0.37625280  1  0  0.707855  0  3.878598  0  0  0.648393  0  4.187953  0  0  0.684506  0  4.17554  0  0  0.223582  0.623702  0  4.19577  0
C  C40  1  0.74156155  0.39551579  0.62374714  1  0  0.70784  0  3.878826  0  0  0.648421  0  4.188068  0  0  0.684541  0  4.175642  0  0  0.223623  0.623735  0  4.195875  0
C  C41  1  0.11085457  0.58597716  0.37963927  1  0  -0.217632  0  3.757268  0  0  -0.22053  0  4.027523  0  0  -0.226505  0  4.042162  0  0  -0.02576  -0.216624  0  4.018272  0
C  C42  1  0.88914815  0.41402349  0.62036231  1  0  -0.217677  0  3.757508  0  0  -0.220575  0  4.027647  0  0  -0.22655  0  4.04227  0  0  -0.02577  -0.216665  0  4.018371  0
C  C43  1  0.97337349  0.50831006  0.28261410  1  0  0.203619  0  3.787546  0  0  0.165929  0  4.093582  0  0  0.176601  0  4.099587  0  0  0.094142  0.158267  0  4.090416  0
C  C44  1  0.02662674  0.49168964  0.71738734  1  0  0.203773  0  3.786984  0  0  0.165924  0  4.093567  0  0  0.176591  0  4.099562  0  0  0.094146  0.158266  0  4.090402  0
C  C45  1  0.10664493  0.65558347  0.47767996  1  0  0.197469  0  3.785993  0  0  0.160117  0  4.092506  0  0  0.169007  0  4.102537  0  0  0.09012  0.153781  0  4.086439  0
C  C46  1  0.89335576  0.34441718  0.52232105  1  0  0.197525  0  3.785956  0  0  0.160135  0  4.092462  0  0  0.169077  0  4.10246  0  0  0.090159  0.153849  0  4.086361  0
C  C47  1  0.83916894  0.50555099  0.28126640  1  0  0.205774  0  3.779718  0  0  0.166239  0  4.087012  0  0  0.177492  0  4.091842  0  0  0.093584  0.158592  0  4.08464  0
C  C48  1  0.16083286  0.49444773  0.71873379  1  0  0.205876  0  3.779533  0  0  0.166272  0  4.086953  0  0  0.177555  0  4.091749  0  0  0.093582  0.158616  0  4.084593  0
C  C49  1  0.97230573  0.65492926  0.47558772  1  0  0.189982  0  3.78494  0  0  0.153115  0  4.09261  0  0  0.161966  0  4.101448  0  0  0.0895  0.146723  0  4.087376  0
C  C50  1  0.02769597  0.34507139  0.52441358  1  0  0.189949  0  3.784932  0  0  0.153089  0  4.092592  0  0  0.161944  0  4.101416  0  0  0.089493  0.146699  0  4.087337  0
C  C51  1  0.83562688  0.58309325  0.37627398  1  0  -0.20912  0  3.737179  0  0  -0.21547  0  4.012226  0  0  -0.220007  0  4.024319  0  0  -0.026947  -0.212436  0  4.004459  0
C  C52  1  0.16437289  0.41690549  0.62372715  1  0  -0.209059  0  3.737242  0  0  -0.215422  0  4.012267  0  0  -0.219973  0  4.024359  0  0  -0.026963  -0.212387  0  4.004501  0
C  C53  1  0.69339569  0.59877270  0.36661313  1  0  0.703477  0  3.891304  0  0  0.646577  0  4.199326  0  0  0.682081  0  4.188113  0  0  0.218128  0.622367  0  4.206046  0
C  C54  1  0.30660704  0.40122795  0.63338920  1  0  0.703366  0  3.891363  0  0  0.646449  0  4.199381  0  0  0.681957  0  4.188168  0  0  0.218088  0.622243  0  4.206091  0
C  C55  1  0.40649948  0.84021689  0.12511691  1  0  0.691741  0  3.916691  0  0  0.638859  0  4.224495  0  0  0.673901  0  4.213722  0  0  0.208222  0.615063  0  4.231059  0
C  C56  1  0.59349981  0.15978088  0.87488239  1  0  0.691427  0  3.917764  0  0  0.638875  0  4.224632  0  0  0.673915  0  4.213858  0  0  0.208229  0.615078  0  4.231197  0
C  C57  1  0.45613701  0.92087566  0.05987495  1  0  -0.204582  0  3.76025  0  0  -0.210324  0  4.032396  0  0  -0.214038  0  4.044682  0  0  -0.028356  -0.20827  0  4.02474  0
C  C58  1  0.54385969  0.07912308  0.94012383  1  0  -0.205264  0  3.762512  0  0  -0.210312  0  4.032424  0  0  -0.214023  0  4.044709  0  0  -0.028313  -0.208257  0  4.024765  0
C  C59  1  0.35697158  0.90738794  0.95101744  1  0  0.186428  0  3.805788  0  0  0.149249  0  4.111883  0  0  0.158839  0  4.118602  0  0  0.083649  0.142507  0  4.108026  0
C  C60  1  0.64302615  0.09261080  0.04898237  1  0  0.183347  0  3.808396  0  0  0.149325  0  4.111823  0  0  0.158912  0  4.118543  0  0  0.083695  0.142578  0  4.107964  0
C  C61  1  0.60102804  0.01548851  0.10716249  1  0  0.184718  0  3.803377  0  0  0.152962  0  4.103227  0  0  0.162649  0  4.109752  0  0  0.085049  0.145985  0  4.09966  0
C  C62  1  0.39896921  0.98450926  0.89283550  1  0  0.185437  0  3.801025  0  0  0.152999  0  4.103212  0  0  0.162685  0  4.109736  0  0  0.08508  0.146023  0  4.099647  0
C  C63  1  0.42771908  0.28937974  0.28169311  1  0  0.140869  0  3.693999  0  0  0.108223  0  3.943185  0  0  0.115639  0  3.962186  0  0  0.046233  0.103456  0  3.930182  0
C  C64  1  0.57228114  0.71061995  0.71830683  1  0  0.140836  0  3.693991  0  0  0.108198  0  3.943171  0  0  0.115605  0  3.962177  0  0  0.046222  0.103428  0  3.930174  0
C  C65  1  0.22006913  0.30333006  0.29795800  1  0  0.15108  0  3.699648  0  0  0.117105  0  3.948861  0  0  0.125369  0  3.967389  0  0  0.045474  0.111852  0  3.936086  0
C  C66  1  0.77993155  0.69667059  0.70204151  1  0  0.151047  0  3.699679  0  0  0.117064  0  3.948827  0  0  0.125324  0  3.967348  0  0  0.045438  0.111807  0  3.936055  0
C  C67  1  0.33854282  0.18310056  0.17932202  1  0  -0.167505  0  3.699009  0  0  -0.184654  0  3.945784  0  0  -0.193198  0  3.968949  0  0  -0.083841  -0.179199  0  3.930185  0
C  C68  1  0.66145536  0.81689913  0.82067661  1  0  -0.16745  0  3.698863  0  0  -0.184577  0  3.945651  0  0  -0.193127  0  3.968815  0  0  -0.083827  -0.179126  0  3.930054  0
C  C69  1  0.12376785  0.19740531  0.19621602  1  0  -0.17771  0  3.702971  0  0  -0.196591  0  3.952967  0  0  -0.205594  0  3.974998  0  0  -0.089372  -0.190676  0  3.93802  0
C  C70  1  0.87623228  0.80259631  0.80378353  1  0  -0.177518  0  3.702021  0  0  -0.196585  0  3.952941  0  0  -0.205587  0  3.974974  0  0  -0.089381  -0.190677  0  3.937995  0
C  C71  1  0.18188644  0.13412081  0.13379744  1  0  0.161847  0  3.70268  0  0  0.176668  0  3.941926  0  0  0.182526  0  3.963598  0  0  0.016184  0.172897  0  3.927087  0
C  C72  1  0.81811424  0.86587984  0.86620133  1  0  0.161879  0  3.702657  0  0  0.176658  0  3.941878  0  0  0.182514  0  3.963553  0  0  0.016193  0.172888  0  3.927035  0
C  C73  1  0.08404447  0.01766043  0.02355784  1  0  -0.167079  0  3.702676  0  0  -0.211755  0  3.952975  0  0  -0.212963  0  3.964573  0  0  -0.157084  -0.210779  0  3.944855  0
C  C74  1  0.91595677  0.98233925  0.97644164  1  0  -0.167336  0  3.703118  0  0  -0.21182  0  3.952996  0  0  -0.213031  0  3.964597  0  0  -0.157077  -0.210841  0  3.944869  0
C  C75  1  0.36893116  0.42456582  0.04868567  1  0  0.138046  0  3.69828  0  0  0.105556  0  3.949448  0  0  0.113417  0  3.967908  0  0  0.044824  0.1005  0  3.936944  0
C  C76  1  0.63106804  0.57543387  0.95131399  1  0  0.138045  0  3.698273  0  0  0.105549  0  3.949459  0  0  0.113406  0  3.967918  0  0  0.044805  0.100494  0  3.936955  0
C  C77  1  0.15753309  0.44217997  0.05467852  1  0  0.129264  0  3.718215  0  0  0.095843  0  3.96981  0  0  0.103207  0  3.989074  0  0  0.03818  0.091126  0  3.95702  0
C  C78  1  0.84246759  0.55782068  0.94532099  1  0  0.129229  0  3.718272  0  0  0.095803  0  3.969853  0  0  0.103168  0  3.989115  0  0  0.038161  0.091087  0  3.957065  0
C  C79  1  0.28299424  0.31251902  0.95015336  1  0  -0.178723  0  3.688579  0  0  -0.194824  0  3.935254  0  0  -0.20398  0  3.956954  0  0  -0.089494  -0.18868  0  3.920833  0
C  C80  1  0.71700200  0.68747875  0.04984585  1  0  -0.178708  0  3.688605  0  0  -0.194877  0  3.935252  0  0  -0.204031  0  3.956953  0  0  -0.089483  -0.188734  0  3.920834  0
C  C81  1  0.06414408  0.33007792  0.95794702  1  0  -0.176088  0  3.680455  0  0  -0.19289  0  3.928041  0  0  -0.201844  0  3.950209  0  0  -0.088411  -0.186806  0  3.913315  0
C  C82  1  0.93585410  0.66992177  0.04205086  1  0  -0.176016  0  3.680422  0  0  -0.192873  0  3.928002  0  0  -0.201828  0  3.95017  0  0  -0.088415  -0.186792  0  3.913277  0
C  C83  1  0.12677101  0.26227743  0.90340484  1  0  0.154136  0  3.715295  0  0  0.170814  0  3.953188  0  0  0.175534  0  3.976726  0  0  0.011806  0.167695  0  3.936953  0
C  C84  1  0.87322819  0.73772226  0.09659407  1  0  0.154055  0  3.715341  0  0  0.170858  0  3.953068  0  0  0.175579  0  3.976605  0  0  0.011825  0.167742  0  3.936831  0
C  C85  1  0.02608426  0.14205364  0.79710924  1  0  -0.149019  0  3.674029  0  0  -0.191899  0  3.92231  0  0  -0.192891  0  3.932855  0  0  -0.15453  -0.190911  0  3.914681  0
C  C86  1  0.97391596  0.85794605  0.20289070  1  0  -0.149067  0  3.673942  0  0  -0.191968  0  3.922215  0  0  -0.192955  0  3.932753  0  0  -0.154555  -0.190981  0  3.914584  0
C  C87  1  0.72034614  0.90771662  0.40039238  1  0  0.136452  0  3.723048  0  0  0.10393  0  3.972606  0  0  0.111346  0  3.991916  0  0  0.041666  0.099563  0  3.959107  0
C  C88  1  0.27965602  0.09228499  0.59960773  1  0  0.136433  0  3.723037  0  0  0.10392  0  3.972568  0  0  0.111339  0  3.991875  0  0  0.041667  0.099553  0  3.959068  0
C  C89  1  0.57443752  0.87576815  0.49516227  1  0  0.147858  0  3.704565  0  0  0.114511  0  3.955978  0  0  0.12259  0  3.974676  0  0  0.046797  0.109426  0  3.943518  0
C  C90  1  0.42556371  0.12423152  0.50483570  1  0  0.147735  0  3.704614  0  0  0.114375  0  3.956029  0  0  0.122454  0  3.974725  0  0  0.046741  0.109288  0  3.943572  0
C  C91  1  0.83246549  0.01646764  0.49464359  1  0  -0.185891  0  3.728647  0  0  -0.204734  0  3.976997  0  0  -0.213526  0  3.999074  0  0  -0.095328  -0.199201  0  3.962335  0
C  C92  1  0.16753519  0.98353301  0.50535668  1  0  -0.185858  0  3.728575  0  0  -0.204683  0  3.976912  0  0  -0.213478  0  3.99899  0  0  -0.095305  -0.199152  0  3.962253  0
C  C93  1  0.68143119  0.98312999  0.59312093  1  0  -0.172749  0  3.675209  0  0  -0.190147  0  3.919986  0  0  -0.198845  0  3.941408  0  0  -0.084999  -0.184655  0  3.905965  0
C  C94  1  0.31856903  0.01686970  0.40687826  1  0  -0.172584  0  3.675345  0  0  -0.18996  0  3.920082  0  0  -0.198658  0  3.941506  0  0  -0.084919  -0.184472  0  3.906057  0
C  C95  1  0.81466411  0.05636580  0.59420292  1  0  0.162215  0  3.717793  0  0  0.1811  0  3.950358  0  0  0.186122  0  3.972953  0  0  0.012893  0.177661  0  3.935114  0
C  C96  1  0.18533759  0.94363484  0.40579537  1  0  0.162154  0  3.717841  0  0  0.181028  0  3.950409  0  0  0.186051  0  3.973  0  0  0.012848  0.177585  0  3.935165  0
C  C97  1  0.93202670  0.17350015  0.69783069  1  0  -0.160631  0  3.696129  0  0  -0.201328  0  3.934839  0  0  -0.203276  0  3.948587  0  0  -0.161896  -0.19969  0  3.92526  0
C  C98  1  0.06797500  0.82650050  0.30216986  1  0  -0.160571  0  3.696093  0  0  -0.201295  0  3.934829  0  0  -0.203233  0  3.948584  0  0  -0.161869  -0.19965  0  3.925242  0
N  N99  1  0.36966838  0.34943632  0.34069257  1  0  -0.338686  0  3.29822  0  0  -0.2524  0  3.558522  0  0  -0.273145  0  3.576333  0  0  -0.329233  -0.238562  0  3.546564  0
N  N100  1  0.63033128  0.65056433  0.65930741  1  0  -0.338622  0  3.298148  0  0  -0.252384  0  3.558479  0  0  -0.273111  0  3.576273  0  0  -0.329224  -0.238546  0  3.546522  0
N  N101  1  0.30808448  0.48889170  0.10099811  1  0  -0.336405  0  3.266114  0  0  -0.252892  0  3.53079  0  0  -0.27363  0  3.548152  0  0  -0.325092  -0.239589  0  3.519084  0
N  N102  1  0.69191565  0.51110992  0.89900219  1  0  -0.336394  0  3.266094  0  0  -0.252888  0  3.530781  0  0  -0.273625  0  3.548145  0  0  -0.325076  -0.239583  0  3.519077  0
N  N103  1  0.59257485  0.83753275  0.39986255  1  0  -0.339777  0  3.275621  0  0  -0.256214  0  3.538395  0  0  -0.276764  0  3.555653  0  0  -0.323796  -0.242624  0  3.526618  0
N  N104  1  0.40742787  0.16246789  0.60013752  1  0  -0.339759  0  3.275533  0  0  -0.256185  0  3.538305  0  0  -0.276736  0  3.555561  0  0  -0.323794  -0.242595  0  3.526528  0
O  O105  1  0.35724578  0.59754730  0.45880453  1  0  -0.632267  0  2.119271  0  0  -0.584749  0  2.406157  0  0  -0.609098  0  2.390805  0  0  -0.307599  -0.567043  0  2.416491  0
O  O106  1  0.64275649  0.40245239  0.54119747  1  0  -0.632199  0  2.119384  0  0  -0.584729  0  2.406283  0  0  -0.609078  0  2.390932  0  0  -0.307602  -0.567017  0  2.416601  0
O  O107  1  0.26857056  0.63162052  0.29159251  1  0  -0.615258  0  2.05488  0  0  -0.551523  0  2.33361  0  0  -0.577702  0  2.315855  0  0  -0.298242  -0.53192  0  2.344699  0
O  O108  1  0.73142976  0.36837724  0.70840782  1  0  -0.615291  0  2.054868  0  0  -0.5516  0  2.333594  0  0  -0.577782  0  2.315838  0  0  -0.298293  -0.531993  0  2.344669  0
O  O109  1  0.65991116  0.59851128  0.44787045  1  0  -0.627347  0  2.103095  0  0  -0.580735  0  2.383542  0  0  -0.604953  0  2.369535  0  0  -0.308651  -0.563215  0  2.393064  0
O  O110  1  0.34008962  0.40148745  0.55213020  1  0  -0.627268  0  2.103029  0  0  -0.580644  0  2.383484  0  0  -0.60485  0  2.369449  0  0  -0.308596  -0.563124  0  2.392998  0
O  O111  1  0.62412604  0.61552826  0.27519819  1  0  -0.619713  0  2.05953  0  0  -0.558646  0  2.331467  0  0  -0.586137  0  2.317656  0  0  -0.305801  -0.537891  0  2.339534  0
O  O112  1  0.37587419  0.38447142  0.72480175  1  0  -0.619705  0  2.059608  0  0  -0.55863  0  2.331543  0  0  -0.586122  0  2.317729  0  0  -0.305813  -0.53788  0  2.339609  0
O  O113  1  0.47418284  0.76652277  0.14466347  1  0  -0.638618  0  2.033894  0  0  -0.573548  0  2.300574  0  0  -0.603139  0  2.286262  0  0  -0.320084  -0.552503  0  2.309535  0
O  O114  1  0.52581738  0.23347692  0.85533647  1  0  -0.638634  0  2.034027  0  0  -0.573542  0  2.30056  0  0  -0.603131  0  2.286247  0  0  -0.320079  -0.552496  0  2.309522  0
O  O115  1  0.30877598  0.85357046  0.15340628  1  0  -0.594747  0  1.880338  0  0  -0.556033  0  2.101032  0  0  -0.578518  0  2.091874  0  0  -0.314114  -0.540149  0  2.106953  0
O  O116  1  0.69122221  0.14642924  0.84659385  1  0  -0.595037  0  1.88113  0  0  -0.556056  0  2.101147  0  0  -0.57854  0  2.091989  0  0  -0.314129  -0.540173  0  2.107066  0
F  F117  1  0.96872893  0.43531999  0.18583392  1  0  -0.145783  0  1.269723  0  0  -0.102133  0  1.447884  0  0  -0.110543  0  1.438232  0  0  -0.07259  -0.095993  0  1.454615  0
F  F118  1  0.03127277  0.56468066  0.81416738  1  0  -0.144864  0  1.269191  0  0  -0.10215  0  1.447886  0  0  -0.11056  0  1.438231  0  0  -0.072606  -0.096011  0  1.454613  0
F  F119  1  0.23524004  0.73386817  0.57519083  1  0  -0.161252  0  1.230908  0  0  -0.110791  0  1.39255  0  0  -0.118879  0  1.383599  0  0  -0.084973  -0.105025  0  1.398727  0
F  F120  1  0.76476214  0.26613344  0.42481153  1  0  -0.161229  0  1.230878  0  0  -0.110694  0  1.392483  0  0  -0.118867  0  1.383566  0  0  -0.084981  -0.105015  0  1.39869  0
F  F121  1  0.71074442  0.42715757  0.18394064  1  0  -0.158175  0  1.236378  0  0  -0.103496  0  1.39426  0  0  -0.114031  0  1.38719  0  0  -0.078826  -0.097853  0  1.40124  0
F  F122  1  0.28925738  0.57284115  0.81606105  1  0  -0.158025  0  1.235995  0  0  -0.103525  0  1.39424  0  0  -0.11408  0  1.387169  0  0  -0.078827  -0.09788  0  1.401222  0
F  F123  1  0.97957736  0.73444906  0.57107998  1  0  -0.161274  0  1.242672  0  0  -0.107453  0  1.404304  0  0  -0.115093  0  1.39463  0  0  -0.080244  -0.10189  0  1.410956  0
F  F124  1  0.02042231  0.26555160  0.42892151  1  0  -0.161313  0  1.242741  0  0  -0.107481  0  1.404313  0  0  -0.115118  0  1.394635  0  0  -0.08023  -0.101911  0  1.410957  0
F  F125  1  0.21477938  0.81573508  0.89851591  1  0  -0.169118  0  1.276808  0  0  -0.116774  0  1.447955  0  0  -0.124008  0  1.436101  0  0  -0.081722  -0.111588  0  1.456132  0
F  F126  1  0.78521732  0.18426366  0.10148363  1  0  -0.160383  0  1.268738  0  0  -0.116765  0  1.44795  0  0  -0.123998  0  1.436097  0  0  -0.08172  -0.111573  0  1.456124  0
F  F127  1  0.70491063  0.03580917  0.21326122  1  0  -0.165947  0  1.22509  0  0  -0.123887  0  1.396401  0  0  -0.130852  0  1.385027  0  0  -0.091279  -0.118943  0  1.404425  0
F  F128  1  0.29508709  0.96418956  0.78673785  1  0  -0.165543  0  1.224356  0  0  -0.123908  0  1.396404  0  0  -0.130874  0  1.385034  0  0  -0.09132  -0.118966  0  1.404434  0
