# generated using pymatgen
data_H20Pb(C4O)5
_symmetry_space_group_name_H-M   'P 1'
_cell_length_a   7.14154896
_cell_length_b   8.56666593
_cell_length_c   15.59757492
_cell_angle_alpha   102.32963323
_cell_angle_beta   89.99947965
_cell_angle_gamma   90.00013715
_symmetry_Int_Tables_number   1
_chemical_formula_structural   H20Pb(C4O)5
_chemical_formula_sum   'H40 Pb2 C40 O10'
_cell_volume   932.23867570
_cell_formula_units_Z   2
loop_
 _symmetry_equiv_pos_site_id
 _symmetry_equiv_pos_as_xyz
  1  'x, y, z'
loop_
 _atom_site_type_symbol
 _atom_site_label
 _atom_site_symmetry_multiplicity
 _atom_site_fract_x
 _atom_site_fract_y
 _atom_site_fract_z
 _atom_site_occupancy
 _atom_site_hle17_bader_spin_density
 _atom_site_hle17_ddec_charge
 _atom_site_hle17_ddec_spin_density
 _atom_site_hle17_ddec_sum_bond_order
 _atom_site_hle17_magmom
 _atom_site_hse06_10hf_bader_spin_density
 _atom_site_hse06_10hf_ddec_charge
 _atom_site_hse06_10hf_ddec_spin_density
 _atom_site_hse06_10hf_ddec_sum_bond_order
 _atom_site_hse06_10hf_magmom
 _atom_site_hse06_bader_spin_density
 _atom_site_hse06_ddec_charge
 _atom_site_hse06_ddec_spin_density
 _atom_site_hse06_ddec_sum_bond_order
 _atom_site_hse06_magmom
 _atom_site_pbe_bader_spin_density
 _atom_site_pbe_cm5_charge
 _atom_site_pbe_ddec_charge
 _atom_site_pbe_ddec_spin_density
 _atom_site_pbe_ddec_sum_bond_order
 _atom_site_pbe_magmom
H  H0  1  0.34647364  0.43015963  0.65010231  1  0  0.433855  0  0.855048  0  0  0.402777  0  0.918426  0  0  0.41323  0  0.90304  0  0  0.294165  0.395283  0  0.92944  0
H  H1  1  0.84647757  0.56983982  0.34990224  1  0  0.433877  0  0.85504  0  0  0.402862  0  0.91834  0  0  0.413319  0  0.902948  0  0  0.294184  0.395368  0  0.929355  0
H  H2  1  0.57200033  0.43170844  0.65145806  1  0  0.429714  0  0.867182  0  0  0.397078  0  0.933346  0  0  0.408457  0  0.916684  0  0  0.288328  0.388959  0  0.945195  0
H  H3  1  0.07200414  0.56829918  0.34854279  1  0  0.429754  0  0.867121  0  0  0.397113  0  0.933294  0  0  0.408493  0  0.916633  0  0  0.288331  0.388994  0  0.945143  0
H  H4  1  0.34286763  0.92740236  0.61380907  1  0  0.0646  0  0.971227  0  0  0.072259  0  1.037864  0  0  0.0737  0  1.038519  0  0  0.095272  0.071202  0  1.037536  0
H  H5  1  0.84286665  0.07261017  0.38619249  1  0  0.064615  0  0.971086  0  0  0.072284  0  1.037777  0  0  0.073724  0  1.038432  0  0  0.095291  0.071227  0  1.037449  0
H  H6  1  0.54693843  0.72899475  0.70484933  1  0  0.094632  0  0.943342  0  0  0.110517  0  1.005157  0  0  0.112906  0  1.003124  0  0  0.098501  0.108724  0  1.00673  0
H  H7  1  0.04693546  0.27100080  0.29514256  1  0  0.094625  0  0.943364  0  0  0.110528  0  1.005163  0  0  0.112916  0  1.003129  0  0  0.098521  0.108738  0  1.006731  0
H  H8  1  0.46368879  0.92210855  0.75232601  1  0  0.081275  0  0.941351  0  0  0.100044  0  1.002988  0  0  0.100633  0  1.003037  0  0  0.094833  0.099524  0  1.003043  0
H  H9  1  0.96368076  0.07789207  0.24767241  1  0  0.081289  0  0.941416  0  0  0.100091  0  1.002997  0  0  0.100684  0  1.003044  0  0  0.094866  0.099559  0  1.003066  0
H  H10  1  0.85720764  0.83775007  0.82246851  1  0  0.091704  0  0.984653  0  0  0.103656  0  1.045403  0  0  0.105419  0  1.045991  0  0  0.097869  0.102375  0  1.045059  0
H  H11  1  0.35722210  0.16224091  0.17752669  1  0  0.091771  0  0.984656  0  0  0.103718  0  1.04541  0  0  0.105479  0  1.045997  0  0  0.097877  0.102438  0  1.045066  0
H  H12  1  0.16157584  0.97485231  0.82214319  1  0  0.085873  0  0.954928  0  0  0.099036  0  1.012685  0  0  0.101652  0  1.011857  0  0  0.098839  0.097078  0  1.013473  0
H  H13  1  0.66158164  0.02513625  0.17785641  1  0  0.085768  0  0.955043  0  0  0.098957  0  1.012786  0  0  0.101573  0  1.011956  0  0  0.09878  0.097  0  1.01357  0
H  H14  1  0.22560949  0.14091327  0.71167353  1  0  0.09414  0  0.93888  0  0  0.109159  0  0.990841  0  0  0.111973  0  0.98959  0  0  0.105078  0.107057  0  0.991964  0
H  H15  1  0.72560005  0.85907889  0.28832556  1  0  0.094183  0  0.93885  0  0  0.109209  0  0.990791  0  0  0.112023  0  0.989541  0  0  0.105098  0.107109  0  0.991911  0
H  H16  1  0.98844934  0.16289420  0.59930367  1  0  0.104311  0  0.964083  0  0  0.115802  0  1.022318  0  0  0.118738  0  1.021155  0  0  0.102274  0.113652  0  1.023256  0
H  H17  1  0.48842767  0.83711477  0.40069431  1  0  0.10439  0  0.964019  0  0  0.115834  0  1.022292  0  0  0.118768  0  1.021132  0  0  0.102281  0.113683  0  1.023229  0
H  H18  1  0.55836755  0.12622247  0.59634477  1  0  0.103374  0  0.953004  0  0  0.120356  0  1.014012  0  0  0.122466  0  1.012304  0  0  0.096453  0.118737  0  1.015321  0
H  H19  1  0.05835713  0.87378632  0.40365499  1  0  0.103355  0  0.953006  0  0  0.120336  0  1.014033  0  0  0.122446  0  1.012326  0  0  0.096446  0.118717  0  1.015342  0
H  H20  1  0.66702524  0.97656879  0.51578213  1  0  0.081402  0  0.947419  0  0  0.097929  0  1.012672  0  0  0.098934  0  1.012675  0  0  0.093924  0.097177  0  1.012658  0
H  H21  1  0.16701084  0.02343999  0.48421332  1  0  0.081393  0  0.947472  0  0  0.097976  0  1.01268  0  0  0.098984  0  1.012679  0  0  0.093955  0.097224  0  1.012667  0
H  H22  1  0.35162010  0.68260985  0.20853442  1  0  0.081655  0  0.932064  0  0  0.095006  0  0.986313  0  0  0.096243  0  0.987584  0  0  0.10185  0.094125  0  0.985535  0
H  H23  1  0.85163000  0.31738483  0.79146956  1  0  0.081672  0  0.93216  0  0  0.094975  0  0.986373  0  0  0.09622  0  0.987636  0  0  0.101843  0.094094  0  0.985595  0
H  H24  1  0.59859134  0.66284794  0.10375914  1  0  0.07499  0  0.943486  0  0  0.09291  0  1.008922  0  0  0.09312  0  1.010047  0  0  0.09057  0.092751  0  1.008114  0
H  H25  1  0.09859908  0.33715260  0.89624656  1  0  0.074931  0  0.943577  0  0  0.092892  0  1.009002  0  0  0.093099  0  1.010132  0  0  0.090538  0.092736  0  1.008186  0
H  H26  1  0.72116750  0.57831620  0.18136797  1  0  0.091535  0  0.93945  0  0  0.107044  0  1.000821  0  0  0.109725  0  0.998515  0  0  0.094278  0.10509  0  1.002494  0
H  H27  1  0.22117421  0.42167714  0.81863000  1  0  0.091504  0  0.939527  0  0  0.107027  0  1.00091  0  0  0.109708  0  0.998604  0  0  0.094262  0.105073  0  1.002582  0
H  H28  1  0.88178793  0.37600220  0.03018439  1  0  0.091441  0  0.956001  0  0  0.104734  0  1.013814  0  0  0.107058  0  1.013556  0  0  0.098785  0.103029  0  1.014128  0
H  H29  1  0.38179642  0.62398998  0.96981085  1  0  0.09148  0  0.956023  0  0  0.104769  0  1.013824  0  0  0.107095  0  1.013566  0  0  0.098828  0.103078  0  1.014118  0
H  H30  1  0.81712748  0.11822381  0.92478036  1  0  0.079892  0  0.980944  0  0  0.089207  0  1.048167  0  0  0.091311  0  1.048404  0  0  0.092249  0.087695  0  1.04807  0
H  H31  1  0.31713478  0.88176844  0.07522157  1  0  0.079977  0  0.98091  0  0  0.089258  0  1.048151  0  0  0.091364  0  1.04839  0  0  0.092292  0.087746  0  1.048055  0
H  H32  1  0.49624189  0.00491287  0.91050025  1  0  0.0775  0  0.963158  0  0  0.089593  0  1.024015  0  0  0.092262  0  1.02297  0  0  0.093351  0.087679  0  1.02483  0
H  H33  1  0.99625217  0.99508538  0.08949841  1  0  0.077525  0  0.963145  0  0  0.089649  0  1.023967  0  0  0.092315  0  1.022924  0  0  0.093412  0.087735  0  1.024781  0
H  H34  1  0.23587199  0.14562064  0.00106480  1  0  0.0869  0  0.965137  0  0  0.099088  0  1.026914  0  0  0.101611  0  1.026124  0  0  0.095743  0.09727  0  1.027537  0
H  H35  1  0.73587650  0.85439072  0.99894155  1  0  0.08689  0  0.965122  0  0  0.099087  0  1.0269  0  0  0.101617  0  1.02609  0  0  0.09577  0.097241  0  1.027557  0
H  H36  1  0.19017193  0.38043015  0.16561309  1  0  0.084064  0  0.943074  0  0  0.100275  0  1.006065  0  0  0.102282  0  1.004264  0  0  0.092553  0.098768  0  1.007405  0
H  H37  1  0.69017903  0.61956446  0.83439156  1  0  0.084137  0  0.943049  0  0  0.100324  0  1.006047  0  0  0.10232  0  1.004258  0  0  0.092579  0.098815  0  1.00739  0
H  H38  1  0.18812846  0.51339319  0.09329386  1  0  0.079973  0  0.959274  0  0  0.097465  0  1.022624  0  0  0.098085  0  1.023483  0  0  0.090501  0.096994  0  1.022026  0
H  H39  1  0.68813095  0.48660982  0.90671432  1  0  0.079997  0  0.95932  0  0  0.097462  0  1.022682  0  0  0.098075  0  1.023548  0  0  0.090488  0.096996  0  1.02208  0
Pb  Pb40  1  0.47430502  0.38159093  0.44336191  1  0  1.355541  0  1.382299  0  0  1.174655  0  1.767973  0  0  1.234483  0  1.728464  0  0  0.653008  1.130046  0  1.796515  0
Pb  Pb41  1  0.97430781  0.61838708  0.55663968  1  0  1.355553  0  1.382345  0  0  1.174664  0  1.768028  0  0  1.234483  0  1.728519  0  0  0.653014  1.13006  0  1.796569  0
C  C42  1  0.48601066  0.72535769  0.54316321  1  0  0.681229  0  3.83908  0  0  0.624262  0  4.141051  0  0  0.659881  0  4.133597  0  0  0.223105  0.599707  0  4.145196  0
C  C43  1  0.98601026  0.27464881  0.45682873  1  0  0.681157  0  3.838895  0  0  0.624325  0  4.140729  0  0  0.659947  0  4.133275  0  0  0.223178  0.599781  0  4.144857  0
C  C44  1  0.48702262  0.88304313  0.60906299  1  0  -0.11259  0  3.595221  0  0  -0.110507  0  3.834787  0  0  -0.116432  0  3.846827  0  0  -0.084659  -0.106417  0  3.826382  0
C  C45  1  0.98702307  0.11697175  0.39093118  1  0  -0.112369  0  3.594978  0  0  -0.110479  0  3.834804  0  0  -0.116407  0  3.846846  0  0  -0.084536  -0.106391  0  3.826395  0
C  C46  1  0.55410657  0.85497611  0.70005857  1  0  -0.155326  0  3.638696  0  0  -0.204611  0  3.88493  0  0  -0.20462  0  3.896454  0  0  -0.15082  -0.204323  0  3.876979  0
C  C47  1  0.05410315  0.14502422  0.29993383  1  0  -0.155359  0  3.638586  0  0  -0.204602  0  3.884734  0  0  -0.204612  0  3.896256  0  0  -0.15089  -0.204309  0  3.876786  0
C  C48  1  0.75069697  0.92038938  0.70965957  1  0  0.027535  0  3.764285  0  0  0.04804  0  3.995683  0  0  0.045566  0  4.022393  0  0  -0.015863  0.049699  0  3.977513  0
C  C49  1  0.25069356  0.07960629  0.29033341  1  0  0.027617  0  3.764173  0  0  0.04814  0  3.995594  0  0  0.045666  0  4.022302  0  0  -0.015833  0.049798  0  3.977422  0
C  C50  1  0.88472047  0.90716134  0.77292335  1  0  -0.125771  0  3.778294  0  0  -0.144918  0  4.027206  0  0  -0.147028  0  4.049876  0  0  -0.093725  -0.143356  0  4.011695  0
C  C51  1  0.38472395  0.09283560  0.22707113  1  0  -0.12587  0  3.778369  0  0  -0.145018  0  4.027272  0  0  -0.147124  0  4.049939  0  0  -0.093725  -0.143456  0  4.011764  0
C  C52  1  0.05682316  0.98505701  0.77272516  1  0  -0.086663  0  3.796054  0  0  -0.103797  0  4.054776  0  0  -0.106056  0  4.076222  0  0  -0.096129  -0.102146  0  4.040187  0
C  C53  1  0.55682796  0.01493984  0.22727389  1  0  -0.086544  0  3.79614  0  0  -0.103694  0  4.05484  0  0  -0.105953  0  4.076287  0  0  -0.096092  -0.102044  0  4.040251  0
C  C54  1  0.09360303  0.07636127  0.71021813  1  0  -0.074781  0  3.798922  0  0  -0.09051  0  4.059123  0  0  -0.091922  0  4.080056  0  0  -0.092232  -0.089427  0  4.044909  0
C  C55  1  0.59360075  0.92364036  0.28978067  1  0  -0.074797  0  3.798948  0  0  -0.090523  0  4.059125  0  0  -0.091937  0  4.080059  0  0  -0.092264  -0.08944  0  4.044912  0
C  C56  1  0.96008097  0.08833425  0.64626337  1  0  -0.13391  0  3.761387  0  0  -0.15506  0  4.014774  0  0  -0.157787  0  4.035833  0  0  -0.095073  -0.153154  0  4.000524  0
C  C57  1  0.46007725  0.91168194  0.35374004  1  0  -0.133982  0  3.761337  0  0  -0.155052  0  4.014735  0  0  -0.157775  0  4.035788  0  0  -0.094979  -0.153144  0  4.000484  0
C  C58  1  0.78912216  0.00900884  0.64568510  1  0  0.036461  0  3.76311  0  0  0.058493  0  3.993267  0  0  0.056904  0  4.019559  0  0  -0.01407  0.059571  0  3.975381  0
C  C59  1  0.28911724  0.99100004  0.35431306  1  0  0.036356  0  3.763128  0  0  0.058309  0  3.993423  0  0  0.056718  0  4.019714  0  0  -0.014196  0.059391  0  3.975533  0
C  C60  1  0.62478165  0.00748549  0.58508266  1  0  -0.167754  0  3.65717  0  0  -0.218641  0  3.902765  0  0  -0.218978  0  3.914231  0  0  -0.160284  -0.218092  0  3.894727  0
C  C61  1  0.12476995  0.99252208  0.41491283  1  0  -0.167841  0  3.65712  0  0  -0.218742  0  3.902873  0  0  -0.219081  0  3.914341  0  0  -0.16036  -0.218194  0  3.894836  0
C  C62  1  0.44365103  0.51032810  0.27764163  1  0  0.668463  0  3.836795  0  0  0.616218  0  4.139723  0  0  0.649052  0  4.135801  0  0  0.213227  0.593923  0  4.141331  0
C  C63  1  0.94365718  0.48966544  0.72236312  1  0  0.668397  0  3.836919  0  0  0.615995  0  4.13997  0  0  0.648829  0  4.136051  0  0  0.213131  0.593702  0  4.141569  0
C  C64  1  0.41443841  0.56291589  0.19076863  1  0  -0.107736  0  3.593712  0  0  -0.105692  0  3.832925  0  0  -0.111275  0  3.845883  0  0  -0.086177  -0.101965  0  3.823969  0
C  C65  1  0.91444549  0.43707643  0.80923482  1  0  -0.107835  0  3.594007  0  0  -0.105496  0  3.8328  0  0  -0.111082  0  3.845751  0  0  -0.086115  -0.101778  0  3.823865  0
C  C66  1  0.59774510  0.56360053  0.13855205  1  0  -0.167413  0  3.701716  0  0  -0.222242  0  3.956311  0  0  -0.222819  0  3.968791  0  0  -0.163559  -0.221611  0  3.947616  0
C  C67  1  0.09775521  0.43639516  0.86144798  1  0  -0.167295  0  3.701839  0  0  -0.222255  0  3.956484  0  0  -0.22283  0  3.968965  0  0  -0.163494  -0.221621  0  3.947782  0
C  C68  1  0.59419026  0.40579456  0.07381322  1  0  0.053922  0  3.725087  0  0  0.073587  0  3.957526  0  0  0.072926  0  3.98165  0  0  -0.013366  0.073975  0  3.941207  0
C  C69  1  0.09419534  0.59420352  0.92618774  1  0  0.053956  0  3.724967  0  0  0.073512  0  3.957542  0  0  0.072851  0  3.981668  0  0  -0.013413  0.073908  0  3.94122  0
C  C70  1  0.74073588  0.32566067  0.02386959  1  0  -0.123551  0  3.769274  0  0  -0.14075  0  4.012091  0  0  -0.142965  0  4.032808  0  0  -0.095348  -0.139171  0  3.99802  0
C  C71  1  0.24074579  0.67433623  0.97612678  1  0  -0.123572  0  3.769435  0  0  -0.140732  0  4.012267  0  0  -0.142951  0  4.03299  0  0  -0.095295  -0.139161  0  3.998184  0
C  C72  1  0.70431411  0.18148654  0.96474820  1  0  -0.082734  0  3.809121  0  0  -0.098663  0  4.063411  0  0  -0.100545  0  4.085739  0  0  -0.101735  -0.097295  0  4.048168  0
C  C73  1  0.20432622  0.81850919  0.03525139  1  0  -0.082826  0  3.809198  0  0  -0.098718  0  4.063459  0  0  -0.100603  0  4.08579  0  0  -0.10181  -0.097352  0  4.048225  0
C  C74  1  0.52295709  0.11820759  0.95624330  1  0  -0.088257  0  3.815656  0  0  -0.103166  0  4.070172  0  0  -0.10572  0  4.092726  0  0  -0.103065  -0.10135  0  4.054756  0
C  C75  1  0.02297061  0.88178450  0.04375792  1  0  -0.088318  0  3.815784  0  0  -0.103262  0  4.070329  0  0  -0.105816  0  4.092884  0  0  -0.10314  -0.101445  0  4.054906  0
C  C76  1  0.37606008  0.19764488  0.00701412  1  0  -0.131483  0  3.787368  0  0  -0.150636  0  4.036302  0  0  -0.152965  0  4.058113  0  0  -0.099235  -0.148932  0  4.021451  0
C  C77  1  0.87606736  0.80235699  0.99299122  1  0  -0.131456  0  3.787233  0  0  -0.150652  0  4.036146  0  0  -0.152978  0  4.057956  0  0  -0.099255  -0.148925  0  4.021304  0
C  C78  1  0.41268481  0.34113405  0.06629260  1  0  0.043188  0  3.730929  0  0  0.061797  0  3.966315  0  0  0.06038  0  3.990983  0  0  -0.017197  0.062674  0  3.949625  0
C  C79  1  0.91268445  0.65886183  0.93370999  1  0  0.043176  0  3.730606  0  0  0.061891  0  3.96589  0  0  0.060474  0  3.990552  0  0  -0.017225  0.062763  0  3.949198  0
C  C80  1  0.28097061  0.44651222  0.12888203  1  0  -0.166284  0  3.668182  0  0  -0.218202  0  3.91904  0  0  -0.217832  0  3.929326  0  0  -0.159923  -0.218182  0  3.911888  0
C  C81  1  0.78096980  0.55349079  0.87112320  1  0  -0.16635  0  3.668021  0  0  -0.218276  0  3.918747  0  0  -0.217894  0  3.929042  0  0  -0.159941  -0.218257  0  3.911595  0
O  O82  1  0.45969301  0.38299845  0.61893188  1  0  -0.853197  0  1.791316  0  0  -0.791555  0  1.95786  0  0  -0.813532  0  1.926597  0  0  -0.571059  -0.775704  0  1.979808  0
O  O83  1  0.95969647  0.61701292  0.38106778  1  0  -0.853242  0  1.791242  0  0  -0.791683  0  1.957664  0  0  -0.81365  0  1.926371  0  0  -0.571088  -0.775836  0  1.979621  0
O  O84  1  0.63904911  0.66086149  0.51150729  1  0  -0.671894  0  2.038337  0  0  -0.587905  0  2.282049  0  0  -0.621302  0  2.275841  0  0  -0.286054  -0.563777  0  2.28569  0
O  O85  1  0.13905232  0.33913906  0.48849760  1  0  -0.671855  0  2.038046  0  0  -0.587918  0  2.281757  0  0  -0.621318  0  2.275551  0  0  -0.286073  -0.563794  0  2.285394  0
O  O86  1  0.33109202  0.65487309  0.52032125  1  0  -0.678236  0  2.036378  0  0  -0.598566  0  2.28247  0  0  -0.631959  0  2.276299  0  0  -0.286325  -0.574447  0  2.28615  0
O  O87  1  0.83109696  0.34514171  0.47967227  1  0  -0.678181  0  2.036427  0  0  -0.598571  0  2.282539  0  0  -0.631965  0  2.276368  0  0  -0.286371  -0.574456  0  2.286211  0
O  O88  1  0.60737571  0.49078226  0.30572454  1  0  -0.666339  0  1.950923  0  0  -0.600262  0  2.177157  0  0  -0.628956  0  2.170083  0  0  -0.309905  -0.580033  0  2.181412  0
O  O89  1  0.10737812  0.50922064  0.69427883  1  0  -0.66626  0  1.950951  0  0  -0.600143  0  2.177233  0  0  -0.628833  0  2.170157  0  0  -0.309868  -0.579917  0  2.181487  0
O  O90  1  0.29621897  0.48654154  0.32011481  1  0  -0.685313  0  2.006038  0  0  -0.615352  0  2.241205  0  0  -0.646356  0  2.235013  0  0  -0.308986  -0.593429  0  2.244668  0
O  O91  1  0.79622463  0.51344475  0.67988846  1  0  -0.685332  0  2.006042  0  0  -0.615325  0  2.24124  0  0  -0.646326  0  2.235043  0  0  -0.308967  -0.593402  0  2.244702  0
