# generated using pymatgen
data_Zn2H26C31(N2O9)2
_symmetry_space_group_name_H-M   'P 1'
_cell_length_a   9.68786873
_cell_length_b   10.87567199
_cell_length_c   11.06234462
_cell_angle_alpha   90.80430093
_cell_angle_beta   91.23238780
_cell_angle_gamma   92.69717894
_symmetry_Int_Tables_number   1
_chemical_formula_structural   Zn2H26C31(N2O9)2
_chemical_formula_sum   'Zn2 H26 C31 N4 O18'
_cell_volume   1163.85897817
_cell_formula_units_Z   1
loop_
 _symmetry_equiv_pos_site_id
 _symmetry_equiv_pos_as_xyz
  1  'x, y, z'
loop_
 _atom_site_type_symbol
 _atom_site_label
 _atom_site_symmetry_multiplicity
 _atom_site_fract_x
 _atom_site_fract_y
 _atom_site_fract_z
 _atom_site_occupancy
 _atom_site_pbe_bader_charge
 _atom_site_pbe_bader_spin_density
 _atom_site_pbe_cm5_charge
 _atom_site_pbe_ddec_charge
 _atom_site_pbe_ddec_spin_density
 _atom_site_pbe_ddec_sum_bond_order
 _atom_site_pbe_magmom
Zn  Zn0  1  0.63694686  0.50832690  0.50418112  1  1.277947  0  0.666866  0.808923  0  2.430453  0
Zn  Zn1  1  0.35094678  0.49570528  0.49891012  1  1.268654  0  0.675895  0.81109  0  2.475934  0
H  H2  1  0.33386688  0.10292238  0.35280537  1  0.070174  0  0.094604  0.108503  0  0.985473  0
H  H3  1  0.16510170  0.75080439  0.63253443  1  0.109657  0  0.107986  0.133855  0  1.002538  0
H  H4  1  0.13983409  0.64266532  0.75038522  1  0.121793  0  0.110894  0.138097  0  0.974253  0
H  H5  1  0.44329338  0.10355456  0.67950762  1  0.038123  0  0.099252  0.109378  0  0.977852  0
H  H6  1  0.62276371  0.11355942  0.65467347  1  0.065631  0  0.103972  0.127945  0  0.970221  0
H  H7  1  0.71145424  0.09759591  0.46762278  1  0.115043  0  0.114879  0.114279  0  0.993679  0
H  H8  1  0.32327647  0.88652940  0.35573449  1  0.051146  0  0.095091  0.10531  0  1.000919  0
H  H9  1  0.27825563  0.88778032  0.50673992  1  0.032342  0  0.093369  0.092373  0  1.015999  0
H  H10  1  0.27419638  0.10304625  0.50143614  1  0.053005  0  0.09073  0.096193  0  0.988322  0
H  H11  1  0.73554682  0.93672577  0.64114624  1  0.423299  0  0.278211  0.281532  0  1.00557  0
H  H12  1  0.66099942  0.80164786  0.66734866  1  0.412788  0  0.276236  0.276514  0  0.99565  0
H  H13  1  0.27181576  0.49133208  0.87786888  1  0.108257  0  0.105139  0.111178  0  1.020503  0
H  H14  1  0.59058451  0.92413597  0.09515269  1  0.632728  0  0.354954  0.392297  0  0.835558  0
H  H15  1  0.55249039  0.24923028  0.17995266  1  0.614919  0  0.337939  0.374437  0  0.873371  0
H  H16  1  0.04667918  0.52342614  0.12779537  1  0.604734  0  0.32801  0.361631  0  0.898765  0
H  H17  1  0.99270810  0.34255995  0.80446139  1  0.608411  0  0.346881  0.384668  0  0.845544  0
H  H18  1  0.44907227  0.87965238  0.78039037  1  0.406537  0  0.282642  0.27442  0  0.971623  0
H  H19  1  0.32640436  0.92000499  0.68634216  1  0.375197  0  0.28142  0.263265  0  0.981619  0
H  H20  1  0.88351841  0.79001721  0.33312974  1  0.623402  0  0.352614  0.387162  0  0.838721  0
H  H21  1  0.80861259  0.56289330  0.13827873  1  0.033734  0  0.096706  0.111086  0  0.988525  0
H  H22  1  0.79898434  0.39754385  0.12221564  1  0.113465  0  0.100953  0.118883  0  1.007538  0
H  H23  1  0.81871523  0.58384990  0.91505173  1  0.091496  0  0.109325  0.107409  0  0.971304  0
H  H24  1  0.10515614  0.34933659  0.37375037  1  0.164207  0  0.140317  0.13348  0  0.96343  0
H  H25  1  0.84683744  0.35834042  0.37563527  1  0.16699  0  0.129569  0.124292  0  1.023855  0
H  H26  1  0.90571708  0.77325496  0.61587810  1  0.136903  0  0.107332  0.13815  0  1.006026  0
H  H27  1  0.88166760  0.67057777  0.73999459  1  0.096185  0  0.106613  0.129451  0  0.992095  0
C  C28  1  0.49663654  0.51101163  0.73771039  1  1.569673  0  0.217046  0.596625  0  4.182365  0
C  C29  1  0.60547268  0.48558137  0.06977071  1  -0.125575  0  -0.002306  0.066882  0  3.907483  0
C  C30  1  0.76111791  0.48403256  0.08683723  1  -0.048764  0  -0.144412  -0.223253  0  3.832215  0
C  C31  1  0.49564623  0.74127120  0.48466652  1  1.573709  0  0.217409  0.597515  0  4.133726  0
C  C32  1  0.76791940  0.49682895  0.94296067  1  0.018845  0  -0.074039  -0.157448  0  3.831576  0
C  C33  1  0.07549949  0.56994882  0.57065274  1  0.515236  0  0.143255  0.194728  0  3.877164  0
C  C34  1  0.05578768  0.41518595  0.43196387  1  0.435453  0  0.064799  0.04343  0  3.850326  0
C  C35  1  0.91226428  0.42196279  0.43132450  1  0.483311  0  0.060343  0.043516  0  3.844097  0
C  C36  1  0.93260467  0.57935525  0.56746886  1  0.54005  0  0.138917  0.184857  0  3.888354  0
C  C37  1  0.93701763  0.68683078  0.65592536  1  -0.059533  0  -0.143773  -0.232898  0  3.805594  0
C  C38  1  0.09965867  0.67270112  0.66276940  1  -0.046449  0  -0.14004  -0.2249  0  3.805361  0
C  C39  1  0.49513276  0.12180082  0.49090645  1  0.075432  0  -0.01463  0.036052  0  3.791345  0
C  C40  1  0.47919450  0.48396005  0.26589081  1  1.608478  0  0.214126  0.590801  0  4.205351  0
C  C41  1  0.49678375  0.26220743  0.50227039  1  1.53387  0  0.218967  0.584299  0  4.123395  0
C  C42  1  0.52520929  0.93026310  0.61992947  1  0.650555  0  0.167954  0.428138  0  3.751087  0
C  C43  1  0.52377664  0.07320290  0.61874667  1  -0.037668  0  -0.156248  -0.293589  0  3.801115  0
C  C44  1  0.60524147  0.93669523  0.38946530  1  0.017466  0  0.013661  -0.11423  0  3.601909  0
C  C45  1  0.35384512  0.92671918  0.44402967  1  -0.001967  0  -0.172052  -0.184777  0  3.898015  0
C  C46  1  0.49677799  0.88158047  0.48241671  1  0.008459  0  -0.002866  -0.087176  0  3.64156  0
C  C47  1  0.55892494  0.89221130  0.26012342  1  1.548131  0  0.235799  0.582978  0  4.043388  0
C  C48  1  0.64333058  0.16145703  0.30289263  1  1.528233  0  0.228907  0.60884  0  4.080553  0
C  C49  1  0.21819149  0.45271429  0.10662680  1  1.527844  0  0.232705  0.595125  0  4.120109  0
C  C50  1  0.61669074  0.08101799  0.41261924  1  -0.027946  0  -0.076026  -0.179976  0  3.72075  0
C  C51  1  0.82840090  0.38929126  0.87861353  1  1.505273  0  0.233419  0.608915  0  4.07234  0
C  C52  1  0.75420815  0.89043289  0.40478976  1  1.539705  0  0.247414  0.598385  0  4.022226  0
C  C53  1  0.35467140  0.06812638  0.44358021  1  -0.078112  0  -0.171743  -0.193552  0  3.889183  0
C  C54  1  0.61141800  0.49516664  0.94478423  1  0.024494  0  -0.001942  0.041901  0  3.898459  0
C  C55  1  0.49338166  0.50038388  0.87185864  1  0.016829  0  -0.003936  -0.046077  0  3.961211  0
C  C56  1  0.36697792  0.49074668  0.93216291  1  0.009495  0  -0.076649  -0.122821  0  3.928571  0
C  C57  1  0.35998114  0.47853994  0.05766347  1  -0.078749  0  0.00144  -0.022274  0  3.912035  0
C  C58  1  0.48144829  0.47999191  0.13132992  1  0.103878  0  -0.004919  -0.095602  0  3.941385  0
N  N59  1  0.14041991  0.49030741  0.50300970  1  -1.190836  0  -0.294903  -0.184062  0  3.483566  0
N  N60  1  0.84792907  0.50651880  0.49943667  1  -1.219836  0  -0.295009  -0.190309  0  3.483188  0
N  N61  1  0.65172490  0.89429760  0.67968022  1  -1.125159  0  -0.652788  -0.713314  0  3.171047  0
N  N62  1  0.41447809  0.87248287  0.69259314  1  -1.084481  0  -0.631615  -0.671822  0  3.158515  0
O  O63  1  0.61554489  0.51703039  0.69015442  1  -1.156119  0  -0.311887  -0.534907  0  2.289491  0
O  O64  1  0.61913246  0.96167212  0.17333618  1  -1.124207  0  -0.322958  -0.473072  0  2.294839  0
O  O65  1  0.75835553  0.19754566  0.27172918  1  -1.144764  0  -0.294077  -0.494791  0  2.111896  0
O  O66  1  0.52563506  0.19512427  0.24659284  1  -1.116551  0  -0.325048  -0.468916  0  2.286788  0
O  O67  1  0.17237185  0.35052661  0.13344010  1  -1.132435  0  -0.294562  -0.488107  0  2.061735  0
O  O68  1  0.13956447  0.55331733  0.10485560  1  -1.107088  0  -0.342398  -0.480176  0  2.20398  0
O  O69  1  0.77355191  0.28687106  0.86574995  1  -1.132071  0  -0.290146  -0.479018  0  2.051205  0
O  O70  1  0.95862233  0.41896008  0.83834719  1  -1.112616  0  -0.341213  -0.499631  0  2.206956  0
O  O71  1  0.83934285  0.92848194  0.48129147  1  -1.154532  0  -0.279722  -0.484377  0  2.156628  0
O  O72  1  0.78690741  0.80896116  0.31770027  1  -1.107688  0  -0.321328  -0.462257  0  2.278516  0
O  O73  1  0.38055184  0.51168705  0.68228244  1  -1.163532  0  -0.311423  -0.540272  0  2.356095  0
O  O74  1  0.61397228  0.69470944  0.49765199  1  -1.165253  0  -0.316138  -0.560035  0  2.376962  0
O  O75  1  0.38053502  0.68179122  0.47999942  1  -1.15767  0  -0.304256  -0.524253  0  2.382943  0
O  O76  1  0.59673605  0.49250342  0.32001651  1  -1.160091  0  -0.311086  -0.536721  0  2.324528  0
O  O77  1  0.36175849  0.48012965  0.31454478  1  -1.145266  0  -0.301894  -0.519323  0  2.352623  0
O  O78  1  0.61483798  0.31890911  0.50653153  1  -1.166738  0  -0.314672  -0.545877  0  2.345683  0
O  O79  1  0.38109090  0.31124940  0.51025855  1  -1.157631  0  -0.313529  -0.53791  0  2.350832  0
O  O80  1  0.48403307  0.80166249  0.23677959  1  -1.121859  0  -0.268332  -0.451065  0  2.129453  0
