# generated using pymatgen
data_Cu3H24C14(N13O)2
_symmetry_space_group_name_H-M   'P 1'
_cell_length_a   7.81462354
_cell_length_b   9.36404596
_cell_length_c   11.03467397
_cell_angle_alpha   100.88119262
_cell_angle_beta   103.84473845
_cell_angle_gamma   108.86828050
_symmetry_Int_Tables_number   1
_chemical_formula_structural   Cu3H24C14(N13O)2
_chemical_formula_sum   'Cu3 H24 C14 N26 O2'
_cell_volume   710.07838635
_cell_formula_units_Z   1
loop_
 _symmetry_equiv_pos_site_id
 _symmetry_equiv_pos_as_xyz
  1  'x, y, z'
loop_
 _atom_site_type_symbol
 _atom_site_label
 _atom_site_symmetry_multiplicity
 _atom_site_fract_x
 _atom_site_fract_y
 _atom_site_fract_z
 _atom_site_occupancy
 _atom_site_hle17_ddec_charge
 _atom_site_hle17_ddec_spin_density
 _atom_site_hle17_ddec_sum_bond_order
 _atom_site_hle17_magmom
 _atom_site_hse06_10hf_ddec_charge
 _atom_site_hse06_10hf_ddec_spin_density
 _atom_site_hse06_10hf_ddec_sum_bond_order
 _atom_site_hse06_10hf_magmom
 _atom_site_hse06_ddec_charge
 _atom_site_hse06_ddec_spin_density
 _atom_site_hse06_ddec_sum_bond_order
 _atom_site_hse06_magmom
 _atom_site_pbe_cm5_charge
 _atom_site_pbe_ddec_charge
 _atom_site_pbe_ddec_spin_density
 _atom_site_pbe_ddec_sum_bond_order
 _atom_site_pbe_magmom
Cu  Cu0  1  0.44476563  0.15781112  0.10063403  1  0.804811  0.589689  1.908279  0.377  0.8143  0.740465  2.31636  0.537  0.910995  0.862035  2.239265  0.641  0.764338  0.762102  0.647024  2.364812  0.464
Cu  Cu1  1  0.55701070  0.84260275  0.89947457  1  0.805022  -0.58591  1.904055  -0.387  0.815089  -0.719645  2.311641  -0.536  0.910458  -0.818715  2.235274  -0.636  0.764568  0.763683  -0.648609  2.359428  -0.47
Cu  Cu2  1  0.99828788  0.99839858  0.99932757  1  0.758365  -0.548647  2.041916  -0.363  0.796102  -0.708664  2.432877  -0.529  0.888454  -0.813463  2.36008  -0.634  0.770066  0.748259  -0.628803  2.476171  -0.457
H  H3  1  0.97281079  0.14654691  0.56685593  1  0.071652  0.000776  0.94413  0.001  0.076764  0.000448  1.015654  0.0  0.078906  0.000289  1.012158  0.0  0.11435  0.075175  0.000578  1.018309  0.001
H  H4  1  0.02740894  0.85328011  0.43322274  1  0.071654  -0.000655  0.944555  -0.001  0.077175  -0.000434  1.015604  0.0  0.079186  -0.00027  1.012202  0.0  0.114616  0.075623  -0.000589  1.018252  -0.001
H  H5  1  0.71096770  0.89378441  0.40829891  1  0.120685  8.3e-05  0.977413  0.0  0.125527  0.000172  1.046745  0.0  0.128948  0.000159  1.046487  0.0  0.106019  0.122937  0.000148  1.047374  0.0
H  H6  1  0.28904372  0.10606773  0.59187714  1  0.120071  -0.000308  0.978347  0.0  0.125246  -0.000445  1.047233  0.0  0.128844  -0.000373  1.046712  0.0  0.105864  0.122364  -0.00048  1.048254  0.0
H  H7  1  0.49659390  0.92147052  0.20863732  1  0.080909  0.000912  0.970566  0.002  0.089191  0.00113  1.0417  0.002  0.091108  0.000999  1.039187  0.001  0.116335  0.087859  0.001158  1.043273  0.002
H  H8  1  0.50376728  0.07842234  0.79140500  1  0.081142  -0.000977  0.970717  -0.002  0.089605  -0.001134  1.041538  -0.002  0.091527  -0.000908  1.038973  -0.001  0.116014  0.088102  -0.001273  1.043395  -0.002
H  H9  1  0.69038151  0.45046270  0.26976901  1  0.345491  -5.2e-05  0.928703  0.0  0.322914  -9.1e-05  1.000144  0.0  0.330603  -8.9e-05  0.993669  0.0  0.300759  0.317405  -7.8e-05  1.004926  0.0
H  H10  1  0.30957542  0.54956314  0.73054578  1  0.34554  0.000136  0.929127  0.0  0.323111  0.000137  1.000227  0.0  0.330878  0.000134  0.993639  0.0  0.300788  0.31749  0.000125  1.005163  0.0
H  H11  1  0.90090717  0.53598053  0.41061282  1  0.321905  -0.000292  0.945317  0.0  0.294498  -0.000275  1.024719  0.0  0.303851  -0.000166  1.016904  0.0  0.293343  0.287918  -0.000384  1.030198  0.0
H  H12  1  0.09911007  0.46394603  0.58961584  1  0.322144  0.000348  0.945394  0.0  0.294656  0.000322  1.024924  0.0  0.304038  0.000212  1.017068  0.0  0.293352  0.288011  0.00042  1.030489  0.0
H  H13  1  0.29604110  0.50956130  0.04840898  1  0.03998  0.000279  0.927695  0.0  0.048186  0.000247  0.998994  0.0  0.050484  0.000218  0.993728  0.0  0.118002  0.046421  0.000272  1.002731  0.0
H  H14  1  0.70404684  0.49045748  0.95160878  1  0.040217  -0.000215  0.927952  0.0  0.048512  -0.000194  0.999122  0.0  0.050671  -0.000155  0.993986  0.0  0.118089  0.04693  -0.00023  1.002627  0.0
H  H15  1  0.48276231  0.50377498  0.37899116  1  0.104857  0.000113  0.959191  0.0  0.124695  0.000118  1.021419  0.0  0.125779  0.0001  1.021489  0.0  0.107656  0.12378  0.000122  1.021541  0.0
H  H16  1  0.51727779  0.49627678  0.62102643  1  0.104964  -5.8e-05  0.959277  0.0  0.124627  -7.9e-05  1.021606  0.0  0.125669  -6.5e-05  1.021701  0.0  0.107779  0.1238  -9e-05  1.021651  0.0
H  H17  1  0.25403799  0.48242096  0.39465122  1  0.100932  0.00014  0.938237  0.0  0.118119  0.000143  1.007682  0.0  0.118972  0.000118  1.007668  0.0  0.101533  0.11747  0.000127  1.00792  0.0
H  H18  1  0.74586183  0.51748873  0.60518697  1  0.100934  -0.000215  0.938514  0.0  0.11814  -0.000222  1.007855  0.0  0.118845  -0.000158  1.008044  0.0  0.101727  0.117739  -0.000237  1.00778  0.0
H  H19  1  0.44066439  0.67438399  0.44362823  1  0.09204  -0.000397  0.946065  0.0  0.110263  -0.000456  1.013563  0.0  0.110871  -0.000393  1.013537  0.0  0.097839  0.109931  -0.000501  1.013548  0.0
H  H20  1  0.55932404  0.32556562  0.55647414  1  0.092513  -4.4e-05  0.944684  0.0  0.110635  3.3e-05  1.012245  0.0  0.111218  3.4e-05  1.012343  0.0  0.098051  0.110288  -1.5e-05  1.012128  0.0
H  H21  1  0.13320099  0.63678532  0.11223130  1  0.097347  -0.000419  0.969792  0.0  0.11773  -0.00033  1.036418  0.0  0.118188  -0.00023  1.037318  0.0  0.105352  0.117395  -0.000408  1.035772  0.0
H  H22  1  0.86694462  0.36323564  0.88774129  1  0.097696  0.000371  0.970001  0.0  0.118101  0.000272  1.03646  0.0  0.118509  0.000187  1.03734  0.0  0.105591  0.117809  0.000335  1.035815  0.0
H  H23  1  0.23803371  0.76622437  0.27458620  1  0.092541  -3.2e-05  0.937381  0.0  0.112241  -6.3e-05  1.002283  0.0  0.113026  -5.4e-05  1.002158  0.0  0.096137  0.111534  -7.5e-05  1.002672  0.0
H  H24  1  0.76187855  0.23377665  0.72541080  1  0.092655  -3e-05  0.937507  0.0  0.112303  -2.8e-05  1.002485  0.0  0.113055  -2.1e-05  1.002394  0.0  0.096257  0.11165  -3.7e-05  1.002815  0.0
H  H25  1  0.04969600  0.57921898  0.23916768  1  0.09864  -0.00026  0.966736  0.0  0.113618  -0.000259  1.040325  0.0  0.114403  -0.000214  1.040572  0.0  0.098623  0.113363  -0.000293  1.039541  0.0
H  H26  1  0.95034527  0.42070287  0.76076434  1  0.098643  -0.000168  0.966945  0.0  0.113682  -0.000166  1.040482  0.0  0.11457  -0.000125  1.04058  0.0  0.098655  0.113339  -0.000217  1.039832  0.0
C  C27  1  0.77167607  0.29617727  0.35546654  1  0.631917  -0.001263  3.795613  -0.001  0.58977  0.001185  4.064491  0.001  0.61803  0.000433  4.072654  0.0  0.347419  0.571308  0.001661  4.058571  0.002
C  C28  1  0.22846210  0.70372895  0.64468242  1  0.632383  0.001714  3.796196  0.002  0.590914  -0.001136  4.064032  -0.001  0.619118  -0.000275  4.072263  0.0  0.348007  0.57256  -0.001812  4.057952  -0.002
C  C29  1  0.87186903  0.14743207  0.47944419  1  0.206092  -0.005556  3.739892  -0.005  0.171161  -0.001946  4.002363  -0.002  0.187202  -0.002173  4.01398  -0.002  0.066142  0.160746  -0.001634  3.993625  -0.001
C  C30  1  0.12833414  0.85241030  0.52064134  1  0.206214  0.00545  3.74098  0.005  0.171018  0.001623  4.003315  0.002  0.186904  0.002079  4.015196  0.002  0.066447  0.160781  0.001057  3.994463  0.001
C  C31  1  0.72799902  0.00788954  0.39269332  1  -0.240131  0.007155  3.767035  0.007  -0.258494  0.003849  4.033288  0.004  -0.274177  0.003286  4.054468  0.004  -0.115531  -0.247715  0.003885  4.017768  0.004
C  C32  1  0.27218728  0.99195054  0.60740893  1  -0.240361  -0.007512  3.769264  -0.007  -0.258703  -0.004007  4.03525  -0.004  -0.274209  -0.003365  4.056106  -0.004  -0.11592  -0.248198  -0.004527  4.020287  -0.005
C  C33  1  0.60979165  0.02315478  0.28469344  1  0.196035  -0.004892  3.709014  -0.005  0.16066  -0.000674  3.963637  -0.001  0.177499  -0.001293  3.978777  -0.002  0.052013  0.150245  -0.000132  3.95276  -0.001
C  C34  1  0.39044154  0.97671234  0.71539474  1  0.194865  0.005026  3.709381  0.005  0.159649  0.000202  3.96352  0.001  0.176499  0.001179  3.978578  0.002  0.05196  0.149296  -0.000359  3.952793  0.001
C  C35  1  0.35829494  0.49554660  0.14417633  1  0.419902  -0.000809  3.805653  -0.001  0.347958  -0.000766  4.097309  -0.001  0.37822  -0.000602  4.0943  -0.001  0.173499  0.327928  -0.000722  4.098433  -0.001
C  C36  1  0.64201945  0.50465493  0.85587781  1  0.419533  0.000692  3.805679  0.001  0.347647  0.000494  4.097216  0.001  0.377936  0.000395  4.094347  0.001  0.173832  0.327557  0.000356  4.098131  0.0
C  C37  1  0.37660274  0.55700559  0.37233921  1  -0.160621  -4.6e-05  3.643756  0.0  -0.259171  -9.8e-05  3.887842  0.0  -0.255604  -9.1e-05  3.897228  0.0  -0.137722  -0.261436  -0.000164  3.88138  0.0
C  C38  1  0.62340774  0.44301665  0.62766146  1  -0.160454  -0.000232  3.643483  0.0  -0.258787  -0.000218  3.887548  0.0  -0.255217  -0.000142  3.897033  0.0  -0.137392  -0.261075  -0.000244  3.880901  0.0
C  C39  1  0.17663029  0.64218570  0.21538993  1  -0.177603  -0.00061  3.687494  0.0  -0.28247  -0.000676  3.943422  0.0  -0.278979  -0.000537  3.953763  0.0  -0.14157  -0.284485  -0.000796  3.935909  0.0
C  C40  1  0.82343659  0.35782469  0.78459213  1  -0.177702  -0.000242  3.68683  0.0  -0.282544  -0.000261  3.942492  0.0  -0.278961  -0.000222  3.952716  0.0  -0.141627  -0.284618  -0.000324  3.935041  0.0
N  N41  1  0.62834891  0.16434239  0.26520724  1  -0.464107  0.070747  3.233398  0.079  -0.405712  0.058679  3.518946  0.072  -0.44481  0.051875  3.534748  0.066  -0.361415  -0.383012  0.059292  3.510211  0.071
N  N42  1  0.37181286  0.83552132  0.73491362  1  -0.464269  -0.073213  3.231064  -0.085  -0.405337  -0.05885  3.515643  -0.074  -0.444302  -0.05037  3.531693  -0.067  -0.360901  -0.382778  -0.061631  3.506495  -0.074
N  N43  1  0.89471713  0.28841189  0.46213959  1  -0.450495  0.011175  3.037289  0.012  -0.392635  0.006345  3.287591  0.007  -0.414539  0.004483  3.297692  0.006  -0.315384  -0.377482  0.008028  3.280109  0.009
N  N44  1  0.10552872  0.71143157  0.53792525  1  -0.451175  -0.0125  3.038355  -0.014  -0.39327  -0.007611  3.288485  -0.009  -0.415324  -0.005379  3.29886  -0.007  -0.315834  -0.377993  -0.00954  3.280636  -0.011
N  N45  1  0.79340776  0.43813079  0.33983588  1  -0.691778  -0.002515  3.11458  -0.003  -0.654325  -0.001231  3.359747  -0.001  -0.677839  -0.001194  3.354569  -0.001  -0.565454  -0.638157  -0.001301  3.36303  -0.001
N  N46  1  0.20654937  0.56179121  0.66043082  1  -0.692838  0.00226  3.115104  0.002  -0.655235  0.001215  3.359785  0.001  -0.678697  0.001306  3.354391  0.001  -0.565739  -0.639127  0.000979  3.363294  0.001
N  N47  1  0.21770304  0.10227260  0.93720051  1  -0.53725  -0.011738  2.905827  -0.015  -0.571189  -0.004372  3.280435  -0.006  -0.626788  -0.001062  3.298274  -0.003  -0.352423  -0.54039  -0.006623  3.271617  -0.008
N  N48  1  0.78210313  0.89808703  0.06381481  1  -0.541515  -0.092472  2.919174  -0.107  -0.574678  -0.065927  3.294924  -0.082  -0.628573  -0.048898  3.310774  -0.066  -0.356885  -0.545802  -0.074483  3.288302  -0.087
N  N49  1  0.20653441  0.18893292  0.86917886  1  0.400124  0.005341  4.120781  0.007  0.447498  0.000612  4.417444  0.002  0.468074  0.000671  4.454667  0.001  0.102074  0.43479  0.000346  4.392989  0.002
N  N50  1  0.79287341  0.81060343  0.13098379  1  0.400753  0.032366  4.119752  0.045  0.448679  0.00438  4.415139  0.013  0.469117  0.010106  4.450282  0.019  0.101851  0.43594  -0.000932  4.393337  0.008
N  N51  1  0.19454362  0.26845246  0.80118352  1  -0.290596  -0.018438  2.355023  -0.02  -0.28856  -0.007007  2.570739  -0.008  -0.29837  -0.004222  2.584002  -0.006  -0.130056  -0.282257  -0.010321  2.561713  -0.011
N  N52  1  0.80439090  0.73095663  0.19897860  1  -0.292088  -0.143039  2.351576  -0.15  -0.288823  -0.085444  2.56715  -0.095  -0.296357  -0.07644  2.578912  -0.09  -0.132815  -0.285324  -0.090342  2.560039  -0.096
N  N53  1  0.21836810  0.04998737  0.16069333  1  -0.547231  -0.009934  2.900371  -0.012  -0.580977  -0.001879  3.275736  -0.003  -0.635918  0.000301  3.291213  0.0  -0.356294  -0.551055  -0.002815  3.269723  -0.004
N  N54  1  0.78165235  0.95113957  0.83835975  1  -0.54774  -0.091742  2.910394  -0.106  -0.581527  -0.065819  3.286182  -0.082  -0.635511  -0.047673  3.300488  -0.065  -0.359092  -0.552814  -0.075014  3.281844  -0.088
N  N55  1  0.21443215  0.10653884  0.26827634  1  0.398103  0.005342  4.122419  0.007  0.444391  0.0011  4.422471  0.001  0.465237  0.000883  4.457662  0.001  0.098716  0.431293  0.00106  4.400299  0.002
N  N56  1  0.78502863  0.89296486  0.73108176  1  0.397839  0.031229  4.124966  0.045  0.444501  0.003209  4.42549  0.013  0.465366  0.00931  4.459253  0.019  0.097835  0.431224  -0.002441  4.405361  0.007
N  N57  1  0.21355444  0.15869712  0.37210996  1  -0.292704  -0.015855  2.367869  -0.018  -0.295566  -0.002945  2.589767  -0.004  -0.303698  -0.001064  2.602425  -0.002  -0.129676  -0.290176  -0.004809  2.581364  -0.006
N  N58  1  0.78512941  0.84008059  0.62716599  1  -0.292272  -0.145713  2.366014  -0.152  -0.295336  -0.089352  2.588769  -0.099  -0.301986  -0.079698  2.600399  -0.093  -0.130742  -0.292056  -0.094749  2.581868  -0.1
N  N59  1  0.63223760  0.20426701  0.00786713  1  -0.499673  0.092586  2.708911  0.101  -0.551188  0.045257  3.073816  0.055  -0.593118  0.029526  3.084983  0.038  -0.309756  -0.527234  0.052333  3.068654  0.06
N  N60  1  0.36795692  0.79650736  0.99168444  1  -0.493109  -0.091187  2.705092  -0.104  -0.547208  -0.042621  3.070461  -0.053  -0.58952  -0.025344  3.082061  -0.035  -0.305945  -0.522962  -0.052185  3.064959  -0.061
N  N61  1  0.79844237  0.22935526  0.05460538  1  0.378964  -0.029946  4.186398  -0.045  0.430538  -0.002348  4.504923  -0.01  0.45089  -0.004187  4.542742  -0.011  0.077768  0.418173  0.00019  4.480498  -0.007
N  N62  1  0.20183762  0.77168339  0.94534586  1  0.378438  0.034645  4.187577  0.048  0.431077  0.004101  4.507185  0.011  0.451832  0.005897  4.545323  0.012  0.076855  0.418342  0.001409  4.482654  0.009
N  N63  1  0.96118895  0.25217541  0.09237981  1  -0.352014  0.136746  2.435849  0.136  -0.389196  0.06468  2.704477  0.068  -0.407394  0.054697  2.716653  0.059  -0.194951  -0.378462  0.068575  2.69651  0.07
N  N64  1  0.03909240  0.74920979  0.90792455  1  -0.352796  -0.136321  2.44221  -0.143  -0.392422  -0.06222  2.713243  -0.069  -0.41193  -0.050922  2.725872  -0.06  -0.196089  -0.381065  -0.068356  2.705129  -0.072
N  N65  1  0.31496887  0.56995088  0.24133770  1  -0.098241  -0.000425  3.510475  0.0  0.009099  -0.000267  3.736721  0.0  -0.010826  -0.000214  3.760766  0.0  -0.285543  0.022916  -0.000373  3.719431  0.0
N  N66  1  0.68523911  0.43021758  0.75869592  1  -0.097794  2e-06  3.510866  0.0  0.009556  -4.9e-05  3.736973  0.0  -0.010323  1.5e-05  3.760889  0.0  -0.285737  0.023351  3e-06  3.719821  0.0
O  O67  1  0.46245724  0.41838809  0.15710679  1  -0.578711  -0.001678  2.146523  0.0  -0.537539  -0.0013  2.416708  0.0  -0.56515  -0.001416  2.406123  0.0  -0.322679  -0.519269  -0.001534  2.423825  -0.001
O  O68  1  0.53800400  0.58198664  0.84295426  1  -0.57924  0.001235  2.145967  0.0  -0.538256  0.00109  2.416522  0.0  -0.565858  0.001257  2.405932  0.0  -0.322952  -0.519882  0.000999  2.423669  0.0
