# generated using pymatgen
data_CuAgH16C24I3N4
_symmetry_space_group_name_H-M   'P 1'
_cell_length_a   10.18856218
_cell_length_b   10.69176978
_cell_length_c   12.53215572
_cell_angle_alpha   96.95183601
_cell_angle_beta   100.66020297
_cell_angle_gamma   91.39834698
_symmetry_Int_Tables_number   1
_chemical_formula_structural   CuAgH16C24I3N4
_chemical_formula_sum   'Cu2 Ag2 H32 C48 I6 N8'
_cell_volume   1330.21783452
_cell_formula_units_Z   2
loop_
 _symmetry_equiv_pos_site_id
 _symmetry_equiv_pos_as_xyz
  1  'x, y, z'
loop_
 _atom_site_type_symbol
 _atom_site_label
 _atom_site_symmetry_multiplicity
 _atom_site_fract_x
 _atom_site_fract_y
 _atom_site_fract_z
 _atom_site_occupancy
 _atom_site_hle17_ddec_charge
 _atom_site_hle17_ddec_spin_density
 _atom_site_hle17_ddec_sum_bond_order
 _atom_site_hle17_magmom
 _atom_site_hse06_10hf_ddec_charge
 _atom_site_hse06_10hf_ddec_spin_density
 _atom_site_hse06_10hf_ddec_sum_bond_order
 _atom_site_hse06_10hf_magmom
 _atom_site_hse06_ddec_charge
 _atom_site_hse06_ddec_spin_density
 _atom_site_hse06_ddec_sum_bond_order
 _atom_site_hse06_magmom
 _atom_site_pbe_cm5_charge
 _atom_site_pbe_ddec_charge
 _atom_site_pbe_ddec_spin_density
 _atom_site_pbe_ddec_sum_bond_order
 _atom_site_pbe_magmom
Cu  Cu0  1  0.72897638  0.99424584  0.22333315  1  0.569015  0.526076  2.089795  0.379  0.541178  0.713292  2.513403  0.541  0.638655  0.831499  2.446049  0.652  0.65027  0.490859  0.624716  2.556403  0.469
Cu  Cu1  1  0.27103832  0.00574634  0.77667135  1  0.568969  -0.525988  2.089755  -0.379  0.541144  -0.713261  2.513228  -0.541  0.638508  -0.831505  2.446041  -0.652  0.650213  0.490788  -0.624659  2.55626  -0.469
Ag  Ag2  1  0.56355387  0.58941833  0.13621305  1  0.316845  0.036889  1.975694  0.021  0.238311  0.015379  2.487528  0.009  0.267178  0.00501  2.438476  0.003  0.146877  0.219862  0.032024  2.521524  0.02
Ag  Ag3  1  0.43643717  0.41056196  0.86378920  1  0.316843  -0.036933  1.975831  -0.021  0.238316  -0.015398  2.487671  -0.009  0.267172  -0.005019  2.43863  -0.003  0.146871  0.219878  -0.032065  2.521653  -0.02
H  H4  1  0.80780994  0.71498811  0.17513276  1  0.065347  0.000613  1.00197  0.001  0.069561  0.000918  1.083087  0.002  0.073459  0.000761  1.077576  0.002  0.091741  0.06611  0.001047  1.087304  0.002
H  H5  1  0.19220478  0.28500173  0.82488584  1  0.065258  -0.000607  1.002107  -0.001  0.06949  -0.000917  1.083243  -0.002  0.073391  -0.000759  1.077723  -0.002  0.091701  0.065997  -0.001047  1.087484  -0.002
H  H6  1  0.01035913  0.61627950  0.11996941  1  0.109551  0.000172  0.949889  0.0  0.123081  0.000374  1.005536  0.001  0.126512  0.00033  1.004907  0.0  0.103077  0.118613  0.000495  1.009578  0.001
H  H7  1  0.98966502  0.38372746  0.88004273  1  0.109695  -0.000173  0.949724  0.0  0.123208  -0.000374  1.00539  -0.001  0.126647  -0.00033  1.004738  0.0  0.103117  0.118677  -0.000494  1.009495  -0.001
H  H8  1  0.19428696  0.75277211  0.08323056  1  0.104549  0.000312  0.963185  0.0  0.115272  0.000369  1.027487  0.0  0.119695  0.000299  1.023705  0.0  0.095889  0.111997  0.000326  1.030095  0.0
H  H9  1  0.80572656  0.24723569  0.91675985  1  0.104545  -0.000322  0.963352  0.0  0.115292  -0.000369  1.027627  0.0  0.119718  -0.000299  1.02384  0.0  0.095856  0.112008  -0.000326  1.030248  0.0
H  H10  1  0.27971975  0.97548321  0.06810748  1  0.099162  0.00032  0.982261  0.0  0.108138  0.000689  1.052199  0.0  0.112552  0.000548  1.049295  0.0  0.088485  0.105285  0.000567  1.05418  0.0
H  H11  1  0.72027062  0.02453890  0.93189132  1  0.099118  -0.000317  0.982144  0.0  0.108166  -0.000689  1.052058  0.0  0.112604  -0.000548  1.049132  0.0  0.088482  0.105312  -0.000567  1.05404  0.0
H  H12  1  0.24955423  0.20579281  0.08975892  1  0.10103  0.00038  0.965171  0.0  0.111113  0.00025  1.033082  0.0  0.114711  0.00015  1.031652  0.0  0.096179  0.108531  0.000378  1.033574  0.0
H  H13  1  0.75043086  0.79422428  0.91025151  1  0.101055  -0.000387  0.96498  0.0  0.111147  -0.000249  1.032899  0.0  0.114718  -0.000151  1.031495  0.0  0.09618  0.10858  -0.000378  1.033374  0.0
H  H14  1  0.11510953  0.38911674  0.14916105  1  0.096011  0.000496  0.987875  0.0  0.108482  0.000111  1.051658  0.0  0.112682  3e-06  1.048322  0.0  0.089216  0.104618  0.000246  1.055754  0.0
H  H15  1  0.88489408  0.61088560  0.85085729  1  0.095964  -0.000486  0.987893  0.0  0.108452  -0.000111  1.051675  0.0  0.112653  -3e-06  1.04834  0.0  0.089209  0.10459  -0.000246  1.055769  0.0
H  H16  1  0.90068953  0.46000116  0.20943434  1  0.103089  0.000141  0.977486  0.0  0.113248  0.000318  1.039191  0.0  0.117346  0.000244  1.037099  0.0  0.094381  0.10964  0.000285  1.041688  0.0
H  H17  1  0.09930600  0.54001787  0.79056936  1  0.103122  -0.000136  0.977618  0.0  0.113278  -0.000318  1.039326  0.0  0.117376  -0.000244  1.037235  0.0  0.0944  0.109667  -0.000285  1.041824  0.0
H  H18  1  0.73381045  0.30172054  0.23212448  1  0.072038  0.000518  0.980933  0.001  0.080911  0.000623  1.048447  0.001  0.083724  0.000426  1.04532  0.001  0.103657  0.07808  0.000614  1.051146  0.001
H  H19  1  0.26618219  0.69827793  0.76787148  1  0.07207  -0.000534  0.980756  -0.001  0.080935  -0.000623  1.048273  -0.001  0.083748  -0.000425  1.045146  -0.001  0.103627  0.078094  -0.000614  1.050976  -0.001
H  H20  1  0.50812126  0.17867973  0.14951309  1  0.076679  0.000746  0.963737  0.002  0.087574  0.000783  1.030496  0.002  0.09105  0.000588  1.026209  0.002  0.103642  0.08435  0.000935  1.034356  0.002
H  H21  1  0.49186945  0.82128339  0.85046212  1  0.076623  -0.000747  0.963658  -0.002  0.087644  -0.000782  1.030296  -0.002  0.091121  -0.000588  1.026003  -0.002  0.103661  0.084398  -0.000935  1.034173  -0.002
H  H22  1  0.38859855  0.34039998  0.25147891  1  0.105671  0.000441  0.96018  0.001  0.116769  0.000594  1.02061  0.001  0.120529  0.000448  1.019192  0.001  0.101378  0.114039  0.000689  1.021122  0.001
H  H23  1  0.61138633  0.65959776  0.74848340  1  0.105537  -0.000447  0.960534  -0.001  0.116813  -0.000593  1.020764  -0.001  0.120524  -0.000447  1.019391  -0.001  0.10134  0.11408  -0.000688  1.02128  -0.001
H  H24  1  0.41102128  0.34592760  0.45661645  1  0.107468  0.000293  0.95529  0.0  0.119399  5.4e-05  1.014482  0.0  0.123149  1.3e-05  1.011292  0.0  0.099598  0.11653  5.8e-05  1.016744  0.0
H  H25  1  0.58899529  0.65407564  0.54336647  1  0.107506  -0.000293  0.955353  0.0  0.119503  -5.4e-05  1.014467  0.0  0.123257  -1.4e-05  1.01127  0.0  0.099649  0.11663  -5.9e-05  1.016732  0.0
H  H26  1  0.51058838  0.25209533  0.62748937  1  0.102849  0.000419  0.978602  0.001  0.111328  0.00035  1.047183  0.0  0.115395  0.000229  1.044509  0.0  0.091512  0.107862  0.000413  1.050067  0.001
H  H27  1  0.48943136  0.74792488  0.37249525  1  0.10276  -0.000408  0.978595  -0.001  0.111262  -0.00035  1.047177  0.0  0.115331  -0.000229  1.044501  0.0  0.091492  0.107795  -0.000413  1.050058  -0.001
H  H28  1  0.65729391  0.09766473  0.71461220  1  0.09883  0.00027  0.962313  0.0  0.10943  0.000261  1.027244  0.0  0.112577  0.000186  1.026405  0.0  0.096457  0.107533  0.000318  1.027202  0.0
H  H29  1  0.34270638  0.90235042  0.28539227  1  0.098841  -0.000293  0.962321  0.0  0.1095  -0.000261  1.027188  0.0  0.11265  -0.000187  1.026345  0.0  0.096486  0.107629  -0.000318  1.027114  0.0
H  H30  1  0.81475384  0.91828414  0.69467585  1  0.083758  4.6e-05  1.008362  0.0  0.093556  -2e-06  1.075498  0.0  0.094687  -2e-05  1.077078  0.0  0.09907  0.092662  1.1e-05  1.074573  0.0
H  H31  1  0.18522138  0.08171251  0.30532617  1  0.083734  -4.4e-05  1.00848  0.0  0.093604  3e-06  1.075546  0.0  0.094738  2e-05  1.077121  0.0  0.099077  0.092707  -1.1e-05  1.074625  0.0
H  H32  1  0.94054501  0.78291583  0.57352797  1  0.110812  0.000117  0.930063  0.0  0.125688  0.000198  0.979549  0.0  0.129042  0.000159  0.97897  0.0  0.11045  0.12319  0.000229  0.980309  0.0
H  H33  1  0.05943234  0.21705101  0.42648641  1  0.110674  -0.00011  0.930214  0.0  0.125625  -0.000198  0.979613  0.0  0.128954  -0.000159  0.979065  0.0  0.110422  0.123132  -0.000228  0.980372  0.0
H  H34  1  0.91380997  0.81391934  0.37650564  1  0.073507  0.000508  0.944835  0.001  0.083508  0.000523  1.00624  0.001  0.086097  0.000372  1.003282  0.001  0.110999  0.081775  0.000661  1.007769  0.001
H  H35  1  0.08619078  0.18605115  0.62350189  1  0.073507  -0.00051  0.944734  -0.001  0.083511  -0.000523  1.006135  -0.001  0.086099  -0.000372  1.003177  -0.001  0.111009  0.081766  -0.000661  1.007694  -0.001
C  C36  1  0.89034080  0.77305881  0.15958421  1  0.147309  -0.006521  3.673397  -0.007  0.122317  -0.001979  3.917181  -0.003  0.135742  -0.00311  3.930498  -0.004  0.053804  0.114419  -0.000905  3.907776  -0.002
C  C37  1  0.10967819  0.22693860  0.84043259  1  0.147673  0.006502  3.673039  0.007  0.122623  0.001981  3.916812  0.003  0.136049  0.003109  3.930123  0.004  0.05398  0.114768  0.000906  3.907412  0.002
C  C38  1  0.00431287  0.71847136  0.12900820  1  -0.114676  0.006775  3.71273  0.007  -0.123603  0.004777  3.951347  0.006  -0.130708  0.004557  3.968506  0.005  -0.082712  -0.119305  0.004624  3.940906  0.006
C  C39  1  0.99569944  0.28154355  0.87099821  1  -0.114916  -0.006793  3.712514  -0.008  -0.123858  -0.004779  3.951209  -0.006  -0.130963  -0.004554  3.968362  -0.005  -0.082781  -0.119502  -0.004625  3.940789  -0.006
C  C40  1  0.10588282  0.79443619  0.10798416  1  -0.036585  -0.007038  3.666699  -0.007  -0.058291  -0.003529  3.904539  -0.003  -0.052656  -0.003888  3.91794  -0.004  -0.06258  -0.061645  -0.003205  3.894965  -0.003
C  C41  1  0.89412833  0.20557918  0.89200779  1  -0.036478  0.007089  3.66673  0.007  -0.058153  0.003528  3.90455  0.003  -0.052522  0.003883  3.917956  0.004  -0.062553  -0.061502  0.003203  3.894972  0.003
C  C42  1  0.09318827  0.92643766  0.11736533  1  0.02105  0.004683  3.790735  0.005  0.038785  0.003364  4.019528  0.004  0.03583  0.002993  4.04239  0.004  -0.003417  0.040253  0.003378  4.004317  0.004
C  C43  1  0.90681291  0.07357596  0.88262702  1  0.021009  -0.004672  3.79038  -0.005  0.038638  -0.003367  4.019328  -0.004  0.035678  -0.002991  4.042204  -0.004  -0.003406  0.040108  -0.003379  4.004118  -0.004
C  C44  1  0.19111141  0.01328665  0.09527063  1  -0.098915  -0.000182  3.723995  0.0  -0.12153  0.000488  3.977677  0.0  -0.124333  0.000216  3.997887  0.0  -0.087631  -0.120131  0.000795  3.964004  0.001
C  C45  1  0.80888384  0.98672124  0.90472601  1  -0.098855  8.1e-05  3.72388  0.0  -0.12155  -0.000488  3.977596  0.0  -0.12437  -0.000221  3.997786  0.0  -0.087625  -0.120155  -0.000795  3.963928  -0.001
C  C46  1  0.17531822  0.14063456  0.10846208  1  -0.097188  0.001696  3.723652  0.002  -0.119277  0.000794  3.974812  0.001  -0.122232  0.000842  3.996731  0.001  -0.085266  -0.116394  0.000811  3.959194  0.001
C  C47  1  0.82467119  0.85937532  0.89153424  1  -0.097182  -0.001596  3.723762  -0.001  -0.119179  -0.000796  3.974938  -0.001  -0.122105  -0.000837  3.996881  -0.001  -0.08526  -0.116308  -0.00081  3.959308  -0.001
C  C48  1  0.05982634  0.19123022  0.14451777  1  0.023839  0.000765  3.794158  0.001  0.042776  0.001117  4.017963  0.001  0.040385  0.000873  4.041054  0.001  -0.003056  0.044232  0.001096  4.001852  0.001
C  C49  1  0.94015874  0.80877852  0.85548679  1  0.023769  -0.000793  3.79438  -0.001  0.042517  -0.001118  4.01844  -0.001  0.040116  -0.000876  4.041537  -0.001  -0.003134  0.04397  -0.001097  4.002336  -0.001
C  C50  1  0.03918416  0.32178398  0.16250191  1  -0.043432  -0.001418  3.672893  -0.001  -0.060281  -0.001619  3.901081  -0.001  -0.055745  -0.001847  3.91495  -0.002  -0.064947  -0.06441  -0.001185  3.894048  -0.001
C  C51  1  0.96080934  0.67822637  0.83750768  1  -0.043155  0.001432  3.672696  0.001  -0.059988  0.001618  3.900945  0.001  -0.055444  0.001851  3.914816  0.002  -0.064821  -0.064124  0.001184  3.893917  0.001
C  C52  1  0.92232930  0.36093756  0.19388282  1  -0.110427  0.00223  3.740242  0.003  -0.118951  0.002518  3.977615  0.003  -0.124795  0.002245  3.993489  0.003  -0.085128  -0.115431  0.002244  3.968451  0.003
C  C53  1  0.07766394  0.63907387  0.80612288  1  -0.110609  -0.002294  3.740663  -0.003  -0.119114  -0.002517  3.978026  -0.003  -0.124964  -0.002248  3.993902  -0.003  -0.085177  -0.115594  -0.002243  3.968862  -0.003
C  C54  1  0.82631528  0.27059663  0.20769993  1  0.154704  -0.002342  3.672407  -0.003  0.127793  -0.00119  3.92076  -0.002  0.140822  -0.001703  3.933287  -0.002  0.055257  0.119824  -0.000729  3.913181  -0.001
C  C55  1  0.17367798  0.72939964  0.79230541  1  0.154608  0.002462  3.672384  0.003  0.127707  0.001187  3.920734  0.002  0.140726  0.001705  3.933277  0.002  0.055215  0.119744  0.000729  3.913142  0.001
C  C56  1  0.95902821  0.10710688  0.16300360  1  0.118905  0.000483  3.769101  0.0  0.113749  0.000915  4.010086  0.001  0.118019  0.000547  4.033349  0.0  0.107878  0.111578  0.001129  3.994903  0.001
C  C57  1  0.04096792  0.89289774  0.83700630  1  0.118937  -0.000446  3.769202  0.0  0.113804  -0.000916  4.010214  -0.001  0.118082  -0.000546  4.033469  0.0  0.107842  0.111625  -0.00113  3.995028  -0.001
C  C58  1  0.97609280  0.97404991  0.15016651  1  0.122579  -0.001867  3.759991  -0.003  0.114726  0.000743  3.999706  0.0  0.120279  -0.000304  4.02344  -0.001  0.10972  0.111433  0.001386  3.984304  0.001
C  C59  1  0.02391878  0.02595422  0.84985123  1  0.122494  0.001841  3.760553  0.003  0.114715  -0.000744  4.00016  0.0  0.120267  0.0003  4.023891  0.001  0.109772  0.11142  -0.001386  3.984761  -0.001
C  C60  1  0.51981711  0.18663449  0.23862179  1  0.135355  -0.007057  3.675282  -0.008  0.109044  -0.002274  3.921695  -0.003  0.121586  -0.003501  3.936044  -0.005  0.053137  0.102748  -0.001088  3.911374  -0.002
C  C61  1  0.48018286  0.81334253  0.76135932  1  0.135604  0.006998  3.675219  0.008  0.109093  0.002271  3.921818  0.003  0.121639  0.003496  3.936147  0.005  0.053238  0.102818  0.001087  3.911499  0.002
C  C62  1  0.45078014  0.27530107  0.29656943  1  -0.113299  0.008579  3.730705  0.009  -0.122416  0.005406  3.974733  0.006  -0.129539  0.005142  3.992587  0.006  -0.081543  -0.117421  0.005163  3.960753  0.006
C  C63  1  0.54922055  0.72469663  0.70341682  1  -0.11326  -0.00851  3.731202  -0.009  -0.122469  -0.005403  3.975262  -0.006  -0.129546  -0.005136  3.993135  -0.006  -0.081583  -0.117472  -0.00516  3.961278  -0.006
C  C64  1  0.46433588  0.27934106  0.40893942  1  -0.026973  -0.00827  3.650977  -0.008  -0.048169  -0.00401  3.886614  -0.004  -0.042896  -0.004524  3.899961  -0.004  -0.056732  -0.052166  -0.003419  3.877175  -0.003
C  C65  1  0.53567532  0.72064594  0.59105048  1  -0.027022  0.008224  3.651305  0.008  -0.048353  0.004009  3.886946  0.004  -0.043072  0.00452  3.900267  0.004  -0.056858  -0.052352  0.003418  3.877507  0.003
C  C66  1  0.54917492  0.19520341  0.46378615  1  0.033314  0.005699  3.769754  0.006  0.051126  0.003938  3.996128  0.005  0.048655  0.00351  4.018774  0.004  0.003186  0.0531  0.003919  3.980229  0.005
C  C67  1  0.45083667  0.80478888  0.53621646  1  0.033063  -0.005659  3.76988  -0.006  0.051044  -0.003938  3.996071  -0.005  0.048569  -0.003507  4.018719  -0.004  0.003296  0.053025  -0.003917  3.980175  -0.005
C  C68  1  0.56638884  0.18878219  0.57918836  1  -0.086046  0.000123  3.708136  0.0  -0.10275  0.000524  3.947206  0.001  -0.105073  8.5e-05  3.968349  0.0  -0.079976  -0.101865  0.000898  3.934331  0.001
C  C69  1  0.43360156  0.81122029  0.42080150  1  -0.085782  -0.000301  3.70756  0.0  -0.102527  -0.000523  3.946577  -0.001  -0.104856  -8.7e-05  3.967738  0.0  -0.079904  -0.10164  -0.000899  3.933705  -0.001
C  C70  1  0.64848221  0.10382671  0.62729709  1  -0.100864  0.001896  3.727701  0.002  -0.122139  0.000964  3.975032  0.001  -0.126  0.001106  3.99773  0.001  -0.087426  -0.119291  0.000778  3.959901  0.001
C  C71  1  0.35150121  0.89617941  0.37270136  1  -0.101044  -0.001686  3.727845  -0.001  -0.122424  -0.000964  3.975226  -0.001  -0.12629  -0.001104  3.997916  -0.001  -0.087592  -0.119604  -0.000777  3.960089  -0.001
C  C72  1  0.72273946  0.02126756  0.56465702  1  0.032105  0.00031  3.790842  0.0  0.050438  0.000608  4.016251  0.001  0.048381  0.000422  4.038815  0.0  -0.002394  0.050536  0.000794  4.002027  0.001
C  C73  1  0.27724192  0.97872346  0.43534008  1  0.032184  -0.000385  3.790807  0.0  0.05061  -0.000607  4.0161  -0.001  0.04856  -0.000422  4.038659  0.0  -0.002428  0.050707  -0.000793  4.001892  -0.001
C  C74  1  0.80722611  0.92991916  0.60879179  1  -0.053816  -0.002061  3.696285  -0.002  -0.07783  -0.00138  3.943277  -0.001  -0.073423  -0.001394  3.960353  -0.001  -0.071007  -0.079923  -0.00144  3.931826  -0.001
C  C75  1  0.19275983  0.07008961  0.39121125  1  -0.053949  0.002108  3.696235  0.002  -0.078051  0.001379  3.943191  0.001  -0.073647  0.001394  3.960254  0.001  -0.070953  -0.08014  0.001439  3.931749  0.001
C  C76  1  0.87595475  0.85519080  0.54215644  1  -0.103457  0.001709  3.720409  0.002  -0.117308  0.001572  3.970946  0.002  -0.123933  0.00142  3.988038  0.002  -0.081662  -0.114214  0.001753  3.958628  0.002
C  C77  1  0.12403790  0.14480436  0.45785429  1  -0.103239  -0.001769  3.720731  -0.002  -0.117146  -0.001572  3.971262  -0.002  -0.123747  -0.00142  3.988366  -0.002  -0.081752  -0.114056  -0.001752  3.958951  -0.002
C  C78  1  0.86019822  0.87116320  0.43072573  1  0.152803  -0.001955  3.702602  -0.002  0.124535  -0.001157  3.960757  -0.002  0.136763  -0.001487  3.974736  -0.002  0.053608  0.117939  -0.000817  3.949535  -0.001
C  C79  1  0.13980839  0.12882917  0.56927640  1  0.152926  0.001999  3.703127  0.002  0.12461  0.001156  3.961325  0.002  0.136838  0.001486  3.975296  0.002  0.053751  0.118015  0.000815  3.950095  0.001
C  C80  1  0.71047498  0.02792285  0.45102560  1  0.129253  0.000981  3.762685  0.001  0.126152  0.001089  3.997569  0.001  0.131014  0.000803  4.019795  0.001  0.112356  0.12341  0.001218  3.982931  0.001
C  C81  1  0.28953095  0.97208203  0.54897089  1  0.129148  -0.000923  3.762622  -0.001  0.126054  -0.00109  3.997456  -0.001  0.130913  -0.000803  4.019676  -0.001  0.112457  0.123321  -0.001218  3.982819  -0.001
C  C82  1  0.61979906  0.11261115  0.39973314  1  0.126589  -0.002215  3.742147  -0.003  0.118294  0.000533  3.979843  -0.001  0.124041  -0.000775  4.002943  -0.002  0.112409  0.116321  0.001404  3.963073  0.0
C  C83  1  0.38022243  0.88738583  0.60026625  1  0.126754  0.002173  3.74189  0.003  0.11834  -0.000531  3.979635  0.001  0.124094  0.000773  4.002733  0.002  0.112262  0.116348  -0.001403  3.962885  0.0
I  I84  1  0.53347334  0.84867320  0.09467910  1  -0.367629  0.200851  1.298363  0.148  -0.393049  0.115888  1.711785  0.089  -0.43787  0.081126  1.682092  0.066  -0.182999  -0.368735  0.127763  1.735158  0.096
I  I85  1  0.46653120  0.15133633  0.90532106  1  -0.367559  -0.200863  1.298641  -0.148  -0.392937  -0.115904  1.712038  -0.089  -0.437707  -0.081127  1.682344  -0.066  -0.182963  -0.368629  -0.12777  1.735424  -0.096
I  I86  1  0.69815380  0.56347689  0.34352917  1  -0.537544  0.020539  1.071969  0.014  -0.518389  0.000109  1.398145  0.0  -0.546864  -0.000107  1.375498  0.0  -0.303043  -0.495659  0.0055  1.411662  0.004
I  I87  1  0.30183096  0.43652033  0.65648026  1  -0.537526  -0.020569  1.071847  -0.014  -0.518403  -0.000102  1.398029  0.0  -0.546875  0.000107  1.37538  0.0  -0.303077  -0.495657  -0.005513  1.411525  -0.004
I  I88  1  0.69976231  0.50254500  0.95524841  1  -0.452183  -0.068538  1.309871  -0.05  -0.445108  -0.018437  1.708419  -0.014  -0.479288  -0.006305  1.67964  -0.005  -0.242945  -0.414473  -0.026767  1.728785  -0.02
I  I89  1  0.30025226  0.49743732  0.04473801  1  -0.452092  0.06845  1.31012  0.05  -0.444988  0.01842  1.708721  0.014  -0.479159  0.006298  1.679946  0.005  -0.242903  -0.414358  0.026732  1.729087  0.02
N  N90  1  0.87723381  0.89755055  0.17059197  1  -0.307661  0.059989  3.341257  0.075  -0.250675  0.061142  3.620063  0.079  -0.28344  0.054219  3.644231  0.073  -0.345491  -0.233828  0.061385  3.606829  0.077
N  N91  1  0.12277708  0.10244416  0.82942448  1  -0.30785  -0.05997  3.341558  -0.075  -0.250797  -0.061144  3.620251  -0.079  -0.283535  -0.054214  3.644409  -0.073  -0.3456  -0.233946  -0.06138  3.607008  -0.077
N  N92  1  0.84417395  0.14721569  0.19361234  1  -0.319176  0.022805  3.283426  0.03  -0.273791  0.031174  3.578439  0.042  -0.299545  0.028752  3.594611  0.041  -0.340452  -0.26123  0.029796  3.571008  0.039
N  N93  1  0.15582091  0.85278517  0.80639695  1  -0.319199  -0.022866  3.283111  -0.03  -0.27376  -0.03118  3.578017  -0.042  -0.29949  -0.02876  3.594188  -0.041  -0.340448  -0.261182  -0.0298  3.570567  -0.039
N  N94  1  0.60317332  0.10857670  0.28908138  1  -0.299912  0.073365  3.355194  0.092  -0.244011  0.069118  3.63791  0.089  -0.277709  0.05981  3.662863  0.081  -0.343347  -0.227509  0.068906  3.624077  0.087
N  N95  1  0.39683682  0.89141481  0.71091619  1  -0.300018  -0.073289  3.35512  -0.092  -0.24407  -0.069102  3.637933  -0.089  -0.277756  -0.059794  3.662901  -0.081  -0.343391  -0.22756  -0.068883  3.624096  -0.087
N  N96  1  0.77958536  0.95475854  0.38635528  1  -0.324249  0.017794  3.293639  0.023  -0.278834  0.022805  3.587128  0.031  -0.304648  0.020459  3.605415  0.029  -0.340432  -0.263797  0.023192  3.576533  0.03
N  N97  1  0.22042544  0.04525115  0.61363671  1  -0.324235  -0.017803  3.294121  -0.023  -0.27876  -0.022791  3.587485  -0.031  -0.304551  -0.020445  3.605778  -0.029  -0.340444  -0.263715  -0.023178  3.576879  -0.03
