# generated using pymatgen
data_CdH17C16(NO2)2
_symmetry_space_group_name_H-M   'P 1'
_cell_length_a   8.03096479
_cell_length_b   9.00839438
_cell_length_c   11.12506354
_cell_angle_alpha   82.04146418
_cell_angle_beta   73.86080327
_cell_angle_gamma   84.86727825
_symmetry_Int_Tables_number   1
_chemical_formula_structural   CdH17C16(NO2)2
_chemical_formula_sum   'Cd2 H34 C32 N4 O8'
_cell_volume   764.58852929
_cell_formula_units_Z   2
loop_
 _symmetry_equiv_pos_site_id
 _symmetry_equiv_pos_as_xyz
  1  'x, y, z'
loop_
 _atom_site_type_symbol
 _atom_site_label
 _atom_site_symmetry_multiplicity
 _atom_site_fract_x
 _atom_site_fract_y
 _atom_site_fract_z
 _atom_site_occupancy
 _atom_site_hle17_bader_spin_density
 _atom_site_hle17_ddec_charge
 _atom_site_hle17_ddec_spin_density
 _atom_site_hle17_ddec_sum_bond_order
 _atom_site_hle17_magmom
 _atom_site_hse06_10hf_bader_spin_density
 _atom_site_hse06_10hf_ddec_charge
 _atom_site_hse06_10hf_ddec_spin_density
 _atom_site_hse06_10hf_ddec_sum_bond_order
 _atom_site_hse06_10hf_magmom
 _atom_site_hse06_bader_spin_density
 _atom_site_hse06_ddec_charge
 _atom_site_hse06_ddec_spin_density
 _atom_site_hse06_ddec_sum_bond_order
 _atom_site_hse06_magmom
 _atom_site_pbe_bader_spin_density
 _atom_site_pbe_cm5_charge
 _atom_site_pbe_ddec_charge
 _atom_site_pbe_ddec_spin_density
 _atom_site_pbe_ddec_sum_bond_order
 _atom_site_pbe_magmom
Cd  Cd0  1  0.03594723  0.98948928  0.82626453  1  0  1.14534  0  1.62731  0  0  0.957092  0  2.063397  0  0  1.019286  0  2.007551  0  0  0.771638  0.913788  0  2.100579  0
Cd  Cd1  1  0.96405531  0.01051077  0.17373145  1  0  1.145336  0  1.627313  0  0  0.957082  0  2.063408  0  0  1.019278  0  2.007559  0  0  0.771634  0.913778  0  2.100591  0
H  H2  1  0.44455674  0.12011670  0.02504846  1  0  0.116017  0  0.939737  0  0  0.131012  0  0.997845  0  0  0.132839  0  0.997528  0  0  0.103727  0.130015  0  0.997018  0
H  H3  1  0.55544593  0.87988108  0.97495043  1  0  0.115989  0  0.939741  0  0  0.131002  0  0.99784  0  0  0.132828  0  0.997526  0  0  0.103725  0.129997  0  0.997013  0
H  H4  1  0.55353001  0.13764717  0.14171667  1  0  0.12016  0  0.936027  0  0  0.133398  0  0.996575  0  0  0.135792  0  0.995707  0  0  0.102173  0.131733  0  0.996839  0
H  H5  1  0.44647272  0.86234948  0.85828233  1  0  0.120138  0  0.93597  0  0  0.133384  0  0.996535  0  0  0.135775  0  0.995671  0  0  0.102169  0.131715  0  0.996794  0
H  H6  1  0.40949081  0.33833890  0.86811728  1  0  0.097494  0  0.958356  0  0  0.109214  0  1.019611  0  0  0.112083  0  1.018083  0  0  0.100802  0.106589  0  1.021268  0
H  H7  1  0.59050544  0.66165779  0.13188393  1  0  0.097483  0  0.958338  0  0  0.10922  0  1.01958  0  0  0.112088  0  1.01805  0  0  0.100787  0.10659  0  1.021238  0
H  H8  1  0.62209671  0.38381266  0.17480314  1  0  0.087993  0  0.974418  0  0  0.100049  0  1.038369  0  0  0.102234  0  1.038145  0  0  0.09833  0.098453  0  1.0387  0
H  H9  1  0.37790206  0.61618515  0.82519564  1  0  0.088066  0  0.974496  0  0  0.100114  0  1.038458  0  0  0.102306  0  1.038215  0  0  0.09836  0.098517  0  1.038788  0
H  H10  1  0.57193066  0.17474600  0.68459987  1  0  0.127403  0  0.930054  0  0  0.142496  0  0.990782  0  0  0.145308  0  0.98891  0  0  0.107162  0.140731  0  0.991959  0
H  H11  1  0.42806930  0.82525404  0.31539933  1  0  0.127405  0  0.930026  0  0  0.142497  0  0.990759  0  0  0.145309  0  0.988886  0  0  0.10716  0.140731  0  0.991937  0
H  H12  1  0.57551408  0.11623702  0.53835440  1  0  0.121521  0  0.94716  0  0  0.134555  0  1.00733  0  0  0.137412  0  1.006033  0  0  0.101048  0.132226  0  1.0088  0
H  H13  1  0.42448576  0.88376526  0.46164459  1  0  0.121481  0  0.947214  0  0  0.134531  0  1.007367  0  0  0.137388  0  1.006072  0  0  0.10104  0.132203  0  1.008837  0
H  H14  1  0.29849218  0.43083820  0.70985302  1  0  0.090913  0  0.997  0  0  0.098939  0  1.065735  0  0  0.101865  0  1.064349  0  0  0.095119  0.09663  0  1.067422  0
H  H15  1  0.70150520  0.56916184  0.29014940  1  0  0.090935  0  0.997017  0  0  0.098949  0  1.065763  0  0  0.101877  0  1.064374  0  0  0.095124  0.096641  0  1.067452  0
H  H16  1  0.68784251  0.30368162  0.38393993  1  0  0.09663  0  0.959869  0  0  0.107004  0  1.022953  0  0  0.109972  0  1.021521  0  0  0.097068  0.104677  0  1.024407  0
H  H17  1  0.31215740  0.69631952  0.61606186  1  0  0.096605  0  0.959822  0  0  0.106984  0  1.022911  0  0  0.109952  0  1.021479  0  0  0.097073  0.104657  0  1.024364  0
H  H18  1  0.98069664  0.39696113  0.84109065  1  0  0.12892  0  0.943179  0  0  0.140025  0  1.000801  0  0  0.143094  0  0.998703  0  0  0.128553  0.138154  0  1.002073  0
H  H19  1  0.01931091  0.60304225  0.15890396  1  0  0.128874  0  0.943026  0  0  0.139936  0  1.000724  0  0  0.143004  0  0.998629  0  0  0.128536  0.138065  0  1.001995  0
H  H20  1  0.07375584  0.63659784  0.93918138  1  0  0.09805  0  0.98812  0  0  0.106703  0  1.053259  0  0  0.108498  0  1.053482  0  0  0.113669  0.105338  0  1.053225  0
H  H21  1  0.92624434  0.36339772  0.06081645  1  0  0.098025  0  0.988099  0  0  0.106678  0  1.053225  0  0  0.108473  0  1.053452  0  0  0.113703  0.105315  0  1.053191  0
H  H22  1  0.71151782  0.55595012  0.61959943  1  0  0.073178  0  0.95868  0  0  0.086632  0  1.026269  0  0  0.086002  0  1.029196  0  0  0.108258  0.087133  0  1.024167  0
H  H23  1  0.28848220  0.44404879  0.38040078  1  0  0.073275  0  0.958549  0  0  0.086712  0  1.026179  0  0  0.086082  0  1.029104  0  0  0.10827  0.087213  0  1.024078  0
H  H24  1  0.74918758  0.39209186  0.71843318  1  0  0.082753  0  0.933033  0  0  0.095773  0  0.998376  0  0  0.096201  0  0.998974  0  0  0.10981  0.095432  0  0.997975  0
H  H25  1  0.25080985  0.60790707  0.28156756  1  0  0.082706  0  0.933064  0  0  0.09577  0  0.998379  0  0  0.096198  0  0.998978  0  0  0.109835  0.09543  0  0.99798  0
H  H26  1  0.90762083  0.35587870  0.50521969  1  0  0.070011  0  0.949285  0  0  0.090841  0  1.006271  0  0  0.090668  0  1.008081  0  0  0.092577  0.090854  0  1.005172  0
H  H27  1  0.09237796  0.64411909  0.49478179  1  0  0.070042  0  0.949281  0  0  0.090864  0  1.006254  0  0  0.090691  0  1.008064  0  0  0.092585  0.090864  0  1.005168  0
H  H28  1  0.06067797  0.37430420  0.58979578  1  0  0.076765  0  0.950368  0  0  0.092007  0  1.017301  0  0  0.09261  0  1.018322  0  0  0.091236  0.09138  0  1.016749  0
H  H29  1  0.93932087  0.62569247  0.41020491  1  0  0.076785  0  0.950438  0  0  0.092017  0  1.017352  0  0  0.09262  0  1.018371  0  0  0.091238  0.091389  0  1.016797  0
H  H30  1  0.77119559  0.94926079  0.67656528  1  0  0.138618  0  0.956631  0  0  0.159665  0  1.015736  0  0  0.161509  0  1.014989  0  0  0.104075  0.158344  0  1.016264  0
H  H31  1  0.22880191  0.05073700  0.32343736  1  0  0.138594  0  0.956617  0  0  0.159642  0  1.01573  0  0  0.161486  0  1.014983  0  0  0.104058  0.158322  0  1.016259  0
H  H32  1  0.66055797  0.80578174  0.64181195  1  0  0.142735  0  0.932274  0  0  0.161706  0  0.992754  0  0  0.16418  0  0.991784  0  0  0.105015  0.160047  0  0.993513  0
H  H33  1  0.33944088  0.19421493  0.35818963  1  0  0.142761  0  0.932255  0  0  0.161735  0  0.99273  0  0  0.16421  0  0.991759  0  0  0.105031  0.160077  0  0.993489  0
H  H34  1  0.87009372  0.84923393  0.54475583  1  0  0.127134  0  0.934731  0  0  0.148812  0  0.99273  0  0  0.150811  0  0.99195  0  0  0.10003  0.147394  0  0.993323  0
H  H35  1  0.12990501  0.15076498  0.45524554  1  0  0.127153  0  0.934824  0  0  0.148834  0  0.992816  0  0  0.150834  0  0.992035  0  0  0.10004  0.147416  0  0.99341  0
C  C36  1  0.72063813  0.12720796  0.95511302  1  0  0.704162  0  3.840927  0  0  0.657933  0  4.136701  0  0  0.692094  0  4.130379  0  0  0.205191  0.635082  0  4.139955  0
C  C37  1  0.27936430  0.87279431  0.04488544  1  0  0.704132  0  3.840899  0  0  0.657925  0  4.13666  0  0  0.692087  0  4.130339  0  0  0.205244  0.635067  0  4.139912  0
C  C38  1  0.54923673  0.17481314  0.04444990  1  0  -0.31001  0  3.689246  0  0  -0.352173  0  3.927572  0  0  -0.358198  0  3.935105  0  0  -0.162789  -0.347359  0  3.920948  0
C  C39  1  0.45076459  0.82518576  0.95555004  1  0  -0.309945  0  3.689155  0  0  -0.352157  0  3.927519  0  0  -0.35818  0  3.935053  0  0  -0.162801  -0.347309  0  3.920853  0
C  C40  1  0.44971980  0.40937617  0.92570873  1  0  -0.119989  0  3.749547  0  0  -0.141397  0  4.001768  0  0  -0.143025  0  4.022042  0  0  -0.096231  -0.140114  0  3.988471  0
C  C41  1  0.55027639  0.59062163  0.07429327  1  0  -0.119983  0  3.749778  0  0  -0.141425  0  4.001999  0  0  -0.143052  0  4.022273  0  0  -0.096231  -0.14014  0  3.988705  0
C  C42  1  0.51945743  0.34281943  0.02368132  1  0  0.113398  0  3.759796  0  0  0.132238  0  3.99812  0  0  0.132538  0  4.022195  0  0  -0.014643  0.13154  0  3.982189  0
C  C43  1  0.48054136  0.65717836  0.97632016  1  0  0.113375  0  3.759901  0  0  0.132256  0  3.998198  0  0  0.132556  0  4.022271  0  0  -0.014639  0.131548  0  3.982259  0
C  C44  1  0.56904720  0.43498793  0.09771896  1  0  -0.128754  0  3.765338  0  0  -0.149901  0  4.017413  0  0  -0.152373  0  4.03915  0  0  -0.098537  -0.148133  0  4.002663  0
C  C45  1  0.43094729  0.56501774  0.90228345  1  0  -0.128795  0  3.765407  0  0  -0.14994  0  4.017423  0  0  -0.152412  0  4.039163  0  0  -0.098533  -0.148171  0  4.002677  0
C  C46  1  0.33138143  0.11186087  0.67691282  1  0  0.693415  0  3.857082  0  0  0.650164  0  4.148724  0  0  0.683592  0  4.144392  0  0  0.195681  0.627586  0  4.150309  0
C  C47  1  0.66861719  0.88814028  0.32308923  1  0  0.693467  0  3.857  0  0  0.650195  0  4.148679  0  0  0.683622  0  4.144349  0  0  0.195658  0.627619  0  4.150265  0
C  C48  1  0.50118803  0.18543521  0.61108200  1  0  -0.315307  0  3.68061  0  0  -0.352945  0  3.912992  0  0  -0.360012  0  3.921344  0  0  -0.161468  -0.348271  0  3.907853  0
C  C49  1  0.49881058  0.81456595  0.38891826  1  0  -0.315301  0  3.680665  0  0  -0.352951  0  3.913059  0  0  -0.360021  0  3.921413  0  0  -0.161483  -0.348281  0  3.90792  0
C  C50  1  0.49383910  0.34751614  0.55480722  1  0  0.113817  0  3.744999  0  0  0.133104  0  3.979602  0  0  0.133888  0  4.003679  0  0  -0.015165  0.132272  0  3.963868  0
C  C51  1  0.50616075  0.65248613  0.44519356  1  0  0.113779  0  3.745071  0  0  0.133069  0  3.979675  0  0  0.133854  0  4.003752  0  0  -0.015179  0.132244  0  3.963931  0
C  C52  1  0.38804088  0.46048512  0.61810034  1  0  -0.128956  0  3.761117  0  0  -0.150904  0  4.013675  0  0  -0.153002  0  4.034228  0  0  -0.101358  -0.149775  0  4.000743  0
C  C53  1  0.61195761  0.53951828  0.38190150  1  0  -0.128885  0  3.761277  0  0  -0.150805  0  4.013778  0  0  -0.152902  0  4.034329  0  0  -0.101306  -0.14968  0  4.000847  0
C  C54  1  0.60543048  0.39002471  0.43564450  1  0  -0.138727  0  3.76157  0  0  -0.155068  0  4.009266  0  0  -0.157396  0  4.029155  0  0  -0.09868  -0.153727  0  3.996765  0
C  C55  1  0.39456930  0.60997869  0.56435528  1  0  -0.138619  0  3.761401  0  0  -0.154968  0  4.0091  0  0  -0.157296  0  4.02899  0  0  -0.098665  -0.153628  0  3.996593  0
C  C56  1  0.86821350  0.73090402  0.72692415  1  0  0.371299  0  3.696039  0  0  0.347757  0  3.96221  0  0  0.363975  0  3.97818  0  0  0.218732  0.3373  0  3.950836  0
C  C57  1  0.13178659  0.26909376  0.27307707  1  0  0.371264  0  3.696105  0  0  0.34776  0  3.962229  0  0  0.363981  0  3.978197  0  0  0.218745  0.337302  0  3.950861  0
C  C58  1  0.95835212  0.51732651  0.82236103  1  0  -0.045909  0  3.657193  0  0  -0.088429  0  3.920379  0  0  -0.08642  0  3.938258  0  0  0.006177  -0.090001  0  3.908555  0
C  C59  1  0.04164584  0.48266232  0.17763977  1  0  -0.045837  0  3.657623  0  0  -0.088341  0  3.920853  0  0  -0.086331  0  3.938732  0  0  0.006189  -0.089912  0  3.909028  0
C  C60  1  0.00469324  0.63597539  0.86854054  1  0  0.000443  0  3.779728  0  0  -0.035537  0  4.049579  0  0  -0.033071  0  4.070766  0  0  -0.009559  -0.037153  0  4.035326  0
C  C61  1  0.99531566  0.36402790  0.13146369  1  0  0.000362  0  3.780239  0  0  -0.035606  0  4.05012  0  0  -0.03314  0  4.07131  0  0  -0.009632  -0.037224  0  4.035868  0
C  C62  1  0.81143332  0.48862336  0.65615504  1  0  0.004374  0  3.617121  0  0  -0.054518  0  3.869989  0  0  -0.050619  0  3.882502  0  0  -0.053534  -0.057114  0  3.861341  0
C  C63  1  0.18856676  0.51137443  0.34384527  1  0  0.004366  0  3.617109  0  0  -0.054607  0  3.870057  0  0  -0.050708  0  3.88257  0  0  -0.053596  -0.057209  0  3.861413  0
C  C64  1  0.96030268  0.43604066  0.54931850  1  0  -0.133404  0  3.678637  0  0  -0.175079  0  3.938849  0  0  -0.176578  0  3.953032  0  0  -0.167953  -0.173893  0  3.929211  0
C  C65  1  0.03969746  0.56395600  0.45068283  1  0  -0.133514  0  3.678674  0  0  -0.17515  0  3.9389  0  0  -0.176649  0  3.953084  0  0  -0.167937  -0.17395  0  3.929261  0
C  C66  1  0.78854567  0.83886910  0.64265161  1  0  -0.393268  0  3.700266  0  0  -0.474518  0  3.936888  0  0  -0.478319  0  3.942393  0  0  -0.23048  -0.471893  0  3.932987  0
C  C67  1  0.21145306  0.16112981  0.35734976  1  0  -0.393292  0  3.700382  0  0  -0.47456  0  3.936991  0  0  -0.478362  0  3.942492  0  0  -0.230498  -0.471936  0  3.933091  0
N  N68  1  0.94835198  0.76790368  0.80873455  1  0  -0.467805  0  3.251565  0  0  -0.388986  0  3.531431  0  0  -0.414704  0  3.549185  0  0  -0.369369  -0.371532  0  3.518814  0
N  N69  1  0.05164539  0.23209636  0.19126697  1  0  -0.467677  0  3.251644  0  0  -0.388881  0  3.531498  0  0  -0.4146  0  3.549251  0  0  -0.369343  -0.371429  0  3.518885  0
N  N70  1  0.87246283  0.57840615  0.73381049  1  0  -0.107662  0  3.515325  0  0  -0.014917  0  3.7271  0  0  -0.030363  0  3.752808  0  0  -0.236785  -0.004564  0  3.709611  0
N  N71  1  0.12753966  0.42159501  0.26618718  1  0  -0.107685  0  3.515505  0  0  -0.0149  0  3.727228  0  0  -0.030348  0  3.752938  0  0  -0.23674  -0.004544  0  3.709743  0
O  O72  1  0.73163686  0.11574695  0.84136750  1  0  -0.639001  0  1.913004  0  0  -0.582747  0  2.14651  0  0  -0.610018  0  2.137435  0  0  -0.321615  -0.564555  0  2.151552  0
O  O73  1  0.26836044  0.88425424  0.15863032  1  0  -0.63896  0  1.913035  0  0  -0.582706  0  2.146518  0  0  -0.609975  0  2.137447  0  0  -0.32163  -0.564513  0  2.151559  0
O  O74  1  0.85522189  0.10082942  0.99877458  1  0  -0.695456  0  2.058913  0  0  -0.608141  0  2.324099  0  0  -0.642283  0  2.310542  0  0  -0.344425  -0.584371  0  2.332612  0
O  O75  1  0.14478146  0.89917961  0.00121848  1  0  -0.695489  0  2.058862  0  0  -0.608162  0  2.324028  0  0  -0.642307  0  2.310471  0  0  -0.344462  -0.584395  0  2.332545  0
O  O76  1  0.20375559  0.18868230  0.74229573  1  0  -0.659931  0  1.954169  0  0  -0.59202  0  2.198321  0  0  -0.621932  0  2.187224  0  0  -0.337184  -0.570082  0  2.204222  0
O  O77  1  0.79624935  0.81132214  0.25770829  1  0  -0.65996  0  1.954182  0  0  -0.592023  0  2.198328  0  0  -0.621936  0  2.187231  0  0  -0.337186  -0.570082  0  2.204218  0
O  O78  1  0.32241993  0.97298916  0.67090545  1  0  -0.658394  0  1.910061  0  0  -0.599894  0  2.142846  0  0  -0.628199  0  2.133705  0  0  -0.33634  -0.580215  0  2.14859  0
O  O79  1  0.67757203  0.02701435  0.32908871  1  0  -0.658425  0  1.909986  0  0  -0.599921  0  2.142771  0  0  -0.628225  0  2.133635  0  0  -0.3363  -0.580241  0  2.148508  0
