# generated using pymatgen
data_CdH15C8S2N5
_symmetry_space_group_name_H-M   'P 1'
_cell_length_a   7.66222068
_cell_length_b   7.75936816
_cell_length_c   22.24787782
_cell_angle_alpha   89.99996108
_cell_angle_beta   90.00004606
_cell_angle_gamma   105.54861203
_symmetry_Int_Tables_number   1
_chemical_formula_structural   CdH15C8S2N5
_chemical_formula_sum   'Cd4 H60 C32 S8 N20'
_cell_volume   1274.31784962
_cell_formula_units_Z   4
loop_
 _symmetry_equiv_pos_site_id
 _symmetry_equiv_pos_as_xyz
  1  'x, y, z'
loop_
 _atom_site_type_symbol
 _atom_site_label
 _atom_site_symmetry_multiplicity
 _atom_site_fract_x
 _atom_site_fract_y
 _atom_site_fract_z
 _atom_site_occupancy
 _atom_site_hle17_bader_spin_density
 _atom_site_hle17_ddec_charge
 _atom_site_hle17_ddec_spin_density
 _atom_site_hle17_ddec_sum_bond_order
 _atom_site_hle17_magmom
 _atom_site_hse06_10hf_bader_spin_density
 _atom_site_hse06_10hf_ddec_charge
 _atom_site_hse06_10hf_ddec_spin_density
 _atom_site_hse06_10hf_ddec_sum_bond_order
 _atom_site_hse06_10hf_magmom
 _atom_site_hse06_bader_spin_density
 _atom_site_hse06_ddec_charge
 _atom_site_hse06_ddec_spin_density
 _atom_site_hse06_ddec_sum_bond_order
 _atom_site_hse06_magmom
 _atom_site_pbe_bader_spin_density
 _atom_site_pbe_cm5_charge
 _atom_site_pbe_ddec_charge
 _atom_site_pbe_ddec_spin_density
 _atom_site_pbe_ddec_sum_bond_order
 _atom_site_pbe_magmom
Cd  Cd0  1  0.52339894  0.22695828  0.10943655  1  0  0.962414  0  1.865656  0  0  0.77815  0  2.306456  0  0  0.824586  0  2.268896  0  0  0.738144  0.74583  0  2.331689  0
Cd  Cd1  1  0.97659677  0.77304295  0.60943660  1  0  0.962386  0  1.86577  0  0  0.77814  0  2.306555  0  0  0.824576  0  2.268991  0  0  0.738141  0.745826  0  2.331791  0
Cd  Cd2  1  0.47659758  0.77304019  0.89056402  1  0  0.962381  0  1.86582  0  0  0.778147  0  2.306634  0  0  0.824576  0  2.269064  0  0  0.738142  0.745831  0  2.331872  0
Cd  Cd3  1  0.02340082  0.22695953  0.39056307  1  0  0.962386  0  1.865624  0  0  0.778141  0  2.30639  0  0  0.824576  0  2.26883  0  0  0.738119  0.745824  0  2.331623  0
H  H4  1  0.51312009  0.90391776  0.18600377  1  0  0.267221  0  0.97659  0  0  0.249834  0  1.054101  0  0  0.255915  0  1.050387  0  0  0.259845  0.2455  0  1.056759  0
H  H5  1  0.98687612  0.09608470  0.68600443  1  0  0.267182  0  0.976698  0  0  0.249783  0  1.054204  0  0  0.255865  0  1.050487  0  0  0.259809  0.24545  0  1.056862  0
H  H6  1  0.48688202  0.09608208  0.81399725  1  0  0.267215  0  0.976633  0  0  0.249855  0  1.054116  0  0  0.255935  0  1.050402  0  0  0.259845  0.24552  0  1.056772  0
H  H7  1  0.01312278  0.90391779  0.31399479  1  0  0.267224  0  0.976623  0  0  0.249836  0  1.054139  0  0  0.255917  0  1.050423  0  0  0.259846  0.245501  0  1.056795  0
H  H8  1  0.64932640  0.93307583  0.12710199  1  0  0.277522  0  0.921997  0  0  0.271039  0  0.976063  0  0  0.275678  0  0.974029  0  0  0.285697  0.267739  0  0.977562  0
H  H9  1  0.85067135  0.06692805  0.62710217  1  0  0.27762  0  0.921923  0  0  0.271124  0  0.975995  0  0  0.275763  0  0.973962  0  0  0.285716  0.267824  0  0.977497  0
H  H10  1  0.35067546  0.06692800  0.87289858  1  0  0.27765  0  0.921895  0  0  0.271176  0  0.975927  0  0  0.275815  0  0.973889  0  0  0.285752  0.267876  0  0.977428  0
H  H11  1  0.14932624  0.93307443  0.37289840  1  0  0.277521  0  0.921972  0  0  0.27104  0  0.976033  0  0  0.275678  0  0.974  0  0  0.285682  0.26774  0  0.977535  0
H  H12  1  0.84426074  0.98355581  0.21375297  1  0  0.050061  0  0.939159  0  0  0.071002  0  0.997954  0  0  0.071305  0  0.998002  0  0  0.089698  0.07068  0  0.998068  0
H  H13  1  0.65573255  0.01644525  0.71375086  1  0  0.050112  0  0.939099  0  0  0.071011  0  0.997947  0  0  0.071313  0  0.997994  0  0  0.089698  0.070689  0  0.998061  0
H  H14  1  0.15574208  0.01644670  0.78624804  1  0  0.050073  0  0.939174  0  0  0.071002  0  0.997992  0  0  0.071304  0  0.998041  0  0  0.089693  0.070681  0  0.998107  0
H  H15  1  0.34426658  0.98355322  0.28624926  1  0  0.050161  0  0.93913  0  0  0.071049  0  0.997966  0  0  0.071352  0  0.998013  0  0  0.089717  0.070729  0  0.998082  0
H  H16  1  0.72012406  0.12826893  0.24219442  1  0  0.066882  0  0.926914  0  0  0.087587  0  0.983497  0  0  0.087631  0  0.984247  0  0  0.102934  0.08745  0  0.983115  0
H  H17  1  0.77986738  0.87173475  0.74219394  1  0  0.066822  0  0.927005  0  0  0.087509  0  0.983612  0  0  0.087551  0  0.984364  0  0  0.102939  0.087372  0  0.983233  0
H  H18  1  0.27987876  0.87173358  0.75780615  1  0  0.066889  0  0.926885  0  0  0.087574  0  0.98349  0  0  0.087618  0  0.984241  0  0  0.102949  0.087437  0  0.983109  0
H  H19  1  0.22013306  0.12826373  0.25780528  1  0  0.06689  0  0.926933  0  0  0.087569  0  0.983534  0  0  0.087611  0  0.984288  0  0  0.102961  0.087431  0  0.983153  0
H  H20  1  0.01736702  0.29087823  0.19682054  1  0  0.062159  0  0.956231  0  0  0.075717  0  1.024467  0  0  0.075507  0  1.025895  0  0  0.093899  0.075781  0  1.023553  0
H  H21  1  0.48263267  0.70912310  0.69681835  1  0  0.062169  0  0.956252  0  0  0.07569  0  1.024522  0  0  0.075479  0  1.025951  0  0  0.09391  0.075753  0  1.023609  0
H  H22  1  0.98262926  0.70912424  0.80318003  1  0  0.062149  0  0.956204  0  0  0.075665  0  1.024496  0  0  0.075458  0  1.025914  0  0  0.093897  0.075728  0  1.023585  0
H  H23  1  0.51736908  0.29087539  0.30318131  1  0  0.062175  0  0.956266  0  0  0.075715  0  1.024507  0  0  0.075506  0  1.025933  0  0  0.093917  0.075781  0  1.023593  0
H  H24  1  0.94604458  0.18878498  0.12626159  1  0  0.064872  0  0.947826  0  0  0.08223  0  1.012873  0  0  0.082323  0  1.013481  0  0  0.095455  0.082064  0  1.012561  0
H  H25  1  0.55395306  0.81121356  0.62625926  1  0  0.064802  0  0.947848  0  0  0.082166  0  1.012906  0  0  0.082251  0  1.013521  0  0  0.095425  0.082002  0  1.012593  0
H  H26  1  0.05395527  0.81121618  0.87374033  1  0  0.064816  0  0.94783  0  0  0.082176  0  1.012888  0  0  0.082256  0  1.01351  0  0  0.095424  0.082012  0  1.012576  0
H  H27  1  0.44604643  0.18878625  0.37373996  1  0  0.064835  0  0.9479  0  0  0.082195  0  1.012937  0  0  0.082279  0  1.013554  0  0  0.09544  0.08203  0  1.012627  0
H  H28  1  0.78390056  0.43950602  0.19005279  1  0  0.235752  0  0.94875  0  0  0.226378  0  1.009749  0  0  0.230638  0  1.008881  0  0  0.276322  0.223333  0  1.010442  0
H  H29  1  0.71609792  0.56049510  0.69005282  1  0  0.235676  0  0.94877  0  0  0.226263  0  1.009832  0  0  0.230522  0  1.008968  0  0  0.276278  0.223215  0  1.01053  0
H  H30  1  0.21609929  0.56049513  0.80994688  1  0  0.235752  0  0.948714  0  0  0.226376  0  1.009733  0  0  0.230638  0  1.00886  0  0  0.276329  0.223329  0  1.010428  0
H  H31  1  0.28390324  0.43950606  0.30994595  1  0  0.235741  0  0.948727  0  0  0.226369  0  1.00973  0  0  0.230629  0  1.008862  0  0  0.2763  0.223325  0  1.010423  0
H  H32  1  0.94555380  0.43786412  0.07083066  1  0  0.06482  0  0.935069  0  0  0.084646  0  0.995538  0  0  0.084637  0  0.996078  0  0  0.103921  0.084571  0  0.995229  0
H  H33  1  0.55444670  0.56213586  0.57083108  1  0  0.064835  0  0.935078  0  0  0.084671  0  0.99555  0  0  0.084661  0  0.99609  0  0  0.103936  0.084597  0  0.995241  0
H  H34  1  0.05444438  0.56213569  0.92916901  1  0  0.064841  0  0.935082  0  0  0.084663  0  0.995553  0  0  0.084653  0  0.996092  0  0  0.103925  0.084589  0  0.995244  0
H  H35  1  0.44555576  0.43786531  0.42916813  1  0  0.064841  0  0.935114  0  0  0.084651  0  0.995586  0  0  0.084642  0  0.996125  0  0  0.103921  0.084579  0  0.99528  0
H  H36  1  0.02605636  0.59974847  0.12806248  1  0  0.057852  0  0.955504  0  0  0.067667  0  1.031549  0  0  0.068425  0  1.031861  0  0  0.087425  0.067058  0  1.031402  0
H  H37  1  0.47394213  0.40024895  0.62806307  1  0  0.057842  0  0.955463  0  0  0.067663  0  1.031516  0  0  0.06842  0  1.031829  0  0  0.087423  0.067052  0  1.03137  0
H  H38  1  0.97394016  0.40024999  0.87193674  1  0  0.05785  0  0.955466  0  0  0.067659  0  1.031519  0  0  0.068415  0  1.031831  0  0  0.087423  0.067048  0  1.031375  0
H  H39  1  0.52605867  0.59975087  0.37193750  1  0  0.057849  0  0.955479  0  0  0.067654  0  1.031519  0  0  0.06841  0  1.031832  0  0  0.087417  0.067044  0  1.031375  0
H  H40  1  0.72112152  0.66787170  0.12764051  1  0  0.069864  0  0.932561  0  0  0.086679  0  0.996257  0  0  0.087229  0  0.99639  0  0  0.105403  0.086184  0  0.99628  0
H  H41  1  0.77887815  0.33212952  0.62764106  1  0  0.0699  0  0.93271  0  0  0.086734  0  0.996382  0  0  0.087285  0  0.996516  0  0  0.105427  0.086239  0  0.996404  0
H  H42  1  0.27887370  0.33212675  0.87235871  1  0  0.069903  0  0.932602  0  0  0.086726  0  0.996319  0  0  0.087275  0  0.996456  0  0  0.105415  0.086229  0  0.99634  0
H  H43  1  0.22112135  0.66787030  0.37235906  1  0  0.069889  0  0.93263  0  0  0.086723  0  0.996334  0  0  0.087273  0  0.996468  0  0  0.105419  0.086228  0  0.996354  0
H  H44  1  0.85462581  0.73703815  0.06209944  1  0  0.063178  0  0.940144  0  0  0.078067  0  1.007874  0  0  0.078245  0  1.00843  0  0  0.093685  0.077841  0  1.007606  0
H  H45  1  0.64537361  0.26295782  0.56209951  1  0  0.063186  0  0.940133  0  0  0.078072  0  1.007872  0  0  0.078249  0  1.008427  0  0  0.093681  0.077848  0  1.007602  0
H  H46  1  0.14537036  0.26295898  0.93789978  1  0  0.063182  0  0.940131  0  0  0.078105  0  1.007846  0  0  0.078281  0  1.008402  0  0  0.093698  0.077867  0  1.007584  0
H  H47  1  0.35462648  0.73703933  0.43790016  1  0  0.063182  0  0.940134  0  0  0.078109  0  1.007852  0  0  0.078286  0  1.008405  0  0  0.093684  0.077872  0  1.007592  0
H  H48  1  0.78075730  0.41464963  0.99033676  1  0  0.075834  0  0.94885  0  0  0.095435  0  1.004316  0  0  0.09539  0  1.005441  0  0  0.106402  0.095377  0  1.003676  0
H  H49  1  0.71924069  0.58534705  0.49033758  1  0  0.075847  0  0.948858  0  0  0.095462  0  1.004302  0  0  0.095418  0  1.00543  0  0  0.106417  0.095408  0  1.00367  0
H  H50  1  0.21923815  0.58534482  0.00966246  1  0  0.075834  0  0.948872  0  0  0.09546  0  1.004291  0  0  0.095422  0  1.005424  0  0  0.106415  0.095405  0  1.003657  0
H  H51  1  0.28075809  0.41465009  0.50966253  1  0  0.075842  0  0.948905  0  0  0.095453  0  1.00435  0  0  0.095406  0  1.005475  0  0  0.106417  0.095395  0  1.003712  0
H  H52  1  0.74256142  0.62372354  0.96909695  1  0  0.0461  0  0.968968  0  0  0.056284  0  1.048653  0  0  0.056832  0  1.048578  0  0  0.087374  0.055837  0  1.048784  0
H  H53  1  0.75743914  0.37627319  0.46909784  1  0  0.046083  0  0.968971  0  0  0.056271  0  1.048656  0  0  0.056822  0  1.048583  0  0  0.087358  0.055831  0  1.048787  0
H  H54  1  0.25743795  0.37627093  0.03090271  1  0  0.046046  0  0.968963  0  0  0.056247  0  1.048634  0  0  0.056802  0  1.048568  0  0  0.087368  0.055805  0  1.04876  0
H  H55  1  0.24256392  0.62372531  0.53090228  1  0  0.046082  0  0.968949  0  0  0.056274  0  1.048639  0  0  0.056821  0  1.048564  0  0  0.087376  0.055826  0  1.048767  0
H  H56  1  0.53394106  0.74598039  0.03087664  1  0  0.055588  0  0.959363  0  0  0.070187  0  1.031108  0  0  0.069553  0  1.032619  0  0  0.094258  0.070555  0  1.030137  0
H  H57  1  0.96605675  0.25401962  0.53087815  1  0  0.055575  0  0.959364  0  0  0.070159  0  1.031142  0  0  0.069524  0  1.032655  0  0  0.094246  0.070525  0  1.030171  0
H  H58  1  0.46605511  0.25401673  0.96912168  1  0  0.055527  0  0.959392  0  0  0.070141  0  1.031138  0  0  0.069505  0  1.032655  0  0  0.094262  0.070509  0  1.030164  0
H  H59  1  0.03394440  0.74598154  0.46912241  1  0  0.055542  0  0.959367  0  0  0.070135  0  1.031135  0  0  0.069501  0  1.032647  0  0  0.094251  0.070502  0  1.030163  0
H  H60  1  0.43025750  0.62165962  0.09483150  1  0  0.074105  0  0.949947  0  0  0.091135  0  1.011593  0  0  0.090911  0  1.012959  0  0  0.103801  0.091168  0  1.010775  0
H  H61  1  0.06974199  0.37834186  0.59483243  1  0  0.07406  0  0.94996  0  0  0.091107  0  1.011608  0  0  0.090882  0  1.012974  0  0  0.103786  0.091137  0  1.010789  0
H  H62  1  0.56973937  0.37834018  0.90516772  1  0  0.074121  0  0.949957  0  0  0.091176  0  1.011596  0  0  0.090952  0  1.012967  0  0  0.103838  0.091205  0  1.010778  0
H  H63  1  0.93025916  0.62165930  0.40516859  1  0  0.074096  0  0.949944  0  0  0.091132  0  1.011591  0  0  0.090908  0  1.012957  0  0  0.103799  0.091166  0  1.010774  0
C  C64  1  0.76864852  0.08019601  0.20057383  1  0  0.068133  0  3.643317  0  0  0.012425  0  3.90506  0  0  0.016456  0  3.917397  0  0  -0.077064  0.009743  0  3.896509  0
C  C65  1  0.73134403  0.91980240  0.70057243  1  0  0.068033  0  3.643449  0  0  0.012354  0  3.905213  0  0  0.01639  0  3.917538  0  0  -0.077153  0.009666  0  3.896672  0
C  C66  1  0.23135133  0.91980515  0.79942718  1  0  0.068081  0  3.643308  0  0  0.012387  0  3.905058  0  0  0.016417  0  3.917392  0  0  -0.077098  0.0097  0  3.896517  0
C  C67  1  0.26865284  0.08019741  0.29942634  1  0  0.067921  0  3.643443  0  0  0.012263  0  3.905175  0  0  0.016298  0  3.917503  0  0  -0.077158  0.009574  0  3.896633  0
C  C68  1  0.89844046  0.23641710  0.16818108  1  0  0.002951  0  3.644171  0  0  -0.053113  0  3.902441  0  0  -0.050099  0  3.916209  0  0  -0.078161  -0.055004  0  3.892915  0
C  C69  1  0.60155666  0.76358405  0.66818103  1  0  0.003089  0  3.644132  0  0  -0.052937  0  3.902353  0  0  -0.049916  0  3.916118  0  0  -0.078105  -0.054829  0  3.892827  0
C  C70  1  0.10156366  0.76358541  0.83181904  1  0  0.003053  0  3.64424  0  0  -0.052974  0  3.902468  0  0  -0.04995  0  3.916238  0  0  -0.078104  -0.054862  0  3.892944  0
C  C71  1  0.39844247  0.23641443  0.33181999  1  0  0.00304  0  3.644246  0  0  -0.052988  0  3.902437  0  0  -0.04997  0  3.916205  0  0  -0.078132  -0.054878  0  3.892915  0
C  C72  1  0.90308115  0.50883956  0.10853671  1  0  0.012792  0  3.656586  0  0  -0.046972  0  3.917582  0  0  -0.043339  0  3.929781  0  0  -0.075655  -0.049292  0  3.909095  0
C  C73  1  0.59691480  0.49115766  0.60853627  1  0  0.012838  0  3.656425  0  0  -0.046943  0  3.917451  0  0  -0.043307  0  3.929647  0  0  -0.075654  -0.04926  0  3.908953  0
C  C74  1  0.09691573  0.49116024  0.89146341  1  0  0.012782  0  3.656559  0  0  -0.046928  0  3.917532  0  0  -0.043307  0  3.929763  0  0  -0.075646  -0.049242  0  3.909029  0
C  C75  1  0.40308541  0.50884484  0.39146250  1  0  0.012776  0  3.656591  0  0  -0.046899  0  3.917532  0  0  -0.043267  0  3.929734  0  0  -0.075622  -0.049218  0  3.909038  0
C  C76  1  0.77703856  0.61889715  0.08747310  1  0  -0.034019  0  3.641659  0  0  -0.089365  0  3.899021  0  0  -0.086136  0  3.911336  0  0  -0.073395  -0.091411  0  3.890483  0
C  C77  1  0.72296292  0.38110146  0.58747362  1  0  -0.034129  0  3.641871  0  0  -0.089482  0  3.899279  0  0  -0.086252  0  3.911589  0  0  -0.073416  -0.091527  0  3.89074  0
C  C78  1  0.22295927  0.38110132  0.91252612  1  0  -0.034083  0  3.64166  0  0  -0.089497  0  3.899106  0  0  -0.086269  0  3.911414  0  0  -0.07341  -0.091531  0  3.890566  0
C  C79  1  0.27704215  0.61889972  0.41252605  1  0  -0.034037  0  3.641652  0  0  -0.089498  0  3.899145  0  0  -0.086268  0  3.911454  0  0  -0.073404  -0.091535  0  3.890608  0
C  C80  1  0.67972521  0.49116659  0.98924810  1  0  -0.035197  0  3.667156  0  0  -0.090387  0  3.918232  0  0  -0.087568  0  3.931311  0  0  -0.079042  -0.092111  0  3.908968  0
C  C81  1  0.82027705  0.50883146  0.48924896  1  0  -0.035201  0  3.667292  0  0  -0.090375  0  3.918335  0  0  -0.087573  0  3.931442  0  0  -0.079035  -0.092127  0  3.909108  0
C  C82  1  0.32027321  0.50882921  0.01075112  1  0  -0.035061  0  3.667095  0  0  -0.090244  0  3.918114  0  0  -0.087472  0  3.931256  0  0  -0.078997  -0.091987  0  3.908873  0
C  C83  1  0.17972862  0.49116706  0.51075160  1  0  -0.035135  0  3.66714  0  0  -0.090313  0  3.918177  0  0  -0.087496  0  3.931262  0  0  -0.079027  -0.092035  0  3.908912  0
C  C84  1  0.47857854  0.60955849  0.04897950  1  0  -0.031339  0  3.657994  0  0  -0.087783  0  3.910903  0  0  -0.084372  0  3.924307  0  0  -0.076239  -0.089952  0  3.901647  0
C  C85  1  0.02142075  0.39043772  0.54898041  1  0  -0.031161  0  3.657786  0  0  -0.087626  0  3.910774  0  0  -0.084224  0  3.924163  0  0  -0.076178  -0.089797  0  3.901508  0
C  C86  1  0.52141953  0.39043598  0.95101927  1  0  -0.031197  0  3.657899  0  0  -0.087664  0  3.910838  0  0  -0.084268  0  3.924233  0  0  -0.076237  -0.089835  0  3.901574  0
C  C87  1  0.97858064  0.60955944  0.45101971  1  0  -0.031164  0  3.657883  0  0  -0.087621  0  3.910854  0  0  -0.084217  0  3.924251  0  0  -0.076177  -0.089789  0  3.901598  0
C  C88  1  0.25804934  0.94765444  0.01139112  1  0  0.286444  0  4.009025  0  0  0.265489  0  4.320861  0  0  0.286321  0  4.333424  0  0  0.142339  0.251291  0  4.31226  0
C  C89  1  0.24194703  0.05234581  0.51139128  1  0  0.286512  0  4.009037  0  0  0.265558  0  4.320858  0  0  0.286385  0  4.333419  0  0  0.142389  0.251362  0  4.312255  0
C  C90  1  0.74195051  0.05234671  0.98860945  1  0  0.286438  0  4.009139  0  0  0.265484  0  4.320967  0  0  0.28631  0  4.333529  0  0  0.142375  0.251286  0  4.312361  0
C  C91  1  0.75805187  0.94765668  0.48860929  1  0  0.286407  0  4.009035  0  0  0.265452  0  4.320867  0  0  0.286283  0  4.333431  0  0  0.142317  0.251254  0  4.312266  0
C  C92  1  0.34175548  0.49113690  0.19797618  1  0  0.288827  0  4.072255  0  0  0.266697  0  4.381636  0  0  0.290153  0  4.393202  0  0  0.137041  0.250801  0  4.373483  0
C  C93  1  0.15824826  0.50886980  0.69797710  1  0  0.288732  0  4.072138  0  0  0.266598  0  4.381535  0  0  0.290055  0  4.393103  0  0  0.136982  0.250701  0  4.373382  0
C  C94  1  0.65824484  0.50887093  0.80202439  1  0  0.288788  0  4.07219  0  0  0.26666  0  4.38157  0  0  0.290118  0  4.393135  0  0  0.136999  0.250765  0  4.373418  0
C  C95  1  0.84176205  0.49113142  0.30202347  1  0  0.288947  0  4.072457  0  0  0.26682  0  4.38183  0  0  0.290276  0  4.393391  0  0  0.137115  0.250922  0  4.373682  0
S  S96  1  0.19995247  0.02704699  0.07413923  1  0  -0.32925  0  2.16106  0  0  -0.292121  0  2.487934  0  0  -0.307829  0  2.478237  0  0  -0.132838  -0.281233  0  2.494439  0
S  S97  1  0.30004248  0.97294247  0.57414143  1  0  -0.329372  0  2.160887  0  0  -0.292238  0  2.487756  0  0  -0.307947  0  2.478055  0  0  -0.132896  -0.281352  0  2.494263  0
S  S98  1  0.80004548  0.97294213  0.92585909  1  0  -0.329306  0  2.160907  0  0  -0.292169  0  2.487773  0  0  -0.307876  0  2.478072  0  0  -0.132868  -0.281283  0  2.494279  0
S  S99  1  0.69995785  0.02705067  0.42586094  1  0  -0.329233  0  2.161036  0  0  -0.292099  0  2.487896  0  0  -0.307807  0  2.478197  0  0  -0.132828  -0.281209  0  2.494401  0
S  S100  1  0.27639200  0.65680440  0.22570239  1  0  -0.360593  0  2.071336  0  0  -0.339888  0  2.373488  0  0  -0.354302  0  2.367292  0  0  -0.147588  -0.329812  0  2.377613  0
S  S101  1  0.22360870  0.34319556  0.72570202  1  0  -0.360539  0  2.071261  0  0  -0.339836  0  2.373417  0  0  -0.354248  0  2.36722  0  0  -0.147577  -0.329757  0  2.377537  0
S  S102  1  0.72360701  0.34320342  0.77429908  1  0  -0.360494  0  2.071296  0  0  -0.339791  0  2.373439  0  0  -0.354202  0  2.367244  0  0  -0.147539  -0.329711  0  2.377555  0
S  S103  1  0.77639174  0.65680292  0.27429765  1  0  -0.360623  0  2.071173  0  0  -0.339927  0  2.37332  0  0  -0.354342  0  2.367124  0  0  -0.147594  -0.329844  0  2.377444  0
N  N104  1  0.61057769  0.99721691  0.16276425  1  0  -0.635103  0  3.133076  0  0  -0.578026  0  3.371641  0  0  -0.597764  0  3.373252  0  0  -0.636869  -0.564129  0  3.370177  0
N  N105  1  0.88941716  0.00278557  0.66276446  1  0  -0.635179  0  3.133181  0  0  -0.578066  0  3.371727  0  0  -0.597815  0  3.373347  0  0  -0.636852  -0.564166  0  3.37026  0
N  N106  1  0.38942512  0.00278560  0.83723676  1  0  -0.635237  0  3.133043  0  0  -0.578197  0  3.371612  0  0  -0.597932  0  3.373215  0  0  -0.636936  -0.564296  0  3.370146  0
N  N107  1  0.11058007  0.99721557  0.33723521  1  0  -0.635077  0  3.133124  0  0  -0.577991  0  3.371657  0  0  -0.597731  0  3.373266  0  0  -0.636844  -0.564092  0  3.370192  0
N  N108  1  0.80746661  0.37410327  0.15198310  1  0  -0.405003  0  3.254644  0  0  -0.324892  0  3.494187  0  0  -0.343726  0  3.508031  0  0  -0.497943  -0.311809  0  3.484363  0
N  N109  1  0.69253250  0.62590058  0.65198221  1  0  -0.404902  0  3.254512  0  0  -0.32475  0  3.494053  0  0  -0.343583  0  3.507884  0  0  -0.497868  -0.311663  0  3.484228  0
N  N110  1  0.19253169  0.62590188  0.84801702  1  0  -0.40501  0  3.254734  0  0  -0.324914  0  3.494275  0  0  -0.343744  0  3.508098  0  0  -0.49796  -0.311818  0  3.484427  0
N  N111  1  0.30746865  0.37410058  0.34801701  1  0  -0.404996  0  3.254647  0  0  -0.324913  0  3.494187  0  0  -0.343743  0  3.508013  0  0  -0.497912  -0.311821  0  3.484346  0
N  N112  1  0.62204763  0.51494140  0.05136807  1  0  -0.227932  0  3.223256  0  0  -0.125991  0  3.456666  0  0  -0.144924  0  3.479509  0  0  -0.339646  -0.11284  0  3.44049  0
N  N113  1  0.87795247  0.48505727  0.55136861  1  0  -0.227955  0  3.223298  0  0  -0.126059  0  3.456824  0  0  -0.144982  0  3.479648  0  0  -0.339665  -0.112901  0  3.440655  0
N  N114  1  0.37794984  0.48505574  0.94863160  1  0  -0.227953  0  3.223057  0  0  -0.126085  0  3.456691  0  0  -0.144976  0  3.479464  0  0  -0.339704  -0.112938  0  3.440547  0
N  N115  1  0.12205094  0.51494257  0.44863196  1  0  -0.228013  0  3.223203  0  0  -0.126078  0  3.456696  0  0  -0.145011  0  3.479538  0  0  -0.339713  -0.112927  0  3.440518  0
N  N116  1  0.29874649  0.89011398  0.96580486  1  0  -0.525267  0  2.827133  0  0  -0.478407  0  3.101133  0  0  -0.496401  0  3.108344  0  0  -0.376227  -0.466266  0  3.096307  0
N  N117  1  0.20125409  0.10987362  0.46580939  1  0  -0.525236  0  2.827338  0  0  -0.478376  0  3.10133  0  0  -0.496368  0  3.108541  0  0  -0.376236  -0.466235  0  3.096499  0
N  N118  1  0.70125800  0.10987518  0.03419076  1  0  -0.525235  0  2.827431  0  0  -0.478378  0  3.101424  0  0  -0.496368  0  3.108636  0  0  -0.376259  -0.466232  0  3.09659  0
N  N119  1  0.79874719  0.89011819  0.53419523  1  0  -0.525251  0  2.827145  0  0  -0.478384  0  3.101141  0  0  -0.496378  0  3.108354  0  0  -0.376218  -0.466242  0  3.096312  0
N  N120  1  0.38184377  0.36438446  0.17837253  1  0  -0.569703  0  2.868878  0  0  -0.509745  0  3.149691  0  0  -0.531301  0  3.154441  0  0  -0.412982  -0.494992  0  3.146213  0
N  N121  1  0.11815897  0.63562360  0.67837341  1  0  -0.569656  0  2.868793  0  0  -0.509684  0  3.149582  0  0  -0.531239  0  3.154329  0  0  -0.412938  -0.494931  0  3.146104  0
N  N122  1  0.61815797  0.63562872  0.82162804  1  0  -0.56976  0  2.868857  0  0  -0.509787  0  3.149642  0  0  -0.531345  0  3.154394  0  0  -0.412988  -0.495025  0  3.146145  0
N  N123  1  0.88184729  0.36438694  0.32162536  1  0  -0.569794  0  2.869227  0  0  -0.509844  0  3.150044  0  0  -0.531395  0  3.154782  0  0  -0.413051  -0.495102  0  3.146591  0
