# generated using pymatgen
data_Zn4H24C24O25
_symmetry_space_group_name_H-M   'P 1'
_cell_length_a   16.93198781
_cell_length_b   17.57643305
_cell_length_c   18.41482547
_cell_angle_alpha   66.86220378
_cell_angle_beta   66.83464985
_cell_angle_gamma   65.92433627
_symmetry_Int_Tables_number   1
_chemical_formula_structural   Zn4H24C24O25
_chemical_formula_sum   'Zn8 H48 C48 O50'
_cell_volume   4420.22694875
_cell_formula_units_Z   2
loop_
 _symmetry_equiv_pos_site_id
 _symmetry_equiv_pos_as_xyz
  1  'x, y, z'
loop_
 _atom_site_type_symbol
 _atom_site_label
 _atom_site_symmetry_multiplicity
 _atom_site_fract_x
 _atom_site_fract_y
 _atom_site_fract_z
 _atom_site_occupancy
 _atom_site_pbe_bader_charge
 _atom_site_pbe_bader_spin_density
 _atom_site_pbe_cm5_charge
 _atom_site_pbe_ddec_charge
 _atom_site_pbe_ddec_spin_density
 _atom_site_pbe_ddec_sum_bond_order
 _atom_site_pbe_magmom
Zn  Zn0  1  0.91149876  0.03822961  0.11339152  1  1.312763  0  0.669465  0.973455  0  2.364885  0
Zn  Zn1  1  0.07124213  0.02510811  0.94630369  1  1.312394  0  0.680142  0.97497  0  2.356818  0
Zn  Zn2  1  0.08476787  0.86936904  0.10221911  1  1.316144  0  0.683774  0.959838  0  2.371711  0
Zn  Zn3  1  0.10326929  0.04303015  0.10310085  1  1.324452  0  0.689532  0.977599  0  2.263491  0
Zn  Zn4  1  0.67712393  0.44672477  0.53731138  1  1.324465  0  0.689021  0.97471  0  2.269953  0
Zn  Zn5  1  0.49206322  0.46527752  0.68451204  1  1.322508  0  0.687223  0.978057  0  2.320945  0
Zn  Zn6  1  0.50037237  0.44659807  0.51168629  1  1.316311  0  0.669759  0.978008  0  2.350079  0
Zn  Zn7  1  0.50631565  0.61828031  0.52593359  1  1.303728  0  0.679614  0.96348  0  2.395006  0
H  H8  1  0.74702777  0.11117778  0.94849450  1  0.067878  0  0.111896  0.068053  0  0.955032  0
H  H9  1  0.80908928  0.10292016  0.73997172  1  0.102981  0  0.131688  0.08898  0  0.925979  0
H  H10  1  0.71492405  0.11745817  0.83124380  1  0.021476  0  0.094895  0.017099  0  0.984873  0
H  H11  1  0.65549681  0.25874812  0.85521662  1  0.052462  0  0.107903  0.056706  0  0.967487  0
H  H12  1  0.67043979  0.39812447  0.82398769  1  0.084754  0  0.116645  0.074854  0  0.945778  0
H  H13  1  0.90802900  0.35883245  0.77929692  1  0.094823  0  0.127102  0.082855  0  0.932295  0
H  H14  1  0.80028070  0.37779670  0.85717573  1  0.021845  0  0.095241  0.018295  0  0.981831  0
H  H15  1  0.74216949  0.25277413  0.93464112  1  0.047871  0  0.10579  0.053065  0  0.962402  0
H  H16  1  0.82053546  0.86658706  0.35237853  1  0.075609  0  0.112596  0.068245  0  0.953564  0
H  H17  1  0.92475248  0.64955557  0.46174845  1  0.06577  0  0.129847  0.086653  0  0.926406  0
H  H18  1  0.82876386  0.74633753  0.47145303  1  0.017228  0  0.095931  0.020534  0  0.97932  0
H  H19  1  0.70760115  0.76797539  0.41828172  1  0.073604  0  0.106329  0.0555  0  0.965521  0
H  H20  1  0.65590382  0.72971208  0.33759546  1  0.065081  0  0.117078  0.078578  0  0.951015  0
H  H21  1  0.85051012  0.67601690  0.17283019  1  0.086852  0  0.130054  0.086621  0  0.928279  0
H  H22  1  0.74564637  0.75893504  0.20243466  1  0.029156  0  0.097394  0.022078  0  0.980462  0
H  H23  1  0.74847341  0.84684032  0.27633287  1  0.064602  0  0.106687  0.055088  0  0.964088  0
H  H24  1  0.82979646  0.28153148  0.17483320  1  0.068391  0  0.111088  0.063274  0  0.956358  0
H  H25  1  0.92840938  0.38238433  0.23708123  1  0.120125  0  0.13444  0.09491  0  0.921966  0
H  H26  1  0.83465159  0.39768078  0.20225430  1  0.00385  0  0.094031  0.017034  0  0.984535  0
H  H27  1  0.71862261  0.32773399  0.30507125  1  0.048097  0  0.103861  0.051182  0  0.963838  0
H  H28  1  0.68017904  0.22139089  0.43293704  1  0.055454  0  0.10974  0.062665  0  0.964154  0
H  H29  1  0.88932669  0.06729569  0.46056513  1  0.08228  0  0.131069  0.088745  0  0.925451  0
H  H30  1  0.78551764  0.08735074  0.43834133  1  0.014737  0  0.0935  0.01584  0  0.986026  0
H  H31  1  0.77403498  0.17975790  0.29824210  1  0.060574  0  0.104254  0.052948  0  0.971353  0
H  H32  1  0.11402265  0.80976870  0.85604011  1  0.051025  0  0.117068  0.073728  0  0.943211  0
H  H33  1  0.19734910  0.57739339  0.92673835  1  0.105148  0  0.134564  0.093981  0  0.921382  0
H  H34  1  0.14514480  0.66775596  0.85124703  1  0.041145  0  0.096476  0.019705  0  0.981339  0
H  H35  1  0.24457720  0.74717954  0.73678033  1  0.03192  0  0.10634  0.052164  0  0.957724  0
H  H36  1  0.38399990  0.78043591  0.68106723  1  0.068665  0  0.112473  0.06721  0  0.960587  0
H  H37  1  0.44936020  0.75086861  0.85458678  1  0.100186  0  0.129772  0.086391  0  0.928344  0
H  H38  1  0.40407377  0.83005155  0.76984332  1  0.045635  0  0.096316  0.020158  0  0.982039  0
H  H39  1  0.24627552  0.85489578  0.78541507  1  0.053038  0  0.107369  0.056839  0  0.968852  0
H  H40  1  0.32262496  0.08629820  0.82776268  1  0.051941  0  0.112865  0.067457  0  0.952298  0
H  H41  1  0.45654589  0.15824788  0.88164664  1  0.093656  0  0.128934  0.085507  0  0.931565  0
H  H42  1  0.45327470  0.11766350  0.80611310  1  0.005683  0  0.094491  0.017036  0  0.983749  0
H  H43  1  0.36924511  0.22326900  0.70712099  1  0.061557  0  0.104757  0.050894  0  0.964126  0
H  H44  1  0.26449844  0.36022524  0.66716496  1  0.059917  0  0.112571  0.070059  0  0.955434  0
H  H45  1  0.10665315  0.39957701  0.85738541  1  0.061329  0  0.130314  0.087024  0  0.92751  0
H  H46  1  0.12599227  0.36314525  0.77007809  1  0.025087  0  0.096491  0.019771  0  0.982037  0
H  H47  1  0.21834813  0.21559499  0.77214273  1  0.073647  0  0.10734  0.057106  0  0.968162  0
H  H48  1  0.16490155  0.75418819  0.28681642  1  0.079868  0  0.119056  0.081474  0  0.947487  0
H  H49  1  0.16760087  0.79323553  0.46188412  1  0.07704  0  0.129071  0.086053  0  0.929857  0
H  H50  1  0.16348651  0.71448007  0.42319496  1  0.048277  0  0.097615  0.022787  0  0.981505  0
H  H51  1  0.30699548  0.63464511  0.34554459  1  0.056548  0  0.107033  0.054754  0  0.961801  0
H  H52  1  0.46021051  0.61984234  0.27290918  1  0.08578  0  0.113183  0.070121  0  0.951667  0
H  H53  1  0.46719294  0.84116694  0.17212377  1  0.093667  0  0.129487  0.086197  0  0.928115  0
H  H54  1  0.46334803  0.74673764  0.15646355  1  0.003376  0  0.095932  0.020154  0  0.97958  0
H  H55  1  0.31825957  0.72209122  0.20628975  1  0.0632  0  0.108985  0.059909  0  0.963299  0
C  C56  1  0.87854757  0.09206439  0.95325178  1  1.609814  0  0.231875  0.614944  0  4.119682  0
C  C57  1  0.80828034  0.12942353  0.90593038  1  0.437173  0  0.005128  -0.000896  0  3.875763  0
C  C58  1  0.77935342  0.13178868  0.79131744  1  0.939089  0  0.023681  0.174011  0  4.007008  0
C  C59  1  0.72358957  0.26555388  0.81997624  1  0.471868  0  -0.004516  0.05554  0  3.896199  0
C  C60  1  0.71513002  0.36196799  0.77762704  1  0.463177  0  0.007306  -0.000734  0  3.880862  0
C  C61  1  0.84325556  0.34507238  0.80763606  1  0.923574  0  0.022236  0.173109  0  4.00784  0
C  C62  1  0.78205776  0.22910072  0.87931949  1  0.483228  0  -0.002961  0.061611  0  3.88672  0
C  C63  1  0.66834193  0.39420270  0.71040358  1  1.624405  0  0.236551  0.620211  0  4.103912  0
C  C64  1  0.91678680  0.86882510  0.23428479  1  1.627394  0  0.233275  0.615768  0  4.122363  0
C  C65  1  0.86430775  0.82009026  0.31532844  1  0.47248  0  0.005468  -0.001315  0  3.890835  0
C  C66  1  0.87531702  0.70267045  0.43168609  1  0.974234  0  0.021206  0.168492  0  4.007711  0
C  C67  1  0.76020106  0.72889124  0.37675365  1  0.429394  0  -0.004105  0.06169  0  3.892505  0
C  C68  1  0.71679885  0.68154846  0.35598404  1  0.489428  0  0.006141  -0.007065  0  3.891407  0
C  C69  1  0.80544331  0.70786765  0.22123571  1  0.946059  0  0.022416  0.170828  0  4.004992  0
C  C70  1  0.80262591  0.78940054  0.29751788  1  0.445452  0  -0.005152  0.058565  0  3.896838  0
C  C71  1  0.68420870  0.61468849  0.43361210  1  1.59288  0  0.227568  0.60898  0  4.122462  0
C  C72  1  0.93204819  0.16156480  0.17136129  1  1.589058  0  0.233895  0.615118  0  4.119414  0
C  C73  1  0.87898236  0.23650221  0.21044960  1  0.462893  0  0.005904  -0.000164  0  3.900806  0
C  C74  1  0.88198378  0.35192660  0.23976583  1  0.929121  0  0.025782  0.171957  0  3.990674  0
C  C75  1  0.77308087  0.28358917  0.33472857  1  0.454526  0  -0.002828  0.060674  0  3.895994  0
C  C76  1  0.73098945  0.24947912  0.42718293  1  0.466787  0  0.003479  -0.002298  0  3.890607  0
C  C77  1  0.83817631  0.11515538  0.42963881  1  0.965778  0  0.021783  0.170055  0  3.999129  0
C  C78  1  0.82347950  0.20551154  0.29885820  1  0.462881  0  -0.00643  0.05656  0  3.902968  0
C  C79  1  0.67973357  0.32370649  0.46714522  1  1.6145  0  0.232132  0.615329  0  4.112399  0
C  C80  1  0.13472940  0.84191336  0.94552717  1  1.60062  0  0.233085  0.611953  0  4.121561  0
C  C81  1  0.16462408  0.78314047  0.89093983  1  0.479399  0  0.00697  -0.001276  0  3.895852  0
C  C82  1  0.19479579  0.64331087  0.88687081  1  0.910426  0  0.023148  0.169982  0  3.995555  0
C  C83  1  0.28701974  0.72287400  0.77901222  1  0.48141  0  -0.002461  0.061186  0  3.893715  0
C  C84  1  0.38501761  0.71712755  0.72796093  1  0.462254  0  0.005042  -0.000457  0  3.876327  0
C  C85  1  0.40504468  0.76648982  0.81729725  1  0.917537  0  0.020846  0.170185  0  4.008705  0
C  C86  1  0.25515525  0.78863229  0.82792622  1  0.468836  0  -0.004981  0.057609  0  3.901782  0
C  C87  1  0.42507897  0.64819616  0.68219095  1  1.613321  0  0.233672  0.620131  0  4.093952  0
C  C88  1  0.20580470  0.09861879  0.92985853  1  1.617925  0  0.236102  0.617932  0  4.112647  0
C  C89  1  0.28480410  0.13125815  0.86718773  1  0.485614  0  0.006824  -0.000755  0  3.887678  0
C  C90  1  0.41456035  0.16038649  0.84791957  1  0.959454  0  0.021836  0.171053  0  4.009877  0
C  C91  1  0.32993324  0.25766779  0.75550521  1  0.443936  0  -0.002447  0.062468  0  3.884147  0
C  C92  1  0.29344329  0.35496213  0.71402250  1  0.481425  0  0.005288  -0.003022  0  3.871223  0
C  C93  1  0.15615073  0.36183235  0.81468584  1  0.97541  0  0.022493  0.171523  0  4.010254  0
C  C94  1  0.25025579  0.22145585  0.81114149  1  0.441214  0  -0.004049  0.056953  0  3.895614  0
C  C95  1  0.37063830  0.39532157  0.66968093  1  1.620511  0  0.233778  0.619194  0  4.109422  0
C  C96  1  0.17505166  0.87353106  0.19769345  1  1.596324  0  0.227651  0.606069  0  4.124109  0
C  C97  1  0.19894647  0.80243888  0.27310584  1  0.472637  0  0.005905  -0.004528  0  3.884774  0
C  C98  1  0.19326727  0.76618953  0.40974997  1  0.923415  0  0.02207  0.169478  0  4.008246  0
C  C99  1  0.32778681  0.69287059  0.32908136  1  0.457607  0  -0.002982  0.062806  0  3.889336  0
C  C100  1  0.43065837  0.66480868  0.31178897  1  0.456732  0  0.00499  -0.003082  0  3.879209  0
C  C101  1  0.43842227  0.78719656  0.19931158  1  0.981866  0  0.021744  0.170766  0  4.010658  0
C  C102  1  0.30075406  0.75753917  0.25133946  1  0.443084  0  -0.004238  0.057915  0  3.890387  0
C  C103  1  0.45535286  0.61521291  0.39281776  1  1.601222  0  0.233217  0.618398  0  4.118417  0
O  O104  1  0.04131777  0.99672437  0.06575113  1  -1.227863  0  -0.574571  -1.039045  0  2.533181  0
O  O105  1  0.96014682  0.06747014  0.91372183  1  -1.157994  0  -0.301222  -0.514301  0  2.360731  0
O  O106  1  0.84608609  0.09163168  0.02876627  1  -1.167138  0  -0.320594  -0.556334  0  2.304117  0
O  O107  1  0.84242656  0.09514019  0.83752361  1  -1.016786  0  -0.223776  -0.241773  0  2.451877  0
O  O108  1  0.76269247  0.22215503  0.75708616  1  -1.050599  0  -0.218595  -0.242391  0  2.443008  0
O  O109  1  0.80046722  0.37688861  0.74487420  1  -1.028255  0  -0.219136  -0.233512  0  2.452682  0
O  O110  1  0.86261641  0.25414439  0.84167180  1  -1.032942  0  -0.222912  -0.25351  0  2.448514  0
O  O111  1  0.58823912  0.38872288  0.73780703  1  -1.175343  0  -0.321363  -0.55726  0  2.305846  0
O  O112  1  0.71112084  0.42200576  0.63683315  1  -1.15865  0  -0.295044  -0.505356  0  2.31878  0
O  O113  1  0.00007140  0.83271786  0.20884143  1  -1.161989  0  -0.299559  -0.511675  0  2.352874  0
O  O114  1  0.86868740  0.94181514  0.19972070  1  -1.189473  0  -0.323274  -0.560011  0  2.312046  0
O  O115  1  0.92431687  0.74984398  0.35812139  1  -1.03439  0  -0.222961  -0.242015  0  2.4572  0
O  O116  1  0.82614857  0.66450133  0.41715263  1  -1.035871  0  -0.217581  -0.241353  0  2.442809  0
O  O117  1  0.77695987  0.64323549  0.29147793  1  -1.037355  0  -0.220381  -0.233898  0  2.447583  0
O  O118  1  0.85562541  0.74639620  0.23446736  1  -1.039363  0  -0.223286  -0.252934  0  2.441261  0
O  O119  1  0.62002172  0.64791212  0.48888374  1  -1.181277  0  -0.33658  -0.578189  0  2.290265  0
O  O120  1  0.72075330  0.53481030  0.43819495  1  -1.138351  0  -0.291701  -0.49578  0  2.289887  0
O  O121  1  0.01667926  0.14316806  0.14478123  1  -1.121563  0  -0.294288  -0.501718  0  2.315103  0
O  O122  1  0.88124133  0.12564907  0.16909177  1  -1.177809  0  -0.324353  -0.564294  0  2.334034  0
O  O123  1  0.93519993  0.27995355  0.20729057  1  -1.026086  0  -0.218371  -0.233234  0  2.449746  0
O  O124  1  0.83275676  0.32824056  0.32330677  1  -1.027037  0  -0.218302  -0.241538  0  2.431698  0
O  O125  1  0.79765741  0.18486134  0.46571513  1  -1.029136  0  -0.219344  -0.235119  0  2.435946  0
O  O126  1  0.88334701  0.13944698  0.34500065  1  -1.039086  0  -0.220258  -0.244098  0  2.428806  0
O  O127  1  0.60229666  0.36537346  0.45422629  1  -1.178089  0  -0.327085  -0.568278  0  2.314096  0
O  O128  1  0.71625545  0.33839838  0.50622618  1  -1.151246  0  -0.292684  -0.499395  0  2.305983  0
O  O129  1  0.11233332  0.80921251  0.02274443  1  -1.129636  0  -0.298445  -0.501796  0  2.333234  0
O  O130  1  0.13429444  0.91980780  0.90640956  1  -1.176061  0  -0.314418  -0.551493  0  2.334207  0
O  O131  1  0.16803198  0.69649912  0.93870179  1  -1.030745  0  -0.219028  -0.234857  0  2.454841  0
O  O132  1  0.28204356  0.63932380  0.83222323  1  -1.022047  0  -0.219169  -0.243563  0  2.447079  0
O  O133  1  0.43977723  0.70000073  0.77810042  1  -1.040257  0  -0.221604  -0.239313  0  2.433082  0
O  O134  1  0.31765983  0.77031001  0.87127723  1  -1.039093  0  -0.223189  -0.250514  0  2.436011  0
O  O135  1  0.41888380  0.67726952  0.60835147  1  -1.162985  0  -0.32354  -0.553645  0  2.289648  0
O  O136  1  0.45899369  0.57075389  0.71934840  1  -1.156902  0  -0.294182  -0.509225  0  2.322427  0
O  O137  1  0.19797108  0.08030646  0.00531674  1  -1.153928  0  -0.29238  -0.50263  0  2.327567  0
O  O138  1  0.15602323  0.09292482  0.89617626  1  -1.174748  0  -0.321925  -0.557247  0  2.321293  0
O  O139  1  0.34171179  0.13092553  0.90702481  1  -1.035816  0  -0.219345  -0.232392  0  2.455644  0
O  O140  1  0.38673313  0.24739672  0.80112499  1  -1.028693  0  -0.220541  -0.248912  0  2.450148  0
O  O141  1  0.22674571  0.40005185  0.77188057  1  -1.032718  0  -0.222743  -0.239711  0  2.449453  0
O  O142  1  0.18524698  0.27565563  0.86230484  1  -1.043652  0  -0.22124  -0.247019  0  2.441757  0
O  O143  1  0.41290389  0.38660342  0.59736543  1  -1.178779  0  -0.321937  -0.559231  0  2.293966  0
O  O144  1  0.38593548  0.43083605  0.70858749  1  -1.158687  0  -0.29898  -0.512943  0  2.345449  0
O  O145  1  0.14188056  0.95195698  0.19903164  1  -1.138443  0  -0.290259  -0.493038  0  2.281121  0
O  O146  1  0.19096503  0.84519797  0.13749159  1  -1.183637  0  -0.33479  -0.575149  0  2.293735  0
O  O147  1  0.16925660  0.83488009  0.34197733  1  -1.020655  0  -0.219863  -0.233019  0  2.444113  0
O  O148  1  0.28769082  0.73021213  0.39640347  1  -1.032982  0  -0.223183  -0.254806  0  2.446082  0
O  O149  1  0.46561946  0.73665991  0.27187629  1  -1.033355  0  -0.223464  -0.243269  0  2.459451  0
O  O150  1  0.34424895  0.82372444  0.21545273  1  -1.053053  0  -0.219376  -0.243303  0  2.44339  0
O  O151  1  0.44712305  0.53901571  0.42432679  1  -1.18401  0  -0.320373  -0.557845  0  2.298671  0
O  O152  1  0.47967918  0.65436755  0.42108590  1  -1.144424  0  -0.301503  -0.515444  0  2.365625  0
O  O153  1  0.54385389  0.49174002  0.56498404  1  -1.223973  0  -0.576738  -1.042474  0  2.544349  0
