# generated using pymatgen
data_Zn2H32C41(NO3)4
_symmetry_space_group_name_H-M   'P 1'
_cell_length_a   9.25764175
_cell_length_b   13.66926172
_cell_length_c   20.25108486
_cell_angle_alpha   86.68954092
_cell_angle_beta   80.22959831
_cell_angle_gamma   70.21624572
_symmetry_Int_Tables_number   1
_chemical_formula_structural   Zn2H32C41(NO3)4
_chemical_formula_sum   'Zn4 H64 C82 N8 O24'
_cell_volume   2376.44263982
_cell_formula_units_Z   2
loop_
 _symmetry_equiv_pos_site_id
 _symmetry_equiv_pos_as_xyz
  1  'x, y, z'
loop_
 _atom_site_type_symbol
 _atom_site_label
 _atom_site_symmetry_multiplicity
 _atom_site_fract_x
 _atom_site_fract_y
 _atom_site_fract_z
 _atom_site_occupancy
 _atom_site_pbe_bader_charge
 _atom_site_pbe_bader_spin_density
 _atom_site_pbe_cm5_charge
 _atom_site_pbe_ddec_charge
 _atom_site_pbe_ddec_spin_density
 _atom_site_pbe_ddec_sum_bond_order
 _atom_site_pbe_magmom
Zn  Zn0  1  0.60473295  0.73866487  0.01056877  1  1.249985  0  0.696643  0.766208  0  2.370464  0
Zn  Zn1  1  0.15672272  0.73844920  0.48946225  1  1.253664  0  0.696707  0.766138  0  2.369822  0
Zn  Zn2  1  0.39526460  0.26133365  0.98943308  1  1.249887  0  0.696631  0.766208  0  2.370478  0
Zn  Zn3  1  0.84327807  0.26154931  0.51053539  1  1.25368  0  0.69675  0.766219  0  2.369749  0
H  H4  1  0.37804450  0.63663112  0.05356516  1  0.132972  0  0.117671  0.096548  0  1.020241  0
H  H5  1  0.48532650  0.63645191  0.44667844  1  0.142484  0  0.117763  0.09672  0  1.019752  0
H  H6  1  0.62194889  0.36337362  0.94644072  1  0.133424  0  0.117707  0.09663  0  1.020264  0
H  H7  1  0.51467621  0.36354505  0.55332306  1  0.142585  0  0.117736  0.0967  0  1.019789  0
H  H8  1  0.35799314  0.48314911  0.12379744  1  0.10471  0  0.114512  0.138866  0  0.993509  0
H  H9  1  0.65902527  0.48313255  0.37638448  1  0.119871  0  0.11428  0.139109  0  0.993104  0
H  H10  1  0.64200326  0.51685173  0.87620638  1  0.104764  0  0.114495  0.138882  0  0.993555  0
H  H11  1  0.34097885  0.51686597  0.62361635  1  0.119914  0  0.114238  0.139031  0  0.993182  0
H  H12  1  0.85106787  0.39974766  0.13003030  1  0.093397  0  0.108219  0.126485  0  1.040828  0
H  H13  1  0.24948304  0.39963672  0.36992573  1  0.122951  0  0.107939  0.126167  0  1.041513  0
H  H14  1  0.14893586  0.60025164  0.86997004  1  0.093437  0  0.108204  0.126486  0  1.040873  0
H  H15  1  0.75051844  0.60036257  0.63007034  1  0.123033  0  0.107951  0.126227  0  1.041487  0
H  H16  1  0.85092183  0.55201874  0.05953893  1  0.146513  0  0.11974  0.096784  0  0.995753  0
H  H17  1  0.09726280  0.55170324  0.44050223  1  0.127515  0  0.120163  0.097167  0  0.995734  0
H  H18  1  0.14907378  0.44798366  0.94046292  1  0.146459  0  0.119774  0.096857  0  0.99575  0
H  H19  1  0.90273831  0.44829683  0.55949581  1  0.127466  0  0.120143  0.097173  0  0.995745  0
H  H20  1  0.77084006  0.32213792  0.22657864  1  0.07169  0  0.106834  0.081907  0  1.001584  0
H  H21  1  0.40732909  0.32224033  0.27332416  1  0.075255  0  0.106979  0.081551  0  1.001743  0
H  H22  1  0.22915779  0.67786215  0.77342164  1  0.071694  0  0.106834  0.081916  0  1.001559  0
H  H23  1  0.59267518  0.67776440  0.72667394  1  0.075317  0  0.106929  0.08148  0  1.001647  0
H  H24  1  0.79461850  0.23465594  0.15911364  1  0.09054  0  0.108471  0.087134  0  1.001415  0
H  H25  1  0.47078816  0.23486067  0.34089727  1  0.094246  0  0.108549  0.087323  0  1.001757  0
H  H26  1  0.20538123  0.76534258  0.84088705  1  0.090621  0  0.108476  0.08712  0  1.001359  0
H  H27  1  0.52920521  0.76514173  0.65910130  1  0.094352  0  0.108541  0.087295  0  1.001729  0
H  H28  1  0.50737314  0.11111876  0.24264220  1  0.069227  0  0.106186  0.079599  0  0.980158  0
H  H29  1  0.88148768  0.11096453  0.25751839  1  0.05596  0  0.10629  0.080281  0  0.978603  0
H  H30  1  0.49263027  0.88887898  0.75735872  1  0.069215  0  0.106187  0.079626  0  0.98017  0
H  H31  1  0.11851233  0.88903787  0.74248509  1  0.056033  0  0.106316  0.080301  0  0.978627  0
H  H32  1  0.52533313  0.19255345  0.17102679  1  0.117758  0  0.111883  0.094079  0  1.002435  0
H  H33  1  0.78218636  0.19244740  0.32908177  1  0.081671  0  0.111647  0.093921  0  1.002903  0
H  H34  1  0.47467139  0.80744428  0.82897454  1  0.117888  0  0.111879  0.09406  0  1.002452  0
H  H35  1  0.21780863  0.80755189  0.67092223  1  0.081701  0  0.111654  0.093936  0  1.002918  0
H  H36  1  0.92628462  0.88088694  0.14728896  1  0.108139  0  0.117993  0.141402  0  0.974741  0
H  H37  1  0.69261367  0.88074561  0.35285296  1  0.096424  0  0.117845  0.14158  0  0.97499  0
H  H38  1  0.07372307  0.11911313  0.85270856  1  0.108218  0  0.11798  0.141389  0  0.974774  0
H  H39  1  0.30738201  0.11925446  0.64714898  1  0.096313  0  0.117791  0.141509  0  0.975037  0
H  H40  1  0.88675178  0.74915828  0.07805302  1  0.087634  0  0.124799  0.096249  0  0.966842  0
H  H41  1  0.86388694  0.74896009  0.42208811  1  0.085087  0  0.124777  0.09566  0  0.966446  0
H  H42  1  0.11325132  0.25083790  0.92194848  1  0.087713  0  0.124808  0.096278  0  0.966791  0
H  H43  1  0.13611022  0.25103920  0.57791373  1  0.085073  0  0.124761  0.095627  0  0.966468  0
H  H44  1  0.44576541  0.94401224  0.05537984  1  0.134685  0  0.115839  0.089202  0  1.057162  0
H  H45  1  0.11023169  0.94374807  0.44465459  1  0.162007  0  0.115762  0.089311  0  1.056803  0
H  H46  1  0.55423942  0.05598705  0.94462140  1  0.134598  0  0.115899  0.089265  0  1.057166  0
H  H47  1  0.88976438  0.05625122  0.55534735  1  0.161981  0  0.115762  0.089254  0  1.05682  0
H  H48  1  0.46592842  0.08518461  0.12075468  1  0.144485  0  0.110829  0.137135  0  1.04736  0
H  H49  1  0.94876067  0.08505866  0.37939495  1  0.116918  0  0.110251  0.136797  0  1.047268  0
H  H50  1  0.53407968  0.91481469  0.87924481  1  0.144387  0  0.110817  0.137079  0  1.047393  0
H  H51  1  0.05123758  0.91494063  0.62060582  1  0.116892  0  0.110276  0.136844  0  1.047308  0
H  H52  1  0.78009369  0.84026013  0.81156152  1  0.063613  0  0.101693  0.104005  0  1.011676  0
H  H53  1  0.88013930  0.84034695  0.68849231  1  0.07037  0  0.101735  0.104036  0  1.012146  0
H  H54  1  0.21991190  0.15973761  0.18843823  1  0.063839  0  0.101701  0.104036  0  1.011658  0
H  H55  1  0.11986372  0.15965156  0.31150861  1  0.070669  0  0.101756  0.104064  0  1.01211  0
H  H56  1  0.95373207  0.50673929  0.81256738  1  0.071215  0  0.105376  0.108576  0  0.997616  0
H  H57  1  0.03902286  0.50685544  0.68742551  1  0.066615  0  0.105169  0.108096  0  0.99795  0
H  H58  1  0.04626113  0.49325689  0.18743146  1  0.071282  0  0.105352  0.108541  0  0.997683  0
H  H59  1  0.96096838  0.49314462  0.31257184  1  0.066649  0  0.105205  0.108123  0  0.997978  0
H  H60  1  0.02592173  0.84652816  0.93290555  1  0.095826  0  0.099906  0.102148  0  1.015617  0
H  H61  1  0.62757562  0.84640801  0.56700655  1  0.089578  0  0.100053  0.101898  0  1.01604  0
H  H62  1  0.97407608  0.15347424  0.06709760  1  0.095683  0  0.09991  0.102198  0  1.015679  0
H  H63  1  0.37241852  0.15359283  0.43299104  1  0.089457  0  0.100016  0.10185  0  1.016108  0
H  H64  1  0.20919412  0.99315054  0.06398322  1  0.078787  0  0.098327  0.100374  0  1.024758  0
H  H65  1  0.29729819  0.99340267  0.43613985  1  0.078196  0  0.098945  0.101137  0  1.025939  0
H  H66  1  0.79080338  0.00685030  0.93601952  1  0.078926  0  0.098357  0.100433  0  1.024681  0
H  H67  1  0.70269737  0.00659973  0.56385854  1  0.078296  0  0.098981  0.101248  0  1.025897  0
C  C68  1  0.47790498  0.58335411  0.07363782  1  0.479645  0  0.041472  0.105225  0  3.963228  0
C  C69  1  0.43884266  0.58317932  0.42653566  1  0.399632  0  0.041427  0.105435  0  3.964631  0
C  C70  1  0.52209393  0.41664829  0.92636475  1  0.47881  0  0.04147  0.105169  0  3.963159  0
C  C71  1  0.56115887  0.41681998  0.57346436  1  0.399555  0  0.041405  0.105336  0  3.964699  0
C  C72  1  0.46739097  0.49872281  0.11216376  1  -0.039382  0  -0.09534  -0.241859  0  3.944153  0
C  C73  1  0.53402717  0.49868200  0.38794324  1  0.037628  0  -0.094701  -0.241845  0  3.94447  0
C  C74  1  0.53260762  0.50127804  0.88783841  1  -0.038957  0  -0.09532  -0.241853  0  3.944161  0
C  C75  1  0.46597506  0.50131807  0.61205669  1  0.037634  0  -0.094615  -0.241638  0  3.944401  0
C  C76  1  0.60101243  0.43195003  0.13550806  1  0.498437  0  0.115292  0.332213  0  4.03546  0
C  C77  1  0.46726099  0.43192745  0.36449172  1  0.514832  0  0.115931  0.332954  0  4.034654  0
C  C78  1  0.39898504  0.56805082  0.86449370  1  0.498448  0  0.11534  0.332312  0  4.035353  0
C  C79  1  0.53274419  0.56807106  0.63550656  1  0.515155  0  0.115887  0.332853  0  4.034677  0
C  C80  1  0.74195918  0.45083012  0.11633758  1  0.116454  0  -0.099152  -0.250882  0  3.946996  0
C  C81  1  0.30750339  0.45069646  0.38366444  1  0.034343  0  -0.099398  -0.251117  0  3.947439  0
C  C82  1  0.25804127  0.54916917  0.88366400  1  0.116232  0  -0.099127  -0.250909  0  3.947127  0
C  C83  1  0.69250290  0.54930205  0.61633424  1  0.034177  0  -0.099391  -0.251186  0  3.947659  0
C  C84  1  0.74231631  0.53707195  0.07693233  1  0.409683  0  0.049522  0.119484  0  3.954349  0
C  C85  1  0.22082190  0.53681124  0.42315436  1  0.44708  0  0.049322  0.119492  0  3.952938  0
C  C86  1  0.25768009  0.46292889  0.92307099  1  0.409986  0  0.049482  0.119424  0  3.954424  0
C  C87  1  0.77918251  0.46318883  0.57684392  1  0.447085  0  0.049283  0.119424  0  3.952977  0
C  C88  1  0.71286123  0.28088419  0.20095685  1  0.386243  0  -0.059827  -0.033812  0  3.82344  0
C  C89  1  0.50646006  0.28099425  0.29902628  1  0.390092  0  -0.060221  -0.03368  0  3.822707  0
C  C90  1  0.28714139  0.71911510  0.79904357  1  0.386167  0  -0.059791  -0.03371  0  3.823441  0
C  C91  1  0.49353653  0.71901049  0.70097144  1  0.389785  0  -0.060172  -0.033484  0  3.822552  0
C  C92  1  0.64415119  0.21187426  0.25001877  1  0.0734  0  -0.016388  0.053275  0  3.802659  0
C  C93  1  0.35585003  0.78812347  0.74998282  1  0.073557  0  -0.016341  0.053203  0  3.802777  0
C  C94  1  0.58617217  0.14494839  0.21003735  1  0.359863  0  -0.059537  -0.031472  0  3.816703  0
C  C95  1  0.76889293  0.14487858  0.29008257  1  0.405517  0  -0.059767  -0.033402  0  3.815173  0
C  C96  1  0.41383303  0.85505013  0.78996241  1  0.359697  0  -0.059617  -0.031607  0  3.816748  0
C  C97  1  0.23110417  0.85512304  0.70992018  1  0.405412  0  -0.059818  -0.033498  0  3.81532  0
C  C98  1  0.69716466  0.99222886  0.14209880  1  0.515597  0  0.109425  0.310188  0  4.051185  0
C  C99  1  0.81042002  0.99210141  0.35803001  1  0.480351  0  0.108859  0.310411  0  4.049453  0
C  C100  1  0.30284272  0.00776965  0.85789881  1  0.515904  0  0.109403  0.310141  0  4.051201  0
C  C101  1  0.18957823  0.00789788  0.64197077  1  0.480415  0  0.108836  0.310359  0  4.0494  0
C  C102  1  0.81748719  0.89666298  0.12827582  1  0.044317  0  -0.092997  -0.241994  0  3.962208  0
C  C103  1  0.78566469  0.89650710  0.37184798  1  0.058209  0  -0.093096  -0.243521  0  3.963113  0
C  C104  1  0.18252275  0.10333476  0.87172062  1  0.043911  0  -0.092942  -0.24193  0  3.962165  0
C  C105  1  0.21433175  0.10349141  0.62815346  1  0.058274  0  -0.093036  -0.243434  0  3.963126  0
C  C106  1  0.79549588  0.82384950  0.08986212  1  0.437131  0  0.047431  0.102204  0  3.989273  0
C  C107  1  0.88053468  0.82364624  0.41025641  1  0.42479  0  0.047126  0.103167  0  3.986439  0
C  C108  1  0.20451260  0.17614901  0.91013688  1  0.437329  0  0.047435  0.102239  0  3.989234  0
C  C109  1  0.11946216  0.17635149  0.58974503  1  0.424908  0  0.047128  0.103189  0  3.986549  0
C  C110  1  0.54960620  0.93359054  0.07718394  1  0.433503  0  0.042136  0.115641  0  3.948387  0
C  C111  1  0.01668823  0.93338523  0.42289511  1  0.405494  0  0.041355  0.114478  0  3.949563  0
C  C112  1  0.45040119  0.06640798  0.92281466  1  0.433753  0  0.042011  0.115544  0  3.94848  0
C  C113  1  0.98330784  0.06661406  0.57710732  1  0.405677  0  0.041374  0.11457  0  3.949543  0
C  C114  1  0.56059915  0.01107993  0.11509038  1  -0.013349  0  -0.103376  -0.265011  0  3.957478  0
C  C115  1  0.92817380  0.01093039  0.38503595  1  0.046837  0  -0.10207  -0.264592  0  3.958243  0
C  C116  1  0.43940777  0.98892169  0.88490763  1  -0.013026  0  -0.103343  -0.26491  0  3.957413  0
C  C117  1  0.07182265  0.98906812  0.61496549  1  0.046806  0  -0.102062  -0.264594  0  3.958275  0
C  C118  1  0.80476352  0.67214909  0.89330114  1  1.573412  0  0.195282  0.553811  0  4.248091  0
C  C119  1  0.02342257  0.67224405  0.60678160  1  1.582265  0  0.195546  0.553242  0  4.247661  0
C  C120  1  0.19522670  0.32784865  0.10669787  1  1.573012  0  0.19542  0.554057  0  4.247666  0
C  C121  1  0.97658005  0.32775525  0.39321735  1  1.582135  0  0.195634  0.553328  0  4.247789  0
C  C122  1  0.86070596  0.67337871  0.81923722  1  -0.036311  0  -0.017016  -0.025993  0  3.976662  0
C  C123  1  0.96602427  0.67344999  0.68082533  1  -0.052646  0  -0.017482  -0.027158  0  3.976125  0
C  C124  1  0.13929188  0.32662136  0.18076207  1  -0.035925  0  -0.017019  -0.026065  0  3.976612  0
C  C125  1  0.03397545  0.32654852  0.31917437  1  -0.052661  0  -0.017448  -0.027101  0  3.976149  0
C  C126  1  0.83899440  0.76748240  0.78420820  1  -0.065598  0  -0.0912  -0.110484  0  4.002145  0
C  C127  1  0.89391248  0.76753742  0.71584040  1  -0.033762  0  -0.091447  -0.110156  0  4.002523  0
C  C128  1  0.16100893  0.23251767  0.21579115  1  -0.065861  0  -0.091122  -0.110429  0  4.002054  0
C  C129  1  0.10608834  0.23246110  0.28415971  1  -0.034137  0  -0.091548  -0.110276  0  4.002505  0
C  C130  1  0.93574345  0.57925408  0.78449152  1  -0.073404  0  -0.085731  -0.105629  0  3.994991  0
C  C131  1  0.98472671  0.57929721  0.71555167  1  0.010415  0  -0.085881  -0.104091  0  3.993433  0
C  C132  1  0.06425586  0.42074521  0.21550670  1  -0.073512  0  -0.085686  -0.105531  0  3.994995  0
C  C133  1  0.01527041  0.42070208  0.28444672  1  0.010449  0  -0.085937  -0.104156  0  3.993538  0
C  C134  1  0.27548802  0.81563925  0.99274054  1  1.561479  0  0.197159  0.563944  0  4.246806  0
C  C135  1  0.40872406  0.81565937  0.50727560  1  1.573406  0  0.195989  0.56091  0  4.250705  0
C  C136  1  0.72451415  0.18436315  0.00725930  1  1.561489  0  0.197193  0.564084  0  4.246676  0
C  C137  1  0.59127437  0.18434381  0.49272007  1  1.573475  0  0.195952  0.560883  0  4.251094  0
C  C138  1  0.13196066  0.91059936  0.99772536  1  -0.022963  0  -0.022316  -0.036832  0  3.984351  0
C  C139  1  0.45723416  0.91063652  0.50230477  1  -0.035065  0  -0.021387  -0.0345  0  3.984061  0
C  C140  1  0.86804033  0.08940537  0.00227399  1  -0.022935  0  -0.022347  -0.0368  0  3.984466  0
C  C141  1  0.54276101  0.08936666  0.49769313  1  -0.035421  0  -0.021259  -0.034292  0  3.983953  0
C  C142  1  0.01354748  0.91450040  0.96183915  1  -0.074908  0  -0.090027  -0.103455  0  4.008024  0
C  C143  1  0.57199059  0.91443078  0.53808561  1  -0.090666  0  -0.09044  -0.103101  0  4.008469  0
C  C144  1  0.98645650  0.08550278  0.03816150  1  -0.074781  0  -0.090025  -0.103602  0  4.008056  0
C  C145  1  0.42800097  0.08557085  0.46191215  1  -0.090356  0  -0.090431  -0.103128  0  4.008435  0
C  C146  1  0.11694708  0.99671467  0.03606024  1  -0.040728  0  -0.091673  -0.102554  0  3.995066  0
C  C147  1  0.38609237  0.99684423  0.46401966  1  -0.017321  0  -0.092585  -0.104924  0  3.999365  0
C  C148  1  0.88306026  0.00328618  0.96394073  1  -0.040735  0  -0.091691  -0.102698  0  3.995297  0
C  C149  1  0.61390053  0.00316129  0.53597833  1  -0.017322  0  -0.092699  -0.10521  0  3.999594  0
N  N150  1  0.61273047  0.60404247  0.05686432  1  -1.268779  0  -0.34995  -0.268123  0  3.630134  0
N  N151  1  0.28334396  0.60379023  0.44326466  1  -1.27119  0  -0.35081  -0.269372  0  3.629936  0
N  N152  1  0.38726516  0.39595993  0.94313950  1  -1.268949  0  -0.350014  -0.268183  0  3.630068  0
N  N153  1  0.71665794  0.39620829  0.55673388  1  -1.271176  0  -0.350732  -0.26928  0  3.6298  0
N  N154  1  0.66255178  0.84042547  0.06494275  1  -1.262565  0  -0.339816  -0.259784  0  3.552777  0
N  N155  1  0.99694815  0.84019381  0.43513607  1  -1.249477  0  -0.338813  -0.258725  0  3.550195  0
N  N156  1  0.33745413  0.15957382  0.93505642  1  -1.263234  0  -0.339794  -0.259862  0  3.552901  0
N  N157  1  0.00304752  0.15980626  0.56486538  1  -1.249642  0  -0.338814  -0.25877  0  3.550222  0
O  O158  1  0.58183899  0.35394898  0.17551875  1  -1.080951  0  -0.160409  -0.178689  0  2.600034  0
O  O159  1  0.56444862  0.35409672  0.32440256  1  -1.081377  0  -0.160423  -0.179049  0  2.600717  0
O  O160  1  0.41816034  0.64605031  0.82448095  1  -1.080954  0  -0.160446  -0.178763  0  2.600053  0
O  O161  1  0.43555251  0.64590335  0.67559647  1  -1.081604  0  -0.160424  -0.179002  0  2.600642  0
O  O162  1  0.72121941  0.06095053  0.18040873  1  -1.078309  0  -0.164624  -0.185292  0  2.561073  0
O  O163  1  0.71761848  0.06092095  0.31976032  1  -1.071963  0  -0.164388  -0.183935  0  2.556277  0
O  O164  1  0.27878432  0.93904876  0.81959160  1  -1.078295  0  -0.164614  -0.185238  0  2.561106  0
O  O165  1  0.28238195  0.93907834  0.68024028  1  -1.071964  0  -0.164399  -0.183919  0  2.556307  0
O  O166  1  0.68892103  0.75435215  0.91615776  1  -1.167634  0  -0.337409  -0.556256  0  2.321827  0
O  O167  1  0.05757228  0.75432454  0.58396877  1  -1.170141  0  -0.337396  -0.555925  0  2.322389  0
O  O168  1  0.31108044  0.24564948  0.08384315  1  -1.167495  0  -0.337437  -0.556307  0  2.321666  0
O  O169  1  0.94244366  0.24567009  0.41603226  1  -1.169985  0  -0.337473  -0.556019  0  2.322512  0
O  O170  1  0.86751940  0.59618811  0.92805212  1  -1.176485  0  -0.322146  -0.546462  0  2.106887  0
O  O171  1  0.03635945  0.59639733  0.57199130  1  -1.176593  0  -0.322216  -0.546214  0  2.106497  0
O  O172  1  0.13245459  0.40380030  0.07194263  1  -1.176485  0  -0.322274  -0.546635  0  2.106718  0
O  O173  1  0.96362765  0.40360662  0.42800623  1  -1.176542  0  -0.322246  -0.546235  0  2.106603  0
O  O174  1  0.38186209  0.82369592  0.02438471  1  -1.198921  0  -0.346181  -0.583356  0  2.406021  0
O  O175  1  0.29463625  0.82354043  0.47545494  1  -1.195995  0  -0.345642  -0.581317  0  2.405731  0
O  O176  1  0.61813859  0.17630726  0.97561522  1  -1.198848  0  -0.34624  -0.583438  0  2.405967  0
O  O177  1  0.70536078  0.17646119  0.52454189  1  -1.195861  0  -0.345689  -0.581349  0  2.405853  0
O  O178  1  0.28549553  0.73831230  0.96017199  1  -1.174915  0  -0.325087  -0.547847  0  2.152097  0
O  O179  1  0.47585769  0.73842329  0.53998067  1  -1.17877  0  -0.324696  -0.547178  0  2.153614  0
O  O180  1  0.71450534  0.26168621  0.03983206  1  -1.175008  0  -0.325043  -0.54789  0  2.152053  0
O  O181  1  0.52414223  0.26157911  0.46001491  1  -1.178891  0  -0.324634  -0.547149  0  2.15391  0
