# generated using pymatgen
data_CdH7C6N5O6
_symmetry_space_group_name_H-M   'P 1'
_cell_length_a   7.46861061
_cell_length_b   12.58781548
_cell_length_c   12.76663589
_cell_angle_alpha   111.30419424
_cell_angle_beta   90.00000873
_cell_angle_gamma   90.00000544
_symmetry_Int_Tables_number   1
_chemical_formula_structural   CdH7C6N5O6
_chemical_formula_sum   'Cd4 H28 C24 N20 O24'
_cell_volume   1118.21745669
_cell_formula_units_Z   4
loop_
 _symmetry_equiv_pos_site_id
 _symmetry_equiv_pos_as_xyz
  1  'x, y, z'
loop_
 _atom_site_type_symbol
 _atom_site_label
 _atom_site_symmetry_multiplicity
 _atom_site_fract_x
 _atom_site_fract_y
 _atom_site_fract_z
 _atom_site_occupancy
 _atom_site_hle17_bader_spin_density
 _atom_site_hle17_ddec_charge
 _atom_site_hle17_ddec_spin_density
 _atom_site_hle17_ddec_sum_bond_order
 _atom_site_hle17_magmom
 _atom_site_hse06_10hf_bader_spin_density
 _atom_site_hse06_10hf_ddec_charge
 _atom_site_hse06_10hf_ddec_spin_density
 _atom_site_hse06_10hf_ddec_sum_bond_order
 _atom_site_hse06_10hf_magmom
 _atom_site_hse06_bader_spin_density
 _atom_site_hse06_ddec_charge
 _atom_site_hse06_ddec_spin_density
 _atom_site_hse06_ddec_sum_bond_order
 _atom_site_hse06_magmom
 _atom_site_pbe_bader_spin_density
 _atom_site_pbe_cm5_charge
 _atom_site_pbe_ddec_charge
 _atom_site_pbe_ddec_spin_density
 _atom_site_pbe_ddec_sum_bond_order
 _atom_site_pbe_magmom
Cd  Cd0  1  0.19954189  0.66972276  0.29981330  1  0  1.103688  0  1.711257  0  0  0.899769  0  2.164852  0  0  0.95807  0  2.112905  0  0  0.801656  0.857882  0  2.200874  0
Cd  Cd1  1  0.69954124  0.83027711  0.70018702  1  0  1.103675  0  1.711286  0  0  0.899761  0  2.164874  0  0  0.95806  0  2.112929  0  0  0.801663  0.857872  0  2.200895  0
Cd  Cd2  1  0.80045823  0.33027714  0.70018720  1  0  1.103665  0  1.711228  0  0  0.899743  0  2.164823  0  0  0.958048  0  2.112872  0  0  0.801647  0.857855  0  2.200845  0
Cd  Cd3  1  0.30045888  0.16972365  0.29981300  1  0  1.103692  0  1.711227  0  0  0.899764  0  2.164814  0  0  0.958064  0  2.112868  0  0  0.801662  0.857878  0  2.200837  0
H  H4  1  0.18457256  0.42253454  0.31440947  1  0  0.086193  0  0.957176  0  0  0.091327  0  1.025587  0  0  0.093358  0  1.022323  0  0  0.1335  0.089674  0  1.02814  0
H  H5  1  0.68457320  0.07746539  0.68558962  1  0  0.086185  0  0.957183  0  0  0.091322  0  1.025586  0  0  0.093353  0  1.022322  0  0  0.133506  0.089668  0  1.028138  0
H  H6  1  0.81542891  0.57746536  0.68559024  1  0  0.08613  0  0.957205  0  0  0.091338  0  1.025541  0  0  0.093334  0  1.022318  0  0  0.133511  0.089705  0  1.028067  0
H  H7  1  0.31542692  0.92253452  0.31441009  1  0  0.086179  0  0.957191  0  0  0.091315  0  1.025607  0  0  0.093345  0  1.022343  0  0  0.133501  0.089661  0  1.02816  0
H  H8  1  0.68570592  0.29885846  0.35353343  1  0  0.098241  0  0.957967  0  0  0.102451  0  1.027821  0  0  0.105633  0  1.022979  0  0  0.121457  0.099864  0  1.031761  0
H  H9  1  0.18570532  0.20114062  0.64646535  1  0  0.098212  0  0.958014  0  0  0.102422  0  1.027871  0  0  0.105605  0  1.023027  0  0  0.121438  0.099836  0  1.031811  0
H  H10  1  0.31429421  0.70114059  0.64646597  1  0  0.098253  0  0.957969  0  0  0.102462  0  1.027827  0  0  0.105646  0  1.022979  0  0  0.121459  0.099875  0  1.031767  0
H  H11  1  0.81429480  0.79885928  0.35353514  1  0  0.09822  0  0.958014  0  0  0.102431  0  1.027872  0  0  0.105616  0  1.023023  0  0  0.121447  0.099844  0  1.031812  0
H  H12  1  0.83075433  0.47434788  0.34157144  1  0  0.134935  0  0.962264  0  0  0.137711  0  1.029792  0  0  0.14137  0  1.029184  0  0  0.114324  0.134945  0  1.030781  0
H  H13  1  0.33075371  0.02565207  0.65842689  1  0  0.134928  0  0.962267  0  0  0.137715  0  1.02979  0  0  0.141374  0  1.029181  0  0  0.114305  0.134949  0  1.030778  0
H  H14  1  0.16924580  0.52565032  0.65842766  1  0  0.134948  0  0.962191  0  0  0.137697  0  1.029761  0  0  0.141358  0  1.02915  0  0  0.114311  0.134932  0  1.03075  0
H  H15  1  0.66924642  0.97434784  0.34157125  1  0  0.134941  0  0.962253  0  0  0.137715  0  1.02979  0  0  0.141373  0  1.029182  0  0  0.114324  0.134949  0  1.030779  0
H  H16  1  0.62584340  0.62344749  0.31429922  1  0  0.094112  0  0.940617  0  0  0.09819  0  1.012326  0  0  0.100661  0  1.009009  0  0  0.122934  0.096237  0  1.014889  0
H  H17  1  0.12584284  0.87655152  0.68569843  1  0  0.094082  0  0.940659  0  0  0.09816  0  1.01237  0  0  0.100634  0  1.009055  0  0  0.12292  0.096206  0  1.014939  0
H  H18  1  0.37415806  0.37655156  0.68569940  1  0  0.09408  0  0.940662  0  0  0.098152  0  1.012373  0  0  0.100626  0  1.009057  0  0  0.122919  0.096201  0  1.014935  0
H  H19  1  0.87415728  0.12344754  0.31430019  1  0  0.094123  0  0.940631  0  0  0.098193  0  1.012347  0  0  0.10066  0  1.009038  0  0  0.122936  0.096244  0  1.014905  0
H  H20  1  0.71187689  0.63253874  0.99314072  1  0  0.172061  0  0.927557  0  0  0.183643  0  0.991638  0  0  0.186456  0  0.989817  0  0  0.116303  0.181531  0  0.993069  0
H  H21  1  0.21187750  0.86746198  0.00685990  1  0  0.172046  0  0.927562  0  0  0.183638  0  0.991641  0  0  0.186451  0  0.989819  0  0  0.116295  0.181525  0  0.993072  0
H  H22  1  0.28812323  0.36746201  0.00686008  1  0  0.172058  0  0.927549  0  0  0.183648  0  0.991623  0  0  0.186461  0  0.989801  0  0  0.116301  0.181535  0  0.993054  0
H  H23  1  0.78812263  0.13253792  0.99313981  1  0  0.172042  0  0.927567  0  0  0.183638  0  0.99164  0  0  0.186451  0  0.989818  0  0  0.116296  0.181525  0  0.993072  0
H  H24  1  0.62254022  0.77084358  0.00839874  1  0  0.164068  0  0.941443  0  0  0.17476  0  1.008196  0  0  0.177687  0  1.006271  0  0  0.114197  0.172566  0  1.00967  0
H  H25  1  0.12254105  0.72915543  0.99160126  1  0  0.164076  0  0.94139  0  0  0.174769  0  1.008154  0  0  0.177696  0  1.006229  0  0  0.114206  0.172575  0  1.009627  0
H  H26  1  0.37745723  0.22915632  0.99160254  1  0  0.1641  0  0.941341  0  0  0.174774  0  1.008118  0  0  0.177701  0  1.006192  0  0  0.114213  0.17258  0  1.009593  0
H  H27  1  0.87745908  0.27084448  0.00839845  1  0  0.16408  0  0.941381  0  0  0.174771  0  1.008147  0  0  0.177698  0  1.006221  0  0  0.114213  0.172577  0  1.00962  0
H  H28  1  0.52108772  0.64303467  0.91264046  1  0  0.157227  0  0.917427  0  0  0.176427  0  0.969534  0  0  0.177552  0  0.970815  0  0  0.115463  0.175611  0  0.968662  0
H  H29  1  0.02108834  0.85696517  0.08736140  1  0  0.157243  0  0.917428  0  0  0.176448  0  0.969533  0  0  0.177573  0  0.970813  0  0  0.115466  0.175633  0  0.968662  0
H  H30  1  0.47891107  0.35696523  0.08736082  1  0  0.157225  0  0.917444  0  0  0.176425  0  0.96955  0  0  0.17755  0  0.970831  0  0  0.115456  0.17561  0  0.968679  0
H  H31  1  0.97891179  0.14303473  0.91263831  1  0  0.157236  0  0.917418  0  0  0.176441  0  0.969527  0  0  0.177567  0  0.970807  0  0  0.115461  0.175626  0  0.968656  0
C  C32  1  0.32869307  0.43471673  0.32121848  1  0  0.310788  0  3.671016  0  0  0.255845  0  3.930437  0  0  0.272098  0  3.945182  0  0  0.183982  0.245194  0  3.920407  0
C  C33  1  0.82869372  0.06528321  0.67878063  1  0  0.310795  0  3.670867  0  0  0.255876  0  3.930273  0  0  0.272128  0  3.945019  0  0  0.183981  0.245226  0  3.920239  0
C  C34  1  0.67130705  0.56528657  0.67878481  1  0  0.31083  0  3.670984  0  0  0.255838  0  3.930442  0  0  0.272117  0  3.945199  0  0  0.183956  0.245176  0  3.920397  0
C  C35  1  0.17130641  0.93471754  0.32121939  1  0  0.310807  0  3.670877  0  0  0.255865  0  3.93031  0  0  0.272118  0  3.945057  0  0  0.183968  0.245215  0  3.920279  0
C  C36  1  0.60685726  0.36618347  0.34177895  1  0  0.206753  0  3.614244  0  0  0.170393  0  3.861809  0  0  0.183275  0  3.875913  0  0  0.073178  0.162051  0  3.85247  0
C  C37  1  0.10685799  0.13381730  0.65822044  1  0  0.206791  0  3.614204  0  0  0.170433  0  3.861775  0  0  0.183316  0  3.875879  0  0  0.073237  0.16209  0  3.852434  0
C  C38  1  0.39314153  0.63381558  0.65822046  1  0  0.206694  0  3.614109  0  0  0.170346  0  3.861674  0  0  0.183229  0  3.87578  0  0  0.073176  0.162005  0  3.852332  0
C  C39  1  0.89314214  0.86618345  0.34177880  1  0  0.206806  0  3.614156  0  0  0.170452  0  3.861721  0  0  0.183335  0  3.875827  0  0  0.073228  0.16211  0  3.852381  0
C  C40  1  0.68625623  0.46326391  0.33517137  1  0  -0.152826  0  3.651973  0  0  -0.163894  0  3.905092  0  0  -0.176875  0  3.92633  0  0  -0.076521  -0.155899  0  3.891482  0
C  C41  1  0.18625561  0.03673602  0.66482616  1  0  -0.152815  0  3.652026  0  0  -0.163884  0  3.905146  0  0  -0.176866  0  3.926386  0  0  -0.076515  -0.155888  0  3.891533  0
C  C42  1  0.31374389  0.53673429  0.66482773  1  0  -0.152768  0  3.65189  0  0  -0.163822  0  3.905015  0  0  -0.176803  0  3.926255  0  0  -0.076497  -0.155826  0  3.891402  0
C  C43  1  0.81374451  0.96326559  0.33517260  1  0  -0.152832  0  3.652011  0  0  -0.163909  0  3.905136  0  0  -0.176891  0  3.926373  0  0  -0.076532  -0.155915  0  3.891526  0
C  C44  1  0.57413632  0.54528303  0.32112442  1  0  0.195584  0  3.636404  0  0  0.153048  0  3.894968  0  0  0.16545  0  3.911269  0  0  0.071762  0.145037  0  3.884015  0
C  C45  1  0.07413711  0.95471768  0.67887463  1  0  0.195588  0  3.636511  0  0  0.153043  0  3.895087  0  0  0.16544  0  3.911395  0  0  0.071772  0.145029  0  3.884132  0
C  C46  1  0.42586648  0.45471687  0.67887530  1  0  0.195577  0  3.636526  0  0  0.15306  0  3.895063  0  0  0.165457  0  3.911371  0  0  0.071767  0.145046  0  3.88411  0
C  C47  1  0.92586301  0.04528308  0.32112383  1  0  0.195545  0  3.63658  0  0  0.153023  0  3.895123  0  0  0.165425  0  3.911423  0  0  0.071746  0.14501  0  3.884173  0
C  C48  1  0.47137020  0.67722198  0.08134585  1  0  0.490016  0  3.642729  0  0  0.470297  0  3.91866  0  0  0.488188  0  3.930984  0  0  0.239007  0.457779  0  3.910637  0
C  C49  1  0.97136827  0.82277877  0.91865324  1  0  0.489877  0  3.642703  0  0  0.470169  0  3.918649  0  0  0.488058  0  3.930974  0  0  0.238956  0.457652  0  3.910622  0
C  C50  1  0.52863126  0.32277707  0.91865199  1  0  0.489951  0  3.64296  0  0  0.470233  0  3.918889  0  0  0.488122  0  3.931212  0  0  0.23898  0.457715  0  3.910863  0
C  C51  1  0.02863186  0.17722284  0.08134709  1  0  0.489943  0  3.642871  0  0  0.470234  0  3.918804  0  0  0.488124  0  3.931127  0  0  0.238994  0.457717  0  3.910781  0
C  C52  1  0.58948733  0.68135306  0.99390482  1  0  -0.38215  0  3.698873  0  0  -0.44189  0  3.918673  0  0  -0.446394  0  3.921824  0  0  -0.205424  -0.438449  0  3.916679  0
C  C53  1  0.08948793  0.81864764  0.00609657  1  0  -0.382129  0  3.698732  0  0  -0.441898  0  3.918572  0  0  -0.446402  0  3.921722  0  0  -0.205434  -0.438457  0  3.916578  0
C  C54  1  0.41051279  0.31864684  0.00609646  1  0  -0.382166  0  3.69871  0  0  -0.441899  0  3.91853  0  0  -0.446402  0  3.921679  0  0  -0.205431  -0.438457  0  3.916538  0
C  C55  1  0.91051220  0.18135226  0.99390314  1  0  -0.382116  0  3.698699  0  0  -0.44189  0  3.918544  0  0  -0.446394  0  3.921693  0  0  -0.205424  -0.438449  0  3.91655  0
N  N56  1  0.93337313  0.52081971  0.14065469  1  0  0.690444  0  4.15226  0  0  0.740146  0  4.422723  0  0  0.754382  0  4.449807  0  0  0.095367  0.720364  0  4.418339  0
N  N57  1  0.43337263  0.97918189  0.85934549  1  0  0.690486  0  4.152216  0  0  0.740136  0  4.422705  0  0  0.754411  0  4.449757  0  0  0.095358  0.720354  0  4.41832  0
N  N58  1  0.06662566  0.47918105  0.85934533  1  0  0.690444  0  4.152265  0  0  0.740112  0  4.422729  0  0  0.754376  0  4.449789  0  0  0.09534  0.720328  0  4.418346  0
N  N59  1  0.56662750  0.02081801  0.14065423  1  0  0.690496  0  4.152187  0  0  0.740161  0  4.422654  0  0  0.754425  0  4.449709  0  0  0.095365  0.720378  0  4.418274  0
N  N60  1  0.95419366  0.67211018  0.51824080  1  0  0.702994  0  4.116606  0  0  0.745174  0  4.390424  0  0  0.758115  0  4.417361  0  0  0.098227  0.724902  0  4.3867  0
N  N61  1  0.45419438  0.82788972  0.48175877  1  0  0.703067  0  4.116596  0  0  0.745208  0  4.390469  0  0  0.758174  0  4.41738  0  0  0.098219  0.724937  0  4.386746  0
N  N62  1  0.04580513  0.32788973  0.48175891  1  0  0.703092  0  4.11652  0  0  0.745273  0  4.390364  0  0  0.758302  0  4.417188  0  0  0.098234  0.725002  0  4.386644  0
N  N63  1  0.54580575  0.17211104  0.51824125  1  0  0.70302  0  4.116644  0  0  0.745163  0  4.390497  0  0  0.758132  0  4.417407  0  0  0.098191  0.724892  0  4.386774  0
N  N64  1  0.39529181  0.53106599  0.31527283  1  0  -0.367237  0  3.226466  0  0  -0.279916  0  3.484936  0  0  -0.305902  0  3.503404  0  0  -0.32157  -0.262458  0  3.472158  0
N  N65  1  0.89529118  0.96893220  0.68472533  1  0  -0.367213  0  3.22637  0  0  -0.279879  0  3.484825  0  0  -0.305866  0  3.503297  0  0  -0.321535  -0.262421  0  3.472045  0
N  N66  1  0.60470965  0.46893562  0.68472672  1  0  -0.367238  0  3.226455  0  0  -0.279935  0  3.484966  0  0  -0.305918  0  3.503426  0  0  -0.321585  -0.262478  0  3.472192  0
N  N67  1  0.10470760  0.03106685  0.31527407  1  0  -0.367203  0  3.226423  0  0  -0.279877  0  3.48488  0  0  -0.30586  0  3.503347  0  0  -0.321526  -0.262419  0  3.472103  0
N  N68  1  0.42762445  0.35153480  0.33371306  1  0  -0.372332  0  3.194184  0  0  -0.290312  0  3.4569  0  0  -0.315822  0  3.47474  0  0  -0.323163  -0.273222  0  3.444561  0
N  N69  1  0.92762511  0.14846431  0.66628575  1  0  -0.372357  0  3.194064  0  0  -0.290363  0  3.456804  0  0  -0.315874  0  3.474643  0  0  -0.323221  -0.273273  0  3.444463  0
N  N70  1  0.57237567  0.64846681  0.66628648  1  0  -0.372301  0  3.194128  0  0  -0.290296  0  3.456891  0  0  -0.315805  0  3.474719  0  0  -0.323138  -0.273208  0  3.444557  0
N  N71  1  0.07237636  0.85153474  0.33371444  1  0  -0.372376  0  3.194038  0  0  -0.290368  0  3.456772  0  0  -0.31588  0  3.474612  0  0  -0.323207  -0.273278  0  3.444433  0
N  N72  1  0.37290076  0.67407709  0.15048870  1  0  -0.491669  0  2.812387  0  0  -0.441995  0  3.083149  0  0  -0.46353  0  3.090041  0  0  -0.335458  -0.427369  0  3.078744  0
N  N73  1  0.87290149  0.82592364  0.84951116  1  0  -0.491552  0  2.81241  0  0  -0.441884  0  3.08318  0  0  -0.46342  0  3.090079  0  0  -0.335409  -0.427257  0  3.078772  0
N  N74  1  0.62709669  0.32592280  0.84951336  1  0  -0.49161  0  2.812652  0  0  -0.441935  0  3.083408  0  0  -0.463472  0  3.090304  0  0  -0.335435  -0.427309  0  3.079002  0
N  N75  1  0.12709730  0.17407626  0.15048699  1  0  -0.491622  0  2.81259  0  0  -0.44194  0  3.083331  0  0  -0.463475  0  3.090224  0  0  -0.335449  -0.427314  0  3.078927  0
O  O76  1  0.92823162  0.63024395  0.19224535  1  0  -0.511867  0  1.785352  0  0  -0.494743  0  2.01441  0  0  -0.511351  0  2.012838  0  0  -0.217968  -0.479337  0  2.018884  0
O  O77  1  0.42823109  0.86975679  0.80775453  1  0  -0.511887  0  1.785258  0  0  -0.494731  0  2.014314  0  0  -0.511351  0  2.012735  0  0  -0.217956  -0.479325  0  2.018787  0
O  O78  1  0.07176850  0.36975680  0.80775546  1  0  -0.511853  0  1.785317  0  0  -0.494711  0  2.014368  0  0  -0.511331  0  2.012788  0  0  -0.217942  -0.479305  0  2.018842  0
O  O79  1  0.57176769  0.13024311  0.19224597  1  0  -0.511898  0  1.785237  0  0  -0.494763  0  2.014298  0  0  -0.511379  0  2.012716  0  0  -0.217986  -0.479357  0  2.018775  0
O  O80  1  0.06604581  0.46704326  0.15904945  1  0  -0.485929  0  1.767457  0  0  -0.477032  0  1.982048  0  0  -0.489595  0  1.98276  0  0  -0.196073  -0.464525  0  1.985289  0
O  O81  1  0.56604515  0.03295921  0.84095133  1  0  -0.485915  0  1.767434  0  0  -0.477018  0  1.982054  0  0  -0.489594  0  1.982755  0  0  -0.196058  -0.46451  0  1.985293  0
O  O82  1  0.93395566  0.53296005  0.84095227  1  0  -0.48594  0  1.76747  0  0  -0.477035  0  1.982068  0  0  -0.489603  0  1.982767  0  0  -0.196068  -0.464532  0  1.985317  0
O  O83  1  0.43395498  0.96704154  0.15904869  1  0  -0.485948  0  1.767481  0  0  -0.477023  0  1.982069  0  0  -0.489594  0  1.982772  0  0  -0.196052  -0.464515  0  1.98531  0
O  O84  1  0.80901264  0.47149492  0.07599075  1  0  -0.434205  0  1.753465  0  0  -0.436603  0  1.955607  0  0  -0.445243  0  1.958046  0  0  -0.176822  -0.426888  0  1.958095  0
O  O85  1  0.30901074  0.02850587  0.92400866  1  0  -0.434223  0  1.753491  0  0  -0.436619  0  1.95566  0  0  -0.445275  0  1.958089  0  0  -0.176837  -0.426907  0  1.95815  0
O  O86  1  0.19098883  0.52850498  0.92400896  1  0  -0.434195  0  1.753464  0  0  -0.4366  0  1.955624  0  0  -0.445252  0  1.958059  0  0  -0.176826  -0.426886  0  1.958113  0
O  O87  1  0.69098805  0.97149488  0.07599136  1  0  -0.434209  0  1.753499  0  0  -0.436614  0  1.955654  0  0  -0.445265  0  1.958085  0  0  -0.176823  -0.426898  0  1.958142  0
O  O88  1  0.04771447  0.60452217  0.43892528  1  0  -0.474781  0  1.843688  0  0  -0.460218  0  2.084234  0  0  -0.471584  0  2.080431  0  0  -0.191385  -0.447995  0  2.090948  0
O  O89  1  0.54771514  0.89547683  0.56107472  1  0  -0.47476  0  1.84368  0  0  -0.460199  0  2.08426  0  0  -0.471564  0  2.080428  0  0  -0.191347  -0.447976  0  2.090973  0
O  O90  1  0.95228432  0.39547774  0.56107444  1  0  -0.474771  0  1.843622  0  0  -0.460208  0  2.084174  0  0  -0.471604  0  2.080336  0  0  -0.191358  -0.447984  0  2.090889  0
O  O91  1  0.45228633  0.10452307  0.43892500  1  0  -0.474743  0  1.843663  0  0  -0.460173  0  2.084238  0  0  -0.471543  0  2.080413  0  0  -0.191341  -0.447949  0  2.090952  0
O  O92  1  0.82374905  0.72587259  0.49677746  1  0  -0.479482  0  1.808871  0  0  -0.47271  0  2.042835  0  0  -0.485383  0  2.04384  0  0  -0.187859  -0.459497  0  2.046018  0
O  O93  1  0.32375111  0.77412473  0.50322117  1  0  -0.479505  0  1.808901  0  0  -0.472706  0  2.042851  0  0  -0.485387  0  2.043848  0  0  -0.187839  -0.459492  0  2.046033  0
O  O94  1  0.17624840  0.27412561  0.50322085  1  0  -0.479523  0  1.808896  0  0  -0.472744  0  2.042834  0  0  -0.485448  0  2.043806  0  0  -0.187844  -0.459531  0  2.046018  0
O  O95  1  0.67624902  0.22587432  0.49677824  1  0  -0.479518  0  1.808921  0  0  -0.472713  0  2.042881  0  0  -0.485394  0  2.043878  0  0  -0.18784  -0.459499  0  2.046065  0
O  O96  1  0.98911182  0.68593344  0.61919658  1  0  -0.454623  0  1.793727  0  0  -0.439868  0  2.008786  0  0  -0.450612  0  2.009104  0  0  -0.169126  -0.428004  0  2.012526  0
O  O97  1  0.48911251  0.81406646  0.38080221  1  0  -0.454695  0  1.793723  0  0  -0.439915  0  2.00881  0  0  -0.450673  0  2.009118  0  0  -0.16916  -0.428044  0  2.012537  0
O  O98  1  0.01088831  0.31406647  0.38080235  1  0  -0.4547  0  1.793723  0  0  -0.43993  0  2.00879  0  0  -0.450707  0  2.009079  0  0  -0.169159  -0.42806  0  2.01252  0
O  O99  1  0.51088762  0.18593344  0.61919672  1  0  -0.454653  0  1.793735  0  0  -0.439882  0  2.008803  0  0  -0.450641  0  2.009114  0  0  -0.169138  -0.428017  0  2.012545  0
