# generated using pymatgen
data_H8PbC12(BrN)2
_symmetry_space_group_name_H-M   'P 1'
_cell_length_a   8.19617743
_cell_length_b   9.49162982
_cell_length_c   9.49088064
_cell_angle_alpha   67.33809585
_cell_angle_beta   78.65502045
_cell_angle_gamma   78.65690755
_symmetry_Int_Tables_number   1
_chemical_formula_structural   H8PbC12(BrN)2
_chemical_formula_sum   'H16 Pb2 C24 Br4 N4'
_cell_volume   662.03657053
_cell_formula_units_Z   2
loop_
 _symmetry_equiv_pos_site_id
 _symmetry_equiv_pos_as_xyz
  1  'x, y, z'
loop_
 _atom_site_type_symbol
 _atom_site_label
 _atom_site_symmetry_multiplicity
 _atom_site_fract_x
 _atom_site_fract_y
 _atom_site_fract_z
 _atom_site_occupancy
 _atom_site_pbe_bader_spin_density
 _atom_site_pbe_cm5_charge
 _atom_site_pbe_ddec_charge
 _atom_site_pbe_ddec_spin_density
 _atom_site_pbe_ddec_sum_bond_order
 _atom_site_pbe_magmom
H  H0  1  0.93303765  0.33062697  0.99630670  1  0  0.102023  0.074251  0  1.04345  0
H  H1  1  0.56689756  0.00374156  0.66945020  1  0  0.101974  0.074179  0  1.043525  0
H  H2  1  0.06689024  0.66949676  0.00367661  1  0  0.10199  0.074317  0  1.043573  0
H  H3  1  0.43308583  0.99621674  0.33065217  1  0  0.101911  0.074123  0  1.043519  0
H  H4  1  0.80930543  0.60685565  0.87221126  1  0  0.092  0.112178  0  1.047035  0
H  H5  1  0.69067228  0.12779264  0.39315541  1  0  0.091909  0.112016  0  1.046847  0
H  H6  1  0.19067665  0.39324513  0.12773669  1  0  0.091964  0.112124  0  1.04683  0
H  H7  1  0.30939769  0.87213914  0.60684932  1  0  0.091833  0.111787  0  1.047263  0
H  H8  1  0.93241309  0.75828426  0.60435811  1  0  0.106929  0.115647  0  0.986121  0
H  H9  1  0.56763147  0.39562732  0.24170326  1  0  0.106985  0.115731  0  0.985999  0
H  H10  1  0.06755148  0.24174134  0.39558960  1  0  0.106957  0.115733  0  0.986339  0
H  H11  1  0.43250806  0.60424711  0.75829896  1  0  0.107013  0.115812  0  0.986263  0
H  H12  1  0.13290399  0.76290884  0.37021754  1  0  0.08809  0.102709  0  1.057189  0
H  H13  1  0.36711623  0.62975790  0.23705767  1  0  0.088093  0.102712  0  1.057482  0
H  H14  1  0.86707877  0.23705212  0.62971636  1  0  0.08811  0.102666  0  1.057425  0
H  H15  1  0.63291527  0.37020721  0.76296086  1  0  0.088087  0.102622  0  1.057543  0
Pb  Pb16  1  0.24989472  0.05653118  0.94327350  1  0  0.421075  0.745876  0  2.218551  0
Pb  Pb17  1  0.74975706  0.94355815  0.05662015  1  0  0.420956  0.745866  0  2.218323  0
C  C18  1  0.98347099  0.40096660  0.88020076  1  0  0.054792  0.101291  0  3.94219  0
C  C19  1  0.51646157  0.11982826  0.59906750  1  0  0.054294  0.100539  0  3.941613  0
C  C20  1  0.01647863  0.59914576  0.11979475  1  0  0.054385  0.100465  0  3.942142  0
C  C21  1  0.48350261  0.88012961  0.40096888  1  0  0.054918  0.101521  0  3.942928  0
C  C22  1  0.91484678  0.55512755  0.81032442  1  0  -0.08439  -0.119773  0  3.971022  0
C  C23  1  0.58510286  0.18970024  0.44488774  1  0  -0.084172  -0.119463  0  3.970306  0
C  C24  1  0.08508268  0.44493369  0.18963348  1  0  -0.084307  -0.119687  0  3.969883  0
C  C25  1  0.41496671  0.81023757  0.55517267  1  0  -0.084363  -0.119707  0  3.971419  0
C  C26  1  0.98200766  0.63817884  0.66250753  1  0  -0.06007  -0.06052  0  3.906867  0
C  C27  1  0.51801491  0.33752811  0.36182829  1  0  -0.060281  -0.06078  0  3.906967  0
C  C28  1  0.01802839  0.36186360  0.33749161  1  0  -0.060368  -0.060936  0  3.906963  0
C  C29  1  0.48206892  0.66241316  0.63821140  1  0  -0.060222  -0.060705  0  3.907438  0
C  C30  1  0.11598817  0.56619905  0.58457716  1  0  -0.001091  0.043171  0  4.003182  0
C  C31  1  0.38404654  0.41547640  0.43378986  1  0  -0.001113  0.043074  0  4.003301  0
C  C32  1  0.88405962  0.43380902  0.41546809  1  0  -0.001148  0.04296  0  4.002742  0
C  C33  1  0.61605664  0.58452607  0.56622358  1  0  -0.001066  0.043529  0  4.003245  0
C  C34  1  0.18022521  0.41053241  0.66515062  1  0  0.11958  0.120198  0  3.959875  0
C  C35  1  0.31974482  0.33490013  0.58948657  1  0  0.119862  0.120185  0  3.959722  0
C  C36  1  0.81973991  0.58947614  0.33485527  1  0  0.119734  0.120352  0  3.960291  0
C  C37  1  0.68024709  0.66508781  0.41052475  1  0  0.119779  0.1201  0  3.960203  0
C  C38  1  0.18613799  0.64400532  0.42910602  1  0  -0.088076  -0.116836  0  3.979073  0
C  C39  1  0.31388060  0.57088653  0.35594678  1  0  -0.088087  -0.116521  0  3.979403  0
C  C40  1  0.81392734  0.35596691  0.57091220  1  0  -0.087951  -0.116508  0  3.979245  0
C  C41  1  0.68620302  0.42910547  0.64407525  1  0  -0.088221  -0.116885  0  3.979061  0
Br  Br42  1  0.46387505  0.22217316  0.03817229  1  0  -0.243392  -0.490683  0  1.15378  0
Br  Br43  1  0.03644613  0.96165116  0.77780075  1  0  -0.243223  -0.490433  0  1.15397  0
Br  Br44  1  0.53619498  0.77785785  0.96181268  1  0  -0.243213  -0.490521  0  1.154373  0
Br  Br45  1  0.96365583  0.03825264  0.22211022  1  0  -0.243301  -0.490624  0  1.154115  0
N  N46  1  0.11277299  0.33150768  0.81092391  1  0  -0.296906  -0.254637  0  3.480907  0
N  N47  1  0.38712253  0.18912243  0.66852127  1  0  -0.296668  -0.253849  0  3.480682  0
N  N48  1  0.88711860  0.66852708  0.18909946  1  0  -0.296747  -0.254096  0  3.481175  0
N  N49  1  0.61279121  0.81085590  0.33150968  1  0  -0.296867  -0.254569  0  3.482247  0
