# generated using pymatgen
data_TbH10(CO)10
_symmetry_space_group_name_H-M   'P 1'
_cell_length_a   8.94581723
_cell_length_b   9.33293374
_cell_length_c   9.60953655
_cell_angle_alpha   83.81170279
_cell_angle_beta   65.97389492
_cell_angle_gamma   63.40748481
_symmetry_Int_Tables_number   1
_chemical_formula_structural   TbH10(CO)10
_chemical_formula_sum   'Tb2 H20 C20 O20'
_cell_volume   652.54581941
_cell_formula_units_Z   2
loop_
 _symmetry_equiv_pos_site_id
 _symmetry_equiv_pos_as_xyz
  1  'x, y, z'
loop_
 _atom_site_type_symbol
 _atom_site_label
 _atom_site_symmetry_multiplicity
 _atom_site_fract_x
 _atom_site_fract_y
 _atom_site_fract_z
 _atom_site_occupancy
 _atom_site_hle17_bader_spin_density
 _atom_site_hle17_ddec_charge
 _atom_site_hle17_ddec_spin_density
 _atom_site_hle17_ddec_sum_bond_order
 _atom_site_hle17_magmom
 _atom_site_hse06_10hf_bader_spin_density
 _atom_site_hse06_10hf_ddec_charge
 _atom_site_hse06_10hf_ddec_spin_density
 _atom_site_hse06_10hf_ddec_sum_bond_order
 _atom_site_hse06_10hf_magmom
 _atom_site_hse06_bader_spin_density
 _atom_site_hse06_ddec_charge
 _atom_site_hse06_ddec_spin_density
 _atom_site_hse06_ddec_sum_bond_order
 _atom_site_hse06_magmom
 _atom_site_pbe_bader_spin_density
 _atom_site_pbe_cm5_charge
 _atom_site_pbe_ddec_charge
 _atom_site_pbe_ddec_spin_density
 _atom_site_pbe_ddec_sum_bond_order
 _atom_site_pbe_magmom
Tb  Tb0  1  0.24353722  0.50192725  0.54337723  1  0  2.280699  0  1.568725  0  0  2.131733  0  2.028239  0  0  2.257107  0  1.844239  0  0  1.482324  2.095525  0  2.059182  0
Tb  Tb1  1  0.75646046  0.49807368  0.45662391  1  0  2.280698  0  1.568715  0  0  2.131759  0  2.028178  0  0  2.257107  0  1.84423  0  0  1.482317  2.095551  0  2.059121  0
H  H2  1  0.94174278  0.42206832  0.72630731  1  0  0.429771  0  0.877139  0  0  0.399035  0  0.941528  0  0  0.409255  0  0.926834  0  0  0.301283  0.391766  0  0.952201  0
H  H3  1  0.05825611  0.57793022  0.27369257  1  0  0.429782  0  0.877127  0  0  0.399039  0  0.941529  0  0  0.40926  0  0.926833  0  0  0.301263  0.391769  0  0.952203  0
H  H4  1  0.05358878  0.38101723  0.82676855  1  0  0.435626  0  0.853598  0  0  0.411442  0  0.905734  0  0  0.420607  0  0.892482  0  0  0.308245  0.405007  0  0.915207  0
H  H5  1  0.94641012  0.61898131  0.17323133  1  0  0.435638  0  0.853581  0  0  0.411452  0  0.905717  0  0  0.420619  0  0.892463  0  0  0.308248  0.405019  0  0.915189  0
H  H6  1  0.33043457  0.59638335  0.77348509  1  0  0.440924  0  0.862966  0  0  0.409525  0  0.927127  0  0  0.420632  0  0.911184  0  0  0.300727  0.401684  0  0.938628  0
H  H7  1  0.66956192  0.40361515  0.22651884  1  0  0.440938  0  0.862944  0  0  0.40957  0  0.927054  0  0  0.420675  0  0.91111  0  0  0.300753  0.401731  0  0.938549  0
H  H8  1  0.11406322  0.65019021  0.86080143  1  0  0.448064  0  0.836182  0  0  0.421336  0  0.891789  0  0  0.431335  0  0.87717  0  0  0.308443  0.41445  0  0.902024  0
H  H9  1  0.88593446  0.34980832  0.13919996  1  0  0.448108  0  0.836113  0  0  0.421375  0  0.891734  0  0  0.431374  0  0.877116  0  0  0.308467  0.414488  0  0.901973  0
H  H10  1  0.31872046  0.64945761  0.01976259  1  0  0.126527  0  0.934774  0  0  0.133101  0  0.997407  0  0  0.13784  0  0.993746  0  0  0.114565  0.129855  0  0.999436  0
H  H11  1  0.68128151  0.35054452  0.98023887  1  0  0.126505  0  0.934854  0  0  0.133067  0  0.997498  0  0  0.137807  0  0.993836  0  0  0.114563  0.129822  0  0.999526  0
H  H12  1  0.16742363  0.91573649  0.42978445  1  0  0.135245  0  0.940665  0  0  0.140335  0  1.005905  0  0  0.145284  0  1.002314  0  0  0.113447  0.13666  0  1.008787  0
H  H13  1  0.83258316  0.08426091  0.57020835  1  0  0.135214  0  0.940643  0  0  0.140313  0  1.005881  0  0  0.145262  0  1.00229  0  0  0.113436  0.136638  0  1.008764  0
H  H14  1  0.41922720  0.06872611  0.40644760  1  0  0.129121  0  0.942866  0  0  0.133756  0  1.00781  0  0  0.138163  0  1.00482  0  0  0.113034  0.130607  0  1.009724  0
H  H15  1  0.58076987  0.93127362  0.59355390  1  0  0.129128  0  0.942881  0  0  0.133758  0  1.007831  0  0  0.138148  0  1.004862  0  0  0.113024  0.130608  0  1.009744  0
H  H16  1  0.11239101  0.01796447  0.79975793  1  0  0.41602  0  0.771191  0  0  0.400602  0  0.821663  0  0  0.40975  0  0.812525  0  0  0.355715  0.394033  0  0.82836  0
H  H17  1  0.88760606  0.98203285  0.20024381  1  0  0.416055  0  0.771154  0  0  0.400647  0  0.821623  0  0  0.409796  0  0.812482  0  0  0.355732  0.394077  0  0.828324  0
H  H18  1  0.24871630  0.28031998  0.06352669  1  0  0.117099  0  0.941166  0  0  0.123356  0  1.005096  0  0  0.127418  0  1.002343  0  0  0.112412  0.120451  0  1.007076  0
H  H19  1  0.75128075  0.71968216  0.93647353  1  0  0.117105  0  0.941199  0  0  0.123371  0  1.005106  0  0  0.127433  0  1.002353  0  0  0.11242  0.120466  0  1.007086  0
H  H20  1  0.51030280  0.20532513  0.13603005  1  0  0.114592  0  0.979754  0  0  0.118249  0  1.048229  0  0  0.121393  0  1.047323  0  0  0.109567  0.116346  0  1.048071  0
H  H21  1  0.48969609  0.79467582  0.86396959  1  0  0.114608  0  0.979755  0  0  0.118263  0  1.04822  0  0  0.121408  0  1.047312  0  0  0.10957  0.11636  0  1.048063  0
C  C22  1  0.36232431  0.52883570  0.21793478  1  0  0.683906  0  3.893191  0  0  0.640875  0  4.175671  0  0  0.674168  0  4.172892  0  0  0.207137  0.617398  0  4.181754  0
C  C23  1  0.63767464  0.47116761  0.78206981  1  0  0.683972  0  3.893173  0  0  0.640942  0  4.175627  0  0  0.674237  0  4.172844  0  0  0.207222  0.617466  0  4.181706  0
C  C24  1  0.41848050  0.54935943  0.05263908  1  0  -0.140917  0  3.617312  0  0  -0.159798  0  3.869486  0  0  -0.164101  0  3.88152  0  0  -0.069758  -0.155722  0  3.85768  0
C  C25  1  0.58152027  0.45064028  0.94736412  1  0  -0.140872  0  3.617405  0  0  -0.159735  0  3.869574  0  0  -0.164038  0  3.881608  0  0  -0.069753  -0.15566  0  3.857766  0
C  C26  1  0.44468078  0.77534939  0.42407516  1  0  0.72097  0  3.878186  0  0  0.682371  0  4.159943  0  0  0.717665  0  4.156541  0  0  0.21108  0.658586  0  4.166628  0
C  C27  1  0.55532116  0.22465037  0.57592239  1  0  0.720964  0  3.877935  0  0  0.682362  0  4.159699  0  0  0.717655  0  4.156299  0  0  0.21104  0.658574  0  4.166389  0
C  C28  1  0.28900193  0.92506303  0.41865397  1  0  -0.168091  0  3.613305  0  0  -0.188305  0  3.865814  0  0  -0.194145  0  3.877386  0  0  -0.080794  -0.183968  0  3.856877  0
C  C29  1  0.71100120  0.07493435  0.58134128  1  0  -0.167989  0  3.613221  0  0  -0.188206  0  3.865713  0  0  -0.194043  0  3.877279  0  0  -0.080748  -0.183867  0  3.856774  0
C  C30  1  0.29765462  0.06583351  0.40901868  1  0  -0.146545  0  3.632887  0  0  -0.165583  0  3.887173  0  0  -0.168967  0  3.899021  0  0  -0.072149  -0.162689  0  3.877398  0
C  C31  1  0.70234608  0.93416626  0.59097830  1  0  -0.146693  0  3.632984  0  0  -0.165695  0  3.887305  0  0  -0.169081  0  3.899154  0  0  -0.072145  -0.1628  0  3.877529  0
C  C32  1  0.14666477  0.22521130  0.41286722  1  0  0.734263  0  3.868852  0  0  0.695871  0  4.150571  0  0  0.731403  0  4.144118  0  0  0.220203  0.67188  0  4.15819  0
C  C33  1  0.85333413  0.77478964  0.58713346  1  0  0.734584  0  3.868509  0  0  0.696087  0  4.150394  0  0  0.731655  0  4.143877  0  0  0.22027  0.672095  0  4.158016  0
C  C34  1  0.19782202  0.08826829  0.91726923  1  0  0.668647  0  3.782833  0  0  0.612897  0  4.089987  0  0  0.647845  0  4.077693  0  0  0.250733  0.588994  0  4.097921  0
C  C35  1  0.80218115  0.91173146  0.08272889  1  0  0.66858  0  3.783077  0  0  0.612905  0  4.090137  0  0  0.647852  0  4.077845  0  0  0.250714  0.589003  0  4.09807  0
C  C36  1  0.35339829  0.04127908  0.96034297  1  0  -0.066589  0  3.755297  0  0  -0.046072  0  3.989097  0  0  -0.054564  0  4.013595  0  0  -0.00634  -0.039847  0  3.97242  0
C  C37  1  0.64660303  0.95872189  0.03965469  1  0  -0.066411  0  3.755367  0  0  -0.045932  0  3.989164  0  0  -0.054423  0  4.013663  0  0  -0.006264  -0.039708  0  3.972486  0
C  C38  1  0.35928474  0.15828473  0.03530683  1  0  -0.041073  0  3.66956  0  0  -0.066052  0  3.919536  0  0  -0.067249  0  3.940805  0  0  -0.06751  -0.065917  0  3.904536  0
C  C39  1  0.64071782  0.84171622  0.96469244  1  0  -0.041135  0  3.669664  0  0  -0.066103  0  3.919624  0  0  -0.067301  0  3.940893  0  0  -0.067513  -0.065967  0  3.904624  0
C  C40  1  0.50565484  0.11666430  0.07510675  1  0  -0.063171  0  3.693399  0  0  -0.085964  0  3.944592  0  0  -0.088219  0  3.967985  0  0  -0.073879  -0.083914  0  3.926622  0
C  C41  1  0.49435016  0.88333426  0.92489078  1  0  -0.063102  0  3.693318  0  0  -0.085893  0  3.944485  0  0  -0.088148  0  3.967877  0  0  -0.073838  -0.083844  0  3.926515  0
O  O42  1  0.46867801  0.41397239  0.26821052  1  0  -0.686141  0  2.051764  0  0  -0.628164  0  2.279473  0  0  -0.660477  0  2.270342  0  0  -0.342218  -0.610644  0  2.286003  0
O  O43  1  0.53131788  0.58602971  0.73179536  1  0  -0.686181  0  2.051706  0  0  -0.628202  0  2.279438  0  0  -0.660504  0  2.270285  0  0  -0.342236  -0.610681  0  2.285968  0
O  O44  1  0.20301035  0.62747463  0.30981891  1  0  -0.686987  0  2.014329  0  0  -0.632622  0  2.240669  0  0  -0.663937  0  2.230136  0  0  -0.353333  -0.615302  0  2.24765  0
O  O45  1  0.79698365  0.37252872  0.69018132  1  0  -0.68701  0  2.014326  0  0  -0.632649  0  2.240667  0  0  -0.663963  0  2.230132  0  0  -0.353368  -0.615331  0  2.247649  0
O  O46  1  0.41921249  0.65038739  0.47122421  1  0  -0.808188  0  2.119004  0  0  -0.748139  0  2.370316  0  0  -0.791409  0  2.359734  0  0  -0.415749  -0.729547  0  2.375762  0
O  O47  1  0.58078763  0.34961356  0.52877599  1  0  -0.808185  0  2.118885  0  0  -0.748143  0  2.370216  0  0  -0.791412  0  2.359636  0  0  -0.415754  -0.729552  0  2.375665  0
O  O48  1  0.60135468  0.76927359  0.38544990  1  0  -0.696893  0  1.958175  0  0  -0.651419  0  2.195235  0  0  -0.684681  0  2.185458  0  0  -0.36846  -0.633747  0  2.200003  0
O  O49  1  0.39864544  0.23072736  0.61455031  1  0  -0.696914  0  1.95814  0  0  -0.651438  0  2.195204  0  0  -0.684703  0  2.185428  0  0  -0.368445  -0.633764  0  2.199972  0
O  O50  1  0.01312970  0.23532444  0.38793603  1  0  -0.710004  0  1.954304  0  0  -0.665289  0  2.194786  0  0  -0.699233  0  2.181546  0  0  -0.3848  -0.647974  0  2.201359  0
O  O51  1  0.98687041  0.76467410  0.61206338  1  0  -0.710146  0  1.954206  0  0  -0.665395  0  2.194759  0  0  -0.699354  0  2.181495  0  0  -0.38486  -0.64808  0  2.201332  0
O  O52  1  0.15966863  0.34823736  0.44249441  1  0  -0.776623  0  2.105044  0  0  -0.722716  0  2.360556  0  0  -0.76208  0  2.350141  0  0  -0.404551  -0.704603  0  2.367361  0
O  O53  1  0.84032903  0.65176360  0.55750466  1  0  -0.776723  0  2.1049  0  0  -0.722792  0  2.360487  0  0  -0.762169  0  2.350054  0  0  -0.404572  -0.704678  0  2.367292  0
O  O54  1  0.00981299  0.46073490  0.75977228  1  0  -0.885987  0  1.889723  0  0  -0.837801  0  2.07214  0  0  -0.865859  0  2.038691  0  0  -0.636804  -0.824012  0  2.091784  0
O  O55  1  0.99018407  0.53926484  0.24022818  1  0  -0.886007  0  1.889687  0  0  -0.837832  0  2.072134  0  0  -0.865888  0  2.038682  0  0  -0.636792  -0.824044  0  2.091777  0
O  O56  1  0.22754685  0.57602264  0.77946908  1  0  -0.916016  0  1.852302  0  0  -0.867021  0  2.039696  0  0  -0.895707  0  2.002982  0  0  -0.65318  -0.853418  0  2.060974  0
O  O57  1  0.77245146  0.42397467  0.22053323  1  0  -0.916083  0  1.852273  0  0  -0.867116  0  2.039656  0  0  -0.895795  0  2.002946  0  0  -0.653221  -0.853512  0  2.060933  0
O  O58  1  0.05941021  0.21927612  0.95835548  1  0  -0.584215  0  2.005731  0  0  -0.534374  0  2.225692  0  0  -0.554338  0  2.21143  0  0  -0.274785  -0.520312  0  2.235004  0
O  O59  1  0.94059050  0.78072124  0.04164174  1  0  -0.584217  0  2.005749  0  0  -0.534387  0  2.225667  0  0  -0.55435  0  2.211404  0  0  -0.27479  -0.520325  0  2.234978  0
O  O60  1  0.21741072  0.97387911  0.82796867  1  0  -0.50413  0  2.050369  0  0  -0.455253  0  2.25499  0  0  -0.474983  0  2.240079  0  0  -0.304675  -0.441715  0  2.265019  0
O  O61  1  0.78258998  0.02611584  0.17202879  1  0  -0.504115  0  2.050537  0  0  -0.455301  0  2.255163  0  0  -0.475031  0  2.240255  0  0  -0.304667  -0.441764  0  2.265193  0
