# generated using pymatgen
data_CuH18C20N4(OF)4
_symmetry_space_group_name_H-M   'P 1'
_cell_length_a   9.37593105
_cell_length_b   9.64271957
_cell_length_c   11.88748875
_cell_angle_alpha   90.00050595
_cell_angle_beta   97.31127330
_cell_angle_gamma   90.00042418
_symmetry_Int_Tables_number   1
_chemical_formula_structural   CuH18C20N4(OF)4
_chemical_formula_sum   'Cu2 H36 C40 N8 O8 F8'
_cell_volume   1066.00333287
_cell_formula_units_Z   2
loop_
 _symmetry_equiv_pos_site_id
 _symmetry_equiv_pos_as_xyz
  1  'x, y, z'
loop_
 _atom_site_type_symbol
 _atom_site_label
 _atom_site_symmetry_multiplicity
 _atom_site_fract_x
 _atom_site_fract_y
 _atom_site_fract_z
 _atom_site_occupancy
 _atom_site_pbe_bader_charge
 _atom_site_pbe_bader_spin_density
 _atom_site_pbe_cm5_charge
 _atom_site_pbe_ddec_charge
 _atom_site_pbe_ddec_spin_density
 _atom_site_pbe_ddec_sum_bond_order
 _atom_site_pbe_magmom
Cu  Cu0  1  0.75000326  0.60697395  0.24999875  1  1.053741  0.576266  0.760227  0.79087  0.750907  2.228483  0.571
Cu  Cu1  1  0.24999936  0.39300826  0.75000004  1  1.053735  -0.576262  0.760194  0.79077  -0.750902  2.228504  -0.571
H  H2  1  0.95699589  0.30763167  0.23150210  1  0.043896  -0.0003  0.09355  0.143227  -0.000169  1.010234  0.0
H  H3  1  0.54300803  0.30763243  0.26849553  1  0.0439  -0.0003  0.093545  0.143229  -0.000169  1.010233  0.0
H  H4  1  0.04301533  0.69237647  0.76849747  1  0.043804  0.0003  0.093498  0.143173  0.000169  1.01022  0.0
H  H5  1  0.45699143  0.69237570  0.73150803  1  0.043948  0.0003  0.093541  0.143234  0.000169  1.010235  0.0
H  H6  1  0.09455927  0.30548350  0.34879341  1  0.088728  -9.7e-05  0.097235  0.147865  -3.4e-05  1.025047  0.0
H  H7  1  0.40544253  0.30548148  0.15120643  1  0.088552  -9.7e-05  0.097212  0.147832  -3.4e-05  1.025061  0.0
H  H8  1  0.90545090  0.69452774  0.65120775  1  0.089038  9.7e-05  0.097212  0.147865  3.4e-05  1.025054  0.0
H  H9  1  0.59455591  0.69452562  0.84879955  1  0.088836  9.7e-05  0.097186  0.147823  3.4e-05  1.025032  0.0
H  H10  1  0.03716760  0.46545129  0.28270942  1  0.124427  -2.5e-05  0.101812  0.159497  -7e-06  1.013232  0.0
H  H11  1  0.46283558  0.46545144  0.21729001  1  0.124402  -2.5e-05  0.101781  0.159456  -8e-06  1.013299  0.0
H  H12  1  0.96283293  0.53455892  0.71729339  1  0.124404  2.5e-05  0.101814  0.159502  7e-06  1.013265  0.0
H  H13  1  0.53717349  0.53455876  0.78270937  1  0.124397  2.5e-05  0.101814  0.159471  7e-06  1.013303  0.0
H  H14  1  0.61077888  0.51839696  0.47332024  1  0.103745  0.000977  0.114964  0.10914  0.000411  1.030801  0.001
H  H15  1  0.88922901  0.51839138  0.02667675  1  0.103862  0.000978  0.115002  0.10921  0.000411  1.030703  0.001
H  H16  1  0.38922039  0.48161221  0.52666984  1  0.103754  -0.000977  0.115007  0.109219  -0.000411  1.030859  -0.001
H  H17  1  0.11078336  0.48160120  0.97332798  1  0.103713  -0.000977  0.114977  0.109167  -0.00041  1.03085  -0.001
H  H18  1  0.73749327  0.30887533  0.61153761  1  0.174951  0.000923  0.12345  0.140944  0.000466  1.01959  0.001
H  H19  1  0.76250571  0.30886346  0.88845780  1  0.17508  0.000924  0.123459  0.140957  0.000466  1.019435  0.001
H  H20  1  0.26249644  0.69113176  0.38846001  1  0.175118  -0.000923  0.123451  0.140949  -0.000466  1.019565  -0.001
H  H21  1  0.23750447  0.69112186  0.11154421  1  0.174893  -0.000923  0.123439  0.14098  -0.000466  1.019592  -0.001
H  H22  1  0.97969468  0.19537924  0.62066716  1  0.064669  0.000315  0.109952  0.101167  0.000176  1.006155  0.0
H  H23  1  0.52030657  0.19536965  0.87933100  1  0.064659  0.000315  0.10995  0.101129  0.000176  1.006202  0.0
H  H24  1  0.02031668  0.80464756  0.37934169  1  0.06477  -0.000315  0.109982  0.101165  -0.000176  1.006147  0.0
H  H25  1  0.47968738  0.80464678  0.12066280  1  0.064712  -0.000315  0.109988  0.101212  -0.000176  1.006136  0.0
H  H26  1  0.09068432  0.22660416  0.51487884  1  0.104933  5.2e-05  0.108895  0.096769  -6e-06  1.02055  0.0
H  H27  1  0.40931504  0.22659753  0.98511758  1  0.104757  5.2e-05  0.108915  0.096774  -6e-06  1.020621  0.0
H  H28  1  0.90931944  0.77341745  0.48512426  1  0.104829  -5.2e-05  0.108929  0.096792  6e-06  1.02064  0.0
H  H29  1  0.59068111  0.77341786  0.01487978  1  0.104871  -5.2e-05  0.108907  0.096775  6e-06  1.020684  0.0
H  H30  1  0.83676492  0.02236668  0.49614825  1  0.033979  2.7e-05  0.086657  0.08352  3e-05  1.00224  0.0
H  H31  1  0.66323440  0.02236543  0.00385112  1  0.033971  2.7e-05  0.086657  0.083494  3e-05  1.002254  0.0
H  H32  1  0.16325312  0.97764353  0.50387635  1  0.033862  -2.7e-05  0.0867  0.083538  -3e-05  1.002108  0.0
H  H33  1  0.33674858  0.97763545  0.99612738  1  0.033818  -2.7e-05  0.086714  0.083553  -3e-05  1.00224  0.0
H  H34  1  0.93778278  0.05973141  0.38411999  1  0.006591  9e-06  0.089037  0.088378  -4e-06  0.995331  0.0
H  H35  1  0.56221901  0.05973376  0.11587903  1  0.006608  9e-06  0.089039  0.088374  -4e-06  0.995299  0.0
H  H36  1  0.06222875  0.94027153  0.61589981  1  0.006317  -9e-06  0.08904  0.08838  4e-06  0.995217  0.0
H  H37  1  0.43777047  0.94026089  0.88410343  1  0.00635  -9e-06  0.08906  0.088423  4e-06  0.995257  0.0
C  C38  1  0.00112575  0.36336184  0.30885647  1  -0.08614  0.000371  -0.237729  -0.484123  0.000127  3.961353  0.0
C  C39  1  0.49887761  0.36336301  0.19114225  1  -0.085898  0.000371  -0.23766  -0.484035  0.000127  3.961372  0.0
C  C40  1  0.99888227  0.63664629  0.69114450  1  -0.086382  -0.000371  -0.237628  -0.484066  -0.000127  3.96135  0.0
C  C41  1  0.50112399  0.63664408  0.80885982  1  -0.086255  -0.000371  -0.23764  -0.484025  -0.000127  3.961338  0.0
C  C42  1  0.89060279  0.38020205  0.38680146  1  0.974542  0.000945  0.219828  0.343594  0.00168  3.920979  0.002
C  C43  1  0.60939854  0.38020160  0.11319646  1  0.974635  0.000945  0.219735  0.343493  0.00168  3.921083  0.002
C  C44  1  0.10940092  0.61979779  0.61319911  1  0.974603  -0.000944  0.21977  0.343567  -0.001679  3.921234  -0.002
C  C45  1  0.39060519  0.61979305  0.88680496  1  0.974562  -0.000944  0.219782  0.343522  -0.001679  3.921092  -0.002
C  C46  1  0.70327392  0.45443396  0.46388111  1  0.395538  0.000431  -0.010301  -0.036341  0.000748  4.03763  0.001
C  C47  1  0.79672589  0.45442159  0.03611552  1  0.395524  0.000432  -0.010348  -0.036356  0.000749  4.03777  0.001
C  C48  1  0.29672867  0.54556588  0.53611600  1  0.395599  -0.000431  -0.010339  -0.036515  -0.000748  4.037696  -0.001
C  C49  1  0.20327570  0.54555543  0.96388655  1  0.396173  -0.00043  -0.010254  -0.03626  -0.000748  4.037346  -0.001
C  C50  1  0.76514069  0.35099175  0.53252779  1  0.293929  0.003548  -0.001948  -0.102127  0.002458  3.918387  0.003
C  C51  1  0.73486307  0.35098780  0.96747508  1  0.293589  0.003547  -0.002011  -0.102235  0.002458  3.918526  0.003
C  C52  1  0.23485651  0.64901845  0.46746799  1  0.293908  -0.00355  -0.001976  -0.102089  -0.002459  3.918299  -0.003
C  C53  1  0.26514835  0.64900892  0.03253713  1  0.293334  -0.00355  -0.00204  -0.102325  -0.002458  3.918238  -0.003
C  C54  1  0.98164597  0.19636187  0.52866129  1  0.305264  0.001104  -0.059319  -0.071838  0.000882  3.873951  0.001
C  C55  1  0.51835313  0.19635638  0.97133584  1  0.305502  0.001105  -0.059295  -0.071734  0.000882  3.873993  0.001
C  C56  1  0.01836324  0.80365248  0.47134736  1  0.305326  -0.001104  -0.059444  -0.071959  -0.000882  3.874059  -0.001
C  C57  1  0.48163867  0.80364968  0.02865776  1  0.305283  -0.001104  -0.059404  -0.071994  -0.000882  3.874108  -0.001
C  C58  1  0.94393493  0.05407690  0.47710955  1  0.005093  -0.000108  -0.163499  -0.154328  -6e-05  3.922266  0.0
C  C59  1  0.55606466  0.05407611  0.02288922  1  0.005066  -0.000108  -0.163473  -0.154202  -6e-05  3.922239  0.0
C  C60  1  0.05608196  0.94593019  0.52290989  1  0.028569  0.000109  -0.163503  -0.154245  6e-05  3.921868  0.0
C  C61  1  0.44391837  0.94592476  0.97709264  1  0.028639  0.000109  -0.163535  -0.154378  6e-05  3.922236  0.0
C  C62  1  0.92800512  0.77112170  0.14542721  1  1.642579  -0.000645  0.202437  0.588781  0.000866  4.243894  -0.002
C  C63  1  0.57199530  0.77112466  0.35457007  1  1.642749  -0.000646  0.202485  0.588792  0.000866  4.24377  -0.002
C  C64  1  0.07201909  0.22885843  0.85457944  1  1.642519  0.00065  0.20235  0.588741  -0.000864  4.243714  0.002
C  C65  1  0.42797708  0.22886169  0.64541756  1  1.642525  0.00065  0.202363  0.588714  -0.000865  4.243755  0.002
C  C66  1  0.96687228  0.88806458  0.07006234  1  0.132876  0.002004  -0.025766  -0.207233  0.001696  4.041853  0.002
C  C67  1  0.53312267  0.88807119  0.42993192  1  0.131894  0.002007  -0.025772  -0.207149  0.001697  4.04181  0.002
C  C68  1  0.03311854  0.11192488  0.92993706  1  0.133017  -0.002003  -0.025776  -0.207117  -0.001695  4.041657  -0.002
C  C69  1  0.46687236  0.11192346  0.57006198  1  0.132942  -0.002004  -0.025748  -0.207166  -0.001695  4.041879  -0.002
C  C70  1  0.92270949  0.88771666  0.95346594  1  0.485058  0.003435  0.089418  0.145573  0.002345  4.10455  0.002
C  C71  1  0.57727415  0.88771732  0.54653224  1  0.484801  0.003435  0.089348  0.145505  0.002345  4.104751  0.002
C  C72  1  0.07727385  0.11227592  0.04653615  1  0.484157  -0.003434  0.089382  0.145557  -0.002345  4.104729  -0.002
C  C73  1  0.42272302  0.11227837  0.45346185  1  0.484179  -0.003434  0.089345  0.145534  -0.002345  4.104779  -0.002
C  C74  1  0.95505270  0.99729234  0.88482751  1  0.509082  -0.004295  0.091314  0.152382  -0.002843  4.092177  -0.003
C  C75  1  0.54492332  0.99728833  0.61517160  1  0.509474  -0.004294  0.091307  0.152337  -0.002843  4.092387  -0.003
C  C76  1  0.04492959  0.00270543  0.11517616  1  0.509704  0.004295  0.091304  0.152377  0.002843  4.092553  0.003
C  C77  1  0.45507489  0.00271047  0.38482006  1  0.510388  0.004294  0.091407  0.152385  0.002843  4.092638  0.003
N  N78  1  0.78177605  0.47164156  0.37408042  1  -1.187534  0.087873  -0.387967  -0.370676  0.059337  3.624781  0.074
N  N79  1  0.71822929  0.47163893  0.12591684  1  -1.18741  0.087877  -0.387833  -0.370546  0.05934  3.624789  0.074
N  N80  1  0.21822223  0.52835621  0.62591546  1  -1.187423  -0.087877  -0.387921  -0.370548  -0.05934  3.624756  -0.074
N  N81  1  0.28178088  0.52835054  0.87408432  1  -1.187422  -0.08787  -0.387965  -0.370683  -0.059336  3.624832  -0.074
N  N82  1  0.88280472  0.30564371  0.48321768  1  -1.235434  0.003689  -0.239292  0.000393  0.002212  3.709343  0.003
N  N83  1  0.61719702  0.30564019  0.01677890  1  -1.235482  0.003689  -0.239327  0.000315  0.002212  3.709398  0.003
N  N84  1  0.11719686  0.69436131  0.51678354  1  -1.235756  -0.003689  -0.239245  0.000405  -0.002212  3.709574  -0.003
N  N85  1  0.38280776  0.69435447  0.98322094  1  -1.235529  -0.003689  -0.239252  0.000556  -0.002211  3.709258  -0.003
O  O86  1  0.79148480  0.75618972  0.14373013  1  -1.103275  0.091675  -0.317596  -0.520834  0.059913  2.343393  0.082
O  O87  1  0.70851654  0.75619992  0.35626544  1  -1.103225  0.091673  -0.317547  -0.520769  0.059911  2.343066  0.082
O  O88  1  0.20854052  0.24377278  0.85627914  1  -1.103117  -0.091691  -0.31751  -0.520816  -0.059923  2.343408  -0.082
O  O89  1  0.29145798  0.24377814  0.64372154  1  -1.103198  -0.091679  -0.317559  -0.520789  -0.059914  2.343479  -0.082
O  O90  1  0.02469051  0.70182913  0.20130515  1  -1.162103  -0.000109  -0.307117  -0.541646  -0.000429  2.130729  0.0
O  O91  1  0.47531159  0.70182301  0.29870009  1  -1.162044  -0.00011  -0.30715  -0.541644  -0.00043  2.130931  0.0
O  O92  1  0.97534980  0.29817174  0.79870043  1  -1.161853  0.000109  -0.307075  -0.54163  0.000429  2.130406  0.0
O  O93  1  0.52465117  0.29817682  0.70129087  1  -1.161723  0.000109  -0.307066  -0.541594  0.000429  2.130345  0.0
F  F94  1  0.84761651  0.77813500  0.90462623  1  -0.626697  0.000383  -0.077605  -0.102818  0.000175  1.401547  0.0
F  F95  1  0.65235967  0.77813052  0.59536712  1  -0.62652  0.000383  -0.077696  -0.102925  0.000175  1.401643  0.0
F  F96  1  0.15236674  0.22185965  0.09536996  1  -0.626455  -0.000382  -0.07767  -0.102927  -0.000175  1.401638  0.0
F  F97  1  0.34763222  0.22186413  0.40463239  1  -0.626531  -0.000382  -0.077673  -0.102903  -0.000175  1.401622  0.0
F  F98  1  0.91207018  0.98985175  0.77156992  1  -0.627686  -0.000796  -0.080507  -0.10476  -0.000433  1.403037  -0.001
F  F99  1  0.58789399  0.98983892  0.72843059  1  -0.627185  -0.000796  -0.080461  -0.104666  -0.000433  1.402988  -0.001
F  F100  1  0.08790888  0.01015535  0.22843346  1  -0.627739  0.000796  -0.080451  -0.104669  0.000433  1.403123  0.001
F  F101  1  0.41210639  0.01015988  0.27156211  1  -0.627227  0.000796  -0.080471  -0.104663  0.000433  1.403037  0.001
