# generated using pymatgen
data_AlH7C12SNO7
_symmetry_space_group_name_H-M   'P 1'
_cell_length_a   7.05414367
_cell_length_b   12.59514355
_cell_length_c   15.33579829
_cell_angle_alpha   79.45679129
_cell_angle_beta   75.91772236
_cell_angle_gamma   75.62475004
_symmetry_Int_Tables_number   1
_chemical_formula_structural   AlH7C12SNO7
_chemical_formula_sum   'Al2 H14 C24 S2 N2 O14'
_cell_volume   1269.28722736
_cell_formula_units_Z   2
loop_
 _symmetry_equiv_pos_site_id
 _symmetry_equiv_pos_as_xyz
  1  'x, y, z'
loop_
 _atom_site_type_symbol
 _atom_site_label
 _atom_site_symmetry_multiplicity
 _atom_site_fract_x
 _atom_site_fract_y
 _atom_site_fract_z
 _atom_site_occupancy
 _atom_site_pbe_bader_charge
 _atom_site_pbe_bader_spin_density
 _atom_site_pbe_cm5_charge
 _atom_site_pbe_ddec_charge
 _atom_site_pbe_ddec_spin_density
 _atom_site_pbe_ddec_sum_bond_order
 _atom_site_pbe_magmom
Al  Al0  1  0.50213994  0.49305468  0.50113736  1  2.509344  0  0.416623  1.633709  0  2.531125  0
Al  Al1  1  0.00321892  0.49062188  0.50052181  1  2.510215  0  0.406913  1.650831  0  2.523851  0
H  H2  1  0.23435026  0.41080741  0.60863683  1  0.599903  0  0.326571  0.405938  0  0.901649  0
H  H3  1  0.77752288  0.56428816  0.39069006  1  0.636268  0  0.322278  0.401242  0  0.913736  0
H  H4  1  0.84380875  0.48594161  0.93423220  1  0.091385  0  0.1117  0.117825  0  1.004077  0
H  H5  1  0.17954658  0.47914006  0.06437344  1  0.072278  0  0.112399  0.11815  0  1.006741  0
H  H6  1  0.67638775  0.52197383  0.22757550  1  0.16019  0  0.108115  0.106016  0  1.08599  0
H  H7  1  0.75330536  0.54723959  0.05987047  1  0.058737  0  0.102043  0.099307  0  1.00995  0
H  H8  1  0.29567099  0.56258166  0.76625822  1  0.201783  0  0.110422  0.112692  0  1.069881  0
H  H9  1  0.21207304  0.56721717  0.93243764  1  0.072682  0  0.103444  0.102  0  1.006014  0
H  H10  1  0.50785386  0.76952503  0.49952054  1  0.117267  0  0.101936  0.160595  0  1.010857  0
H  H11  1  0.46176872  0.88644442  0.55793099  1  0.065643  0  0.088291  0.124743  0  1.01413  0
H  H12  1  0.51659550  0.90273136  0.43796164  1  0.039129  0  0.089452  0.126068  0  1.009829  0
H  H13  1  0.47922037  0.08256054  0.56710007  1  0.068055  0  0.089028  0.125247  0  1.010924  0
H  H14  1  0.53428001  0.09698727  0.44717287  1  0.042643  0  0.088566  0.12512  0  1.013894  0
H  H15  1  0.49038881  0.21489019  0.50413295  1  0.115702  0  0.102629  0.160812  0  1.007268  0
C  C16  1  0.83072100  0.29611248  0.51281052  1  1.584385  0  0.258831  0.6625  0  4.117828  0
C  C17  1  0.65984807  0.51485175  0.65713210  1  1.619447  0  0.276294  0.657702  0  4.073034  0
C  C18  1  0.17004371  0.68743542  0.49011924  1  1.577969  0  0.259157  0.664285  0  4.114735  0
C  C19  1  0.34227155  0.48193948  0.34230843  1  1.580471  0  0.273415  0.654588  0  4.076565  0
C  C20  1  0.61155164  0.52577908  0.75608972  1  0.025458  0  0.000288  -0.079415  0  3.922954  0
C  C21  1  0.38619371  0.49169540  0.24096341  1  0.061234  0  -0.001093  -0.082534  0  3.924716  0
C  C22  1  0.76062049  0.51049925  0.80575456  1  0.160114  0  0.090484  0.071559  0  3.959407  0
C  C23  1  0.71973618  0.50502087  0.89937929  1  0.047755  0  -0.081055  -0.186709  0  3.945125  0
C  C24  1  0.24817183  0.48400147  0.19182095  1  0.120827  0  0.089588  0.070137  0  3.964082  0
C  C25  1  0.29047459  0.49111886  0.09803254  1  0.084597  0  -0.081189  -0.186393  0  3.947923  0
C  C26  1  0.56965507  0.51286097  0.19036466  1  0.007215  0  -0.071495  -0.054151  0  3.952087  0
C  C27  1  0.61213442  0.52533910  0.09624540  1  -0.033204  0  -0.082528  -0.122652  0  3.949263  0
C  C28  1  0.41350790  0.54627887  0.80449706  1  0.01133  0  -0.07268  -0.057645  0  3.946622  0
C  C29  1  0.36848489  0.54670523  0.89784559  1  -0.10947  0  -0.083978  -0.127129  0  3.946949  0
C  C30  1  0.52052506  0.52188974  0.94785973  1  -0.004777  0  0.006224  0.096148  0  3.982286  0
C  C31  1  0.47495986  0.51290255  0.04781931  1  -0.003396  0  0.005519  0.091484  0  3.985923  0
C  C32  1  0.22217105  0.88132030  0.49888039  1  0.062787  0  -0.004401  0.158173  0  3.982907  0
C  C33  1  0.77465992  0.10198738  0.50575730  1  0.105892  0  -0.004847  0.155969  0  3.98549  0
C  C34  1  0.10956954  0.80659100  0.49510520  1  -0.198512  0  -0.026857  -0.206667  0  3.939763  0
C  C35  1  0.88788535  0.17662264  0.50909076  1  -0.214856  0  -0.026451  -0.205464  0  3.942181  0
C  C36  1  0.89779913  0.99442835  0.50208784  1  -0.178173  0  -0.025449  -0.084212  0  4.075871  0
C  C37  1  0.09858987  0.98865350  0.50269806  1  -0.191695  0  -0.028135  -0.08757  0  4.084328  0
C  C38  1  0.43869319  0.85732025  0.49874009  1  -0.081256  0  -0.246184  -0.417972  0  3.998979  0
C  C39  1  0.55809183  0.12680064  0.50587517  1  -0.09762  0  -0.245666  -0.415435  0  3.996309  0
S  S40  1  0.85944586  0.86626422  0.49672064  1  0.278212  0  0.094155  0.136617  0  2.979867  0
S  S41  1  0.13790741  0.11662468  0.50747902  1  0.26023  0  0.094689  0.137792  0  2.989733  0
N  N42  1  0.97208485  0.50409962  0.75983076  1  0.406417  0  0.063373  0.517163  0  4.228778  0
N  N43  1  0.04310124  0.47332703  0.23769656  1  0.409845  0  0.065136  0.522455  0  4.218478  0
O  O44  1  0.64692049  0.34414957  0.51675213  1  -1.25923  0  -0.234267  -0.588866  0  2.344809  0
O  O45  1  0.84395511  0.50448786  0.61908169  1  -1.254518  0  -0.22578  -0.59226  0  2.404814  0
O  O46  1  0.02984668  0.64024310  0.48789568  1  -1.260476  0  -0.243622  -0.606925  0  2.347949  0
O  O47  1  0.48545447  0.48172395  0.37905101  1  -1.240818  0  -0.220285  -0.565356  0  2.3299  0
O  O48  1  0.35420397  0.64123879  0.48693497  1  -1.258292  0  -0.23455  -0.587123  0  2.355112  0
O  O49  1  0.16361709  0.47585616  0.38172418  1  -1.253434  0  -0.225847  -0.589038  0  2.39198  0
O  O50  1  0.97457127  0.34173545  0.51279555  1  -1.261077  0  -0.24186  -0.605583  0  2.35503  0
O  O51  1  0.51601368  0.51340231  0.62150228  1  -1.239259  0  -0.221573  -0.566561  0  2.330874  0
O  O52  1  0.25019374  0.44548679  0.54591813  1  -1.406791  0  -0.456866  -0.975897  0  2.080125  0
O  O53  1  0.75619334  0.53772103  0.45533111  1  -1.444429  0  -0.457369  -0.977095  0  2.079813  0
O  O54  1  0.01995119  0.59406650  0.73086131  1  -0.439435  0  -0.093962  -0.283677  0  1.934527  0
O  O55  1  0.08668565  0.41207269  0.75801586  1  -0.447874  0  -0.114518  -0.316588  0  1.89211  0
O  O56  1  0.92295146  0.56209991  0.25256146  1  -0.468279  0  -0.107193  -0.313217  0  1.953413  0
O  O57  1  0.00247664  0.38127811  0.25300453  1  -0.418536  0  -0.097862  -0.284733  0  1.875761  0
