# generated using pymatgen
data_NaH10C4N5O4
_symmetry_space_group_name_H-M   'P 1'
_cell_length_a   8.32581320
_cell_length_b   9.49334680
_cell_length_c   10.80592459
_cell_angle_alpha   90.94694170
_cell_angle_beta   89.99999815
_cell_angle_gamma   90.00005806
_symmetry_Int_Tables_number   1
_chemical_formula_structural   NaH10C4N5O4
_chemical_formula_sum   'Na4 H40 C16 N20 O16'
_cell_volume   853.98181971
_cell_formula_units_Z   4
loop_
 _symmetry_equiv_pos_site_id
 _symmetry_equiv_pos_as_xyz
  1  'x, y, z'
loop_
 _atom_site_type_symbol
 _atom_site_label
 _atom_site_symmetry_multiplicity
 _atom_site_fract_x
 _atom_site_fract_y
 _atom_site_fract_z
 _atom_site_occupancy
 _atom_site_hle17_bader_spin_density
 _atom_site_hle17_ddec_charge
 _atom_site_hle17_ddec_spin_density
 _atom_site_hle17_ddec_sum_bond_order
 _atom_site_hle17_magmom
 _atom_site_hse06_10hf_bader_spin_density
 _atom_site_hse06_10hf_ddec_charge
 _atom_site_hse06_10hf_ddec_spin_density
 _atom_site_hse06_10hf_ddec_sum_bond_order
 _atom_site_hse06_10hf_magmom
 _atom_site_hse06_bader_spin_density
 _atom_site_hse06_ddec_charge
 _atom_site_hse06_ddec_spin_density
 _atom_site_hse06_ddec_sum_bond_order
 _atom_site_hse06_magmom
 _atom_site_pbe_bader_spin_density
 _atom_site_pbe_cm5_charge
 _atom_site_pbe_ddec_charge
 _atom_site_pbe_ddec_spin_density
 _atom_site_pbe_ddec_sum_bond_order
 _atom_site_pbe_magmom
Na  Na0  1  0.54476652  0.91356517  0.64078472  1  0  0.894954  0  0.38814  0  0  0.846766  0  0.547149  0  0  0.856077  0  0.526986  0  0  0.666006  0.839481  0  0.562485  0
Na  Na1  1  0.04476683  0.08643512  0.85921586  1  0  0.894961  0  0.388139  0  0  0.846778  0  0.547137  0  0  0.856093  0  0.526973  0  0  0.666012  0.839496  0  0.562473  0
Na  Na2  1  0.45523365  0.08643364  0.35921501  1  0  0.894961  0  0.388142  0  0  0.846779  0  0.547158  0  0  0.856085  0  0.526993  0  0  0.666017  0.83949  0  0.562491  0
Na  Na3  1  0.95523454  0.91356580  0.14078484  1  0  0.894959  0  0.388138  0  0  0.846789  0  0.547138  0  0  0.856092  0  0.526973  0  0  0.666018  0.839499  0  0.562471  0
H  H4  1  0.24214498  0.83176290  0.75532330  1  0  0.411804  0  0.897444  0  0  0.382006  0  0.961535  0  0  0.391865  0  0.946974  0  0  0.286773  0.37362  0  0.973904  0
H  H5  1  0.74214500  0.16823757  0.74467635  1  0  0.411935  0  0.897263  0  0  0.382118  0  0.96139  0  0  0.391979  0  0.946825  0  0  0.286819  0.373729  0  0.973763  0
H  H6  1  0.75785519  0.16823802  0.24467647  1  0  0.411912  0  0.897297  0  0  0.382093  0  0.961426  0  0  0.391954  0  0.946862  0  0  0.286808  0.373704  0  0.9738  0
H  H7  1  0.25785517  0.83176229  0.25532340  1  0  0.411935  0  0.897272  0  0  0.382115  0  0.961403  0  0  0.391975  0  0.94684  0  0  0.286819  0.373726  0  0.973777  0
H  H8  1  0.35813843  0.78964344  0.86130043  1  0  0.389433  0  0.925473  0  0  0.355516  0  0.99607  0  0  0.365138  0  0.982069  0  0  0.279819  0.348498  0  1.006473  0
H  H9  1  0.85813851  0.21035713  0.63869923  1  0  0.38941  0  0.925511  0  0  0.355494  0  0.996105  0  0  0.365118  0  0.982101  0  0  0.279806  0.348475  0  1.006508  0
H  H10  1  0.64186174  0.21035642  0.13869933  1  0  0.38943  0  0.925481  0  0  0.355511  0  0.99608  0  0  0.365132  0  0.98208  0  0  0.279816  0.34849  0  1.006485  0
H  H11  1  0.14186167  0.78964380  0.36129963  1  0  0.389454  0  0.92545  0  0  0.355527  0  0.996061  0  0  0.36515  0  0.982059  0  0  0.279817  0.348508  0  1.006465  0
H  H12  1  0.23278980  0.92683294  0.53251805  1  0  0.401533  0  0.905745  0  0  0.368334  0  0.97443  0  0  0.378384  0  0.959635  0  0  0.28959  0.361067  0  0.985266  0
H  H13  1  0.73278970  0.07316646  0.96748251  1  0  0.401565  0  0.905704  0  0  0.368371  0  0.974381  0  0  0.378419  0  0.959588  0  0  0.289623  0.361104  0  0.985216  0
H  H14  1  0.76721037  0.07316691  0.46748263  1  0  0.401556  0  0.905716  0  0  0.368367  0  0.974387  0  0  0.378416  0  0.959592  0  0  0.289616  0.3611  0  0.985221  0
H  H15  1  0.26721047  0.92683235  0.03251815  1  0  0.401554  0  0.905718  0  0  0.368363  0  0.974392  0  0  0.378413  0  0.959597  0  0  0.289613  0.361097  0  0.985226  0
H  H16  1  0.27325141  0.06833202  0.60770554  1  0  0.413603  0  0.894149  0  0  0.382627  0  0.958832  0  0  0.394003  0  0.942006  0  0  0.286798  0.374831  0  0.970387  0
H  H17  1  0.77325111  0.93166953  0.89229506  1  0  0.413588  0  0.894172  0  0  0.382611  0  0.958859  0  0  0.393986  0  0.942033  0  0  0.286798  0.374813  0  0.970417  0
H  H18  1  0.72674996  0.93166890  0.39229516  1  0  0.413588  0  0.894171  0  0  0.382609  0  0.958861  0  0  0.393984  0  0.942035  0  0  0.286799  0.374811  0  0.970418  0
H  H19  1  0.22674906  0.06833138  0.10770564  1  0  0.413584  0  0.894179  0  0  0.382604  0  0.958869  0  0  0.393981  0  0.942041  0  0  0.286789  0.374807  0  0.970425  0
H  H20  1  0.97870705  0.45384346  0.75250454  1  0  0.334672  0  0.918883  0  0  0.31011  0  0.994554  0  0  0.317741  0  0.988262  0  0  0.299249  0.304532  0  0.999294  0
H  H21  1  0.47870909  0.54615721  0.74749696  1  0  0.334721  0  0.918863  0  0  0.310152  0  0.994538  0  0  0.317782  0  0.988246  0  0  0.299279  0.304574  0  0.999277  0
H  H22  1  0.02129433  0.54615746  0.24749616  1  0  0.334695  0  0.918841  0  0  0.310133  0  0.994506  0  0  0.317762  0  0.988216  0  0  0.299281  0.304556  0  0.999244  0
H  H23  1  0.52129348  0.45384265  0.25250372  1  0  0.33468  0  0.918895  0  0  0.310114  0  0.994568  0  0  0.317744  0  0.988277  0  0  0.299261  0.304536  0  0.999306  0
H  H24  1  0.14551270  0.34544020  0.72373669  1  0  0.340725  0  0.929921  0  0  0.32034  0  0.996206  0  0  0.328572  0  0.9894  0  0  0.300951  0.31392  0  1.002408  0
H  H25  1  0.64551328  0.65455807  0.77626385  1  0  0.340718  0  0.929959  0  0  0.320336  0  0.996236  0  0  0.328567  0  0.989431  0  0  0.300961  0.313916  0  1.002438  0
H  H26  1  0.85448868  0.65455966  0.27626307  1  0  0.340729  0  0.92991  0  0  0.320353  0  0.996177  0  0  0.328584  0  0.989371  0  0  0.300965  0.313933  0  1.002379  0
H  H27  1  0.35448929  0.34543968  0.22373771  1  0  0.340739  0  0.929898  0  0  0.320359  0  0.996174  0  0  0.32859  0  0.989368  0  0  0.300972  0.313939  0  1.002377  0
H  H28  1  0.54981211  0.61813726  0.46266602  1  0  0.314381  0  0.944537  0  0  0.292228  0  1.021457  0  0  0.299549  0  1.01549  0  0  0.286186  0.287227  0  1.025272  0
H  H29  1  0.04981277  0.38186182  0.03733291  1  0  0.314383  0  0.94454  0  0  0.292237  0  1.021451  0  0  0.299557  0  1.015484  0  0  0.286186  0.287236  0  1.025265  0
H  H30  1  0.45018206  0.38186260  0.53733374  1  0  0.314314  0  0.944564  0  0  0.292169  0  1.021486  0  0  0.299487  0  1.015521  0  0  0.286166  0.287167  0  1.0253  0
H  H31  1  0.95018260  0.61813700  0.96266590  1  0  0.314303  0  0.944598  0  0  0.292155  0  1.02152  0  0  0.299474  0  1.015553  0  0  0.286152  0.287154  0  1.025334  0
H  H32  1  0.45978976  0.76812413  0.41686263  1  0  0.315323  0  0.944851  0  0  0.301759  0  1.003906  0  0  0.308631  0  0.998881  0  0  0.300114  0.296657  0  1.007613  0
H  H33  1  0.95978866  0.23187637  0.08313632  1  0  0.315321  0  0.944856  0  0  0.301752  0  1.003922  0  0  0.308626  0  0.998895  0  0  0.300099  0.296652  0  1.007626  0
H  H34  1  0.54021282  0.23187892  0.58313349  1  0  0.315158  0  0.945007  0  0  0.301601  0  1.00407  0  0  0.308478  0  0.999035  0  0  0.300036  0.296502  0  1.007769  0
H  H35  1  0.04021271  0.76812137  0.91686617  1  0  0.315164  0  0.945009  0  0  0.301601  0  1.004078  0  0  0.308477  0  0.999045  0  0  0.300035  0.2965  0  1.007782  0
H  H36  1  0.83963604  0.60765807  0.62185448  1  0  0.110018  0  0.926568  0  0  0.120643  0  0.993439  0  0  0.122369  0  0.992943  0  0  0.122757  0.120005  0  0.992894  0
H  H37  1  0.33963550  0.39234458  0.87814707  1  0  0.10997  0  0.926543  0  0  0.120653  0  0.993357  0  0  0.12238  0  0.992858  0  0  0.122766  0.120007  0  0.992808  0
H  H38  1  0.16036293  0.39234284  0.37814623  1  0  0.109966  0  0.926594  0  0  0.120651  0  0.99341  0  0  0.122378  0  0.99291  0  0  0.122759  0.120014  0  0.992865  0
H  H39  1  0.66036347  0.60765738  0.12185458  1  0  0.109988  0  0.926536  0  0  0.120666  0  0.993355  0  0  0.122394  0  0.992857  0  0  0.122779  0.120034  0  0.992814  0
H  H40  1  0.87802637  0.75173274  0.52452141  1  0  0.128629  0  0.9069  0  0  0.143498  0  0.964795  0  0  0.146394  0  0.962336  0  0  0.133222  0.141763  0  0.965535  0
H  H41  1  0.37802686  0.24826785  0.97547824  1  0  0.128603  0  0.906921  0  0  0.143469  0  0.964835  0  0  0.146366  0  0.962373  0  0  0.133219  0.141726  0  0.965571  0
H  H42  1  0.12197380  0.24826818  0.47547837  1  0  0.12863  0  0.906878  0  0  0.143505  0  0.964781  0  0  0.146401  0  0.962321  0  0  0.133222  0.14177  0  0.965521  0
H  H43  1  0.62197451  0.75173202  0.02452151  1  0  0.128631  0  0.9069  0  0  0.143508  0  0.964801  0  0  0.146404  0  0.962342  0  0  0.13323  0.141778  0  0.965544  0
C  C44  1  0.15477316  0.53461356  0.63632632  1  0  0.565914  0  3.85491  0  0  0.500656  0  4.155976  0  0  0.527411  0  4.161595  0  0  0.336878  0.482205  0  4.152392  0
C  C45  1  0.65477473  0.46538471  0.86367514  1  0  0.565988  0  3.854808  0  0  0.500701  0  4.155872  0  0  0.527461  0  4.161487  0  0  0.336844  0.48225  0  4.152292  0
C  C46  1  0.84522581  0.46538631  0.36367343  1  0  0.566057  0  3.854837  0  0  0.500768  0  4.15589  0  0  0.527526  0  4.161506  0  0  0.336927  0.482316  0  4.152306  0
C  C47  1  0.34522544  0.53461408  0.13632644  1  0  0.566082  0  3.854772  0  0  0.500794  0  4.155833  0  0  0.527551  0  4.161446  0  0  0.336949  0.482343  0  4.152251  0
C  C48  1  0.32581839  0.65242547  0.53214969  1  0  0.58313  0  3.8789  0  0  0.533027  0  4.172115  0  0  0.557509  0  4.178031  0  0  0.315899  0.517567  0  4.166693  0
C  C49  1  0.82581741  0.34757403  0.96784994  1  0  0.583021  0  3.879047  0  0  0.532893  0  4.172323  0  0  0.557358  0  4.178265  0  0  0.315844  0.517432  0  4.166901  0
C  C50  1  0.67417938  0.34757652  0.46784825  1  0  0.582988  0  3.878905  0  0  0.532958  0  4.172062  0  0  0.557426  0  4.178  0  0  0.315811  0.517497  0  4.166639  0
C  C51  1  0.17417916  0.65242267  0.03215160  1  0  0.582978  0  3.879015  0  0  0.532949  0  4.17217  0  0  0.557412  0  4.178114  0  0  0.315827  0.517489  0  4.166749  0
C  C52  1  0.91968112  0.69812956  0.60809723  1  0  -0.167279  0  3.655858  0  0  -0.230623  0  3.91435  0  0  -0.230531  0  3.920166  0  0  -0.046966  -0.229565  0  3.907634  0
C  C53  1  0.41968048  0.30187212  0.89190338  1  0  -0.167158  0  3.655845  0  0  -0.230557  0  3.914318  0  0  -0.230457  0  3.920127  0  0  -0.046939  -0.229456  0  3.907547  0
C  C54  1  0.08031905  0.30187136  0.39190255  1  0  -0.167174  0  3.655804  0  0  -0.230609  0  3.914301  0  0  -0.23051  0  3.92011  0  0  -0.046952  -0.229568  0  3.907615  0
C  C55  1  0.58031849  0.69812880  0.10809640  1  0  -0.167182  0  3.655757  0  0  -0.230601  0  3.914275  0  0  -0.230513  0  3.920092  0  0  -0.046968  -0.22957  0  3.907587  0
C  C56  1  0.90351219  0.80231479  0.71756894  1  0  0.700861  0  3.850545  0  0  0.648401  0  4.159288  0  0  0.680225  0  4.151404  0  0  0.22184  0.626737  0  4.163452  0
C  C57  1  0.40351143  0.19768687  0.78243259  1  0  0.700811  0  3.850659  0  0  0.648346  0  4.159418  0  0  0.680166  0  4.151536  0  0  0.221794  0.626669  0  4.163582  0
C  C58  1  0.09648798  0.19768612  0.28243176  1  0  0.700815  0  3.85058  0  0  0.648374  0  4.159315  0  0  0.680194  0  4.151432  0  0  0.221817  0.626711  0  4.163478  0
C  C59  1  0.59648754  0.80231511  0.21756721  1  0  0.700841  0  3.850694  0  0  0.648373  0  4.159465  0  0  0.680199  0  4.151582  0  0  0.221811  0.626715  0  4.163634  0
N  N60  1  0.08024718  0.64809994  0.58787468  1  0  -0.056814  0  3.547726  0  0  0.018901  0  3.785155  0  0  0.004331  0  3.809559  0  0  -0.170391  0.027838  0  3.768848  0
N  N61  1  0.58024741  0.35190037  0.91212683  1  0  -0.057004  0  3.54787  0  0  0.018796  0  3.78525  0  0  0.004219  0  3.809654  0  0  -0.170446  0.027721  0  3.768936  0
N  N62  1  0.91975179  0.35190203  0.41212604  1  0  -0.056938  0  3.547713  0  0  0.018891  0  3.785083  0  0  0.004316  0  3.809485  0  0  -0.170402  0.02783  0  3.768775  0
N  N63  1  0.41975156  0.64809843  0.08787383  1  0  -0.05696  0  3.547729  0  0  0.018859  0  3.785109  0  0  0.004287  0  3.80951  0  0  -0.170419  0.027805  0  3.768809  0
N  N64  1  0.19048030  0.72709829  0.52116852  1  0  -0.463244  0  2.924612  0  0  -0.418567  0  3.174902  0  0  -0.433891  0  3.184317  0  0  -0.255074  -0.407713  0  3.168234  0
N  N65  1  0.69048164  0.27290107  0.97883204  1  0  -0.463015  0  2.92461  0  0  -0.4184  0  3.174942  0  0  -0.433713  0  3.184364  0  0  -0.255005  -0.407546  0  3.168277  0
N  N66  1  0.80951507  0.27290473  0.47883130  1  0  -0.463041  0  2.924608  0  0  -0.418509  0  3.174957  0  0  -0.433822  0  3.184372  0  0  -0.255037  -0.407653  0  3.168285  0
N  N67  1  0.30951493  0.72709562  0.02116950  1  0  -0.463025  0  2.924601  0  0  -0.418495  0  3.174956  0  0  -0.433806  0  3.184373  0  0  -0.255041  -0.407639  0  3.168284  0
N  N68  1  0.31065583  0.53290011  0.60028716  1  0  -0.62737  0  2.936621  0  0  -0.568526  0  3.198204  0  0  -0.58933  0  3.201999  0  0  -0.358642  -0.55587  0  3.196384  0
N  N69  1  0.81065500  0.46709936  0.89971340  1  0  -0.627367  0  2.936633  0  0  -0.568508  0  3.198241  0  0  -0.589308  0  3.202041  0  0  -0.35864  -0.555853  0  3.196423  0
N  N70  1  0.68934434  0.46710188  0.39971079  1  0  -0.62742  0  2.93656  0  0  -0.568548  0  3.198091  0  0  -0.58935  0  3.201893  0  0  -0.358615  -0.555893  0  3.196272  0
N  N71  1  0.18934397  0.53289838  0.10028817  1  0  -0.627415  0  2.936627  0  0  -0.568551  0  3.198167  0  0  -0.589351  0  3.201968  0  0  -0.35862  -0.555896  0  3.196349  0
N  N72  1  0.08473190  0.43725301  0.70692879  1  0  -0.697231  0  3.114487  0  0  -0.661316  0  3.369447  0  0  -0.681074  0  3.362968  0  0  -0.581876  -0.647864  0  3.37543  0
N  N73  1  0.58473118  0.56274733  0.79306994  1  0  -0.697332  0  3.114411  0  0  -0.661403  0  3.369378  0  0  -0.681163  0  3.3629  0  0  -0.581924  -0.647952  0  3.375364  0
N  N74  1  0.91527187  0.56274898  0.29306916  1  0  -0.697335  0  3.114413  0  0  -0.661433  0  3.369399  0  0  -0.68119  0  3.36292  0  0  -0.581975  -0.647983  0  3.375385  0
N  N75  1  0.41527140  0.43725148  0.20692979  1  0  -0.697354  0  3.11437  0  0  -0.661445  0  3.369355  0  0  -0.681202  0  3.362874  0  0  -0.581968  -0.647993  0  3.37534  0
N  N76  1  0.47060187  0.69756452  0.48716507  1  0  -0.729368  0  3.048279  0  0  -0.696236  0  3.292722  0  0  -0.714195  0  3.286283  0  0  -0.629983  -0.682854  0  3.294174  0
N  N77  1  0.97060326  0.30243493  0.01283478  1  0  -0.729341  0  3.048309  0  0  -0.696199  0  3.292758  0  0  -0.714155  0  3.286326  0  0  -0.629909  -0.682818  0  3.294209  0
N  N78  1  0.52939470  0.30243746  0.51283288  1  0  -0.729104  0  3.048307  0  0  -0.69601  0  3.292699  0  0  -0.713964  0  3.286268  0  0  -0.629849  -0.682628  0  3.294145  0
N  N79  1  0.02939571  0.69756176  0.98716676  1  0  -0.729126  0  3.048445  0  0  -0.69602  0  3.292842  0  0  -0.713972  0  3.286411  0  0  -0.629854  -0.682637  0  3.294288  0
O  O80  1  0.76148643  0.82151100  0.75878907  1  0  -0.689155  0  1.967683  0  0  -0.623035  0  2.19005  0  0  -0.647815  0  2.179159  0  0  -0.364066  -0.606254  0  2.199051  0
O  O81  1  0.26148686  0.17848842  0.74121241  1  0  -0.689146  0  1.967775  0  0  -0.623024  0  2.190143  0  0  -0.647805  0  2.179252  0  0  -0.36404  -0.606244  0  2.199149  0
O  O82  1  0.23851374  0.17848886  0.24121161  1  0  -0.689158  0  1.967681  0  0  -0.623033  0  2.190029  0  0  -0.647815  0  2.179136  0  0  -0.364048  -0.606249  0  2.199026  0
O  O83  1  0.73851331  0.82151040  0.25878732  1  0  -0.689162  0  1.967777  0  0  -0.623039  0  2.190144  0  0  -0.647817  0  2.179251  0  0  -0.364049  -0.606254  0  2.199138  0
O  O84  1  0.02841212  0.86086463  0.76044794  1  0  -0.682604  0  2.008164  0  0  -0.621886  0  2.235008  0  0  -0.644995  0  2.224164  0  0  -0.361573  -0.603983  0  2.242266  0
O  O85  1  0.52841211  0.13913668  0.73955451  1  0  -0.682609  0  2.008153  0  0  -0.621882  0  2.235001  0  0  -0.644995  0  2.224157  0  0  -0.361546  -0.603975  0  2.242262  0
O  O86  1  0.97158925  0.13913418  0.23955272  1  0  -0.682612  0  2.008183  0  0  -0.621909  0  2.235042  0  0  -0.645017  0  2.224198  0  0  -0.36158  -0.604  0  2.242296  0
O  O87  1  0.47158806  0.86086528  0.26044714  1  0  -0.682651  0  2.008191  0  0  -0.621929  0  2.235053  0  0  -0.645036  0  2.224208  0  0  -0.361573  -0.604021  0  2.242307  0
O  O88  1  0.35724604  0.82090839  0.77451295  1  0  -0.879622  0  1.805529  0  0  -0.836417  0  1.981958  0  0  -0.852388  0  1.952655  0  0  -0.676383  -0.825671  0  2.006912  0
O  O89  1  0.85724488  0.17909113  0.72548761  1  0  -0.879731  0  1.805424  0  0  -0.836524  0  1.981867  0  0  -0.8525  0  1.952559  0  0  -0.676427  -0.825779  0  2.006829  0
O  O90  1  0.64275533  0.17909042  0.22548771  1  0  -0.879724  0  1.805409  0  0  -0.836514  0  1.981861  0  0  -0.852484  0  1.952554  0  0  -0.676424  -0.825766  0  2.006821  0
O  O91  1  0.14275529  0.82090979  0.27451217  1  0  -0.879751  0  1.805374  0  0  -0.836547  0  1.981834  0  0  -0.852517  0  1.952524  0  0  -0.676434  -0.825797  0  2.006793  0
O  O92  1  0.29802854  0.01378563  0.53055500  1  0  -0.912276  0  1.804465  0  0  -0.868188  0  1.985673  0  0  -0.883958  0  1.951967  0  0  -0.681139  -0.856154  0  2.008308  0
O  O93  1  0.79802830  0.98621489  0.96944465  1  0  -0.912302  0  1.80445  0  0  -0.868214  0  1.985646  0  0  -0.883986  0  1.951945  0  0  -0.681162  -0.85618  0  2.008284  0
O  O94  1  0.70197283  0.98621424  0.46944475  1  0  -0.912282  0  1.804458  0  0  -0.868183  0  1.985638  0  0  -0.883958  0  1.95194  0  0  -0.681158  -0.856151  0  2.008276  0
O  O95  1  0.20197307  0.01378603  0.03055512  1  0  -0.912279  0  1.804455  0  0  -0.86818  0  1.98563  0  0  -0.883961  0  1.951936  0  0  -0.681145  -0.856147  0  2.008268  0
