# generated using pymatgen
data_CdH4C4(N3Cl)2
_symmetry_space_group_name_H-M   'P 1'
_cell_length_a   6.49301164
_cell_length_b   11.19506419
_cell_length_c   13.76662185
_cell_angle_alpha   106.50845082
_cell_angle_beta   89.99903306
_cell_angle_gamma   106.87495870
_symmetry_Int_Tables_number   1
_chemical_formula_structural   CdH4C4(N3Cl)2
_chemical_formula_sum   'Cd4 H16 C16 N24 Cl8'
_cell_volume   914.41122906
_cell_formula_units_Z   4
loop_
 _symmetry_equiv_pos_site_id
 _symmetry_equiv_pos_as_xyz
  1  'x, y, z'
loop_
 _atom_site_type_symbol
 _atom_site_label
 _atom_site_symmetry_multiplicity
 _atom_site_fract_x
 _atom_site_fract_y
 _atom_site_fract_z
 _atom_site_occupancy
 _atom_site_hle17_bader_spin_density
 _atom_site_hle17_ddec_charge
 _atom_site_hle17_ddec_spin_density
 _atom_site_hle17_ddec_sum_bond_order
 _atom_site_hle17_magmom
 _atom_site_hse06_10hf_bader_spin_density
 _atom_site_hse06_10hf_ddec_charge
 _atom_site_hse06_10hf_ddec_spin_density
 _atom_site_hse06_10hf_ddec_sum_bond_order
 _atom_site_hse06_10hf_magmom
 _atom_site_hse06_bader_spin_density
 _atom_site_hse06_ddec_charge
 _atom_site_hse06_ddec_spin_density
 _atom_site_hse06_ddec_sum_bond_order
 _atom_site_hse06_magmom
 _atom_site_pbe_bader_spin_density
 _atom_site_pbe_cm5_charge
 _atom_site_pbe_ddec_charge
 _atom_site_pbe_ddec_spin_density
 _atom_site_pbe_ddec_sum_bond_order
 _atom_site_pbe_magmom
Cd  Cd0  1  0.33436241  0.99991278  0.10561244  1  0  0.965166  0  2.00851  0  0  0.807122  0  2.474747  0  0  0.852257  0  2.43384  0  0  0.59723  0.775538  0  2.50246  0
Cd  Cd1  1  0.33448898  0.00031361  0.39439612  1  0  0.965157  0  2.008681  0  0  0.806878  0  2.475212  0  0  0.85204  0  2.434267  0  0  0.597071  0.775122  0  2.503019  0
Cd  Cd2  1  0.66564080  0.00008675  0.89438752  1  0  0.965148  0  2.008465  0  0  0.807116  0  2.474703  0  0  0.852252  0  2.433794  0  0  0.597222  0.775535  0  2.502406  0
Cd  Cd3  1  0.66550960  0.99968591  0.60560457  1  0  0.965195  0  2.008577  0  0  0.806927  0  2.475094  0  0  0.852092  0  2.434145  0  0  0.597077  0.775172  0  2.502904  0
H  H4  1  0.84567820  0.72136887  0.02966233  1  0  0.12721  0  0.96112  0  0  0.124746  0  1.039717  0  0  0.128818  0  1.034551  0  0  0.142217  0.121612  0  1.043656  0
H  H5  1  0.12460089  0.27905254  0.47028165  1  0  0.126474  0  0.960709  0  0  0.12426  0  1.039278  0  0  0.128331  0  1.034136  0  0  0.14203  0.121354  0  1.043638  0
H  H6  1  0.15432494  0.27863359  0.97033831  1  0  0.127165  0  0.961194  0  0  0.124702  0  1.039793  0  0  0.128773  0  1.034631  0  0  0.142195  0.121576  0  1.043723  0
H  H7  1  0.87540337  0.72094601  0.52971808  1  0  0.126482  0  0.960697  0  0  0.124303  0  1.039239  0  0  0.128379  0  1.034086  0  0  0.142036  0.121381  0  1.043614  0
H  H8  1  0.81465498  0.75209573  0.34471793  1  0  0.131876  0  0.943713  0  0  0.131408  0  1.021239  0  0  0.135284  0  1.015563  0  0  0.142387  0.128577  0  1.02521  0
H  H9  1  0.06237553  0.24786569  0.15512318  1  0  0.131318  0  0.944637  0  0  0.130334  0  1.022599  0  0  0.134124  0  1.017112  0  0  0.142403  0.127668  0  1.027192  0
H  H10  1  0.18534815  0.24790672  0.65528489  1  0  0.131875  0  0.943669  0  0  0.131291  0  1.021353  0  0  0.135159  0  1.015688  0  0  0.142358  0.128465  0  1.025321  0
H  H11  1  0.93762201  0.75213481  0.84487701  1  0  0.131309  0  0.944693  0  0  0.130348  0  1.02261  0  0  0.134139  0  1.017123  0  0  0.142416  0.127682  0  1.027206  0
H  H12  1  0.37262890  0.75464843  0.19504732  1  0  0.109027  0  0.990281  0  0  0.109772  0  1.067746  0  0  0.112595  0  1.06471  0  0  0.126642  0.1077  0  1.069999  0
H  H13  1  0.61791103  0.24547556  0.30489310  1  0  0.109062  0  0.989335  0  0  0.109677  0  1.066808  0  0  0.112519  0  1.063725  0  0  0.126393  0.107563  0  1.069154  0
H  H14  1  0.62737123  0.24535110  0.80495047  1  0  0.109024  0  0.990316  0  0  0.109725  0  1.067809  0  0  0.112548  0  1.064774  0  0  0.126624  0.107654  0  1.070062  0
H  H15  1  0.38208771  0.75451811  0.69510330  1  0  0.109037  0  0.989461  0  0  0.109626  0  1.066954  0  0  0.112469  0  1.063871  0  0  0.126386  0.107515  0  1.069294  0
H  H16  1  0.61362004  0.42891319  0.10823018  1  0  0.129356  0  0.939666  0  0  0.135586  0  1.005637  0  0  0.138983  0  1.001707  0  0  0.134006  0.133025  0  1.008567  0
H  H17  1  0.18496132  0.57114021  0.39160226  1  0  0.129929  0  0.939053  0  0  0.135765  0  1.005493  0  0  0.139288  0  1.001405  0  0  0.134025  0.13309  0  1.008579  0
H  H18  1  0.38638309  0.57108926  0.89177192  1  0  0.129354  0  0.939669  0  0  0.135549  0  1.005684  0  0  0.138943  0  1.001753  0  0  0.133992  0.132987  0  1.008612  0
H  H19  1  0.81502809  0.42885635  0.60840136  1  0  0.12987  0  0.939031  0  0  0.135712  0  1.005484  0  0  0.139229  0  1.001417  0  0  0.134  0.13304  0  1.008566  0
C  C20  1  0.89121700  0.75361039  0.11127939  1  0  0.186577  0  3.571858  0  0  0.11774  0  3.849647  0  0  0.132603  0  3.857747  0  0  0.178627  0.108  0  3.844243  0
C  C21  1  0.13785974  0.24672601  0.38864447  1  0  0.186379  0  3.571768  0  0  0.116467  0  3.850609  0  0  0.131287  0  3.85875  0  0  0.178465  0.097496  0  3.84255  0
C  C22  1  0.10878319  0.24638618  0.88872278  1  0  0.186626  0  3.571964  0  0  0.117831  0  3.849706  0  0  0.13269  0  3.857811  0  0  0.178641  0.108087  0  3.844289  0
C  C23  1  0.86214354  0.75327060  0.61135118  1  0  0.186409  0  3.571634  0  0  0.116437  0  3.850496  0  0  0.131254  0  3.858633  0  0  0.178429  0.0975  0  3.842461  0
C  C24  1  0.87470661  0.76837520  0.27461454  1  0  0.186982  0  3.588676  0  0  0.113206  0  3.872912  0  0  0.128265  0  3.881447  0  0  0.177456  0.103144  0  3.867403  0
C  C25  1  0.10612767  0.23168446  0.22527673  1  0  0.187516  0  3.588094  0  0  0.114149  0  3.872366  0  0  0.129204  0  3.88091  0  0  0.177347  0.094999  0  3.864085  0
C  C26  1  0.12529288  0.23162920  0.72538874  1  0  0.187055  0  3.589023  0  0  0.113385  0  3.87324  0  0  0.128446  0  3.88178  0  0  0.177471  0.103316  0  3.867741  0
C  C27  1  0.89387189  0.76831702  0.77472369  1  0  0.187586  0  3.587984  0  0  0.114245  0  3.872212  0  0  0.129299  0  3.880754  0  0  0.177392  0.095117  0  3.863944  0
C  C28  1  0.37158869  0.65351028  0.16846461  1  0  0.137068  0  3.662522  0  0  0.077119  0  3.946  0  0  0.087892  0  3.958322  0  0  0.150641  0.070073  0  3.937554  0
C  C29  1  0.71813040  0.34659260  0.33142979  1  0  0.137328  0  3.660752  0  0  0.077549  0  3.944718  0  0  0.088338  0  3.956968  0  0  0.150353  0.070149  0  3.938508  0
C  C30  1  0.62841557  0.34648828  0.83153294  1  0  0.137035  0  3.662504  0  0  0.077184  0  3.945901  0  0  0.087959  0  3.958224  0  0  0.150699  0.070135  0  3.937461  0
C  C31  1  0.28186364  0.65340400  0.66856804  1  0  0.137307  0  3.660775  0  0  0.077553  0  3.944736  0  0  0.088333  0  3.957007  0  0  0.1504  0.070152  0  3.938523  0
C  C32  1  0.50082087  0.48588349  0.12351650  1  0  0.130016  0  3.647739  0  0  0.064874  0  3.928471  0  0  0.076734  0  3.939989  0  0  0.152502  0.057219  0  3.920455  0
C  C33  1  0.01515009  0.51422762  0.37632406  1  0  0.129755  0  3.646155  0  0  0.064896  0  3.927058  0  0  0.076659  0  3.938515  0  0  0.152612  0.057028  0  3.921248  0
C  C34  1  0.49918584  0.51411995  0.87648364  1  0  0.130005  0  3.64776  0  0  0.064889  0  3.928503  0  0  0.076754  0  3.940015  0  0  0.152545  0.057235  0  3.920485  0
C  C35  1  0.98484338  0.48577092  0.62367785  1  0  0.129707  0  3.646032  0  0  0.06484  0  3.926941  0  0  0.076599  0  3.938396  0  0  0.152609  0.056971  0  3.92113  0
N  N36  1  0.07056380  0.83831991  0.16147025  1  0  -0.238998  0  3.152688  0  0  -0.182763  0  3.429624  0  0  -0.19886  0  3.449021  0  0  -0.233076  -0.171977  0  3.416435  0
N  N37  1  0.23252702  0.16205500  0.33848447  1  0  -0.238554  0  3.152484  0  0  -0.182164  0  3.429863  0  0  -0.198217  0  3.449245  0  0  -0.232701  -0.171803  0  3.420333  0
N  N38  1  0.92944192  0.16168157  0.83853162  1  0  -0.238969  0  3.152898  0  0  -0.182756  0  3.429872  0  0  -0.198844  0  3.449263  0  0  -0.233036  -0.171968  0  3.416681  0
N  N39  1  0.76747514  0.83794552  0.66151209  1  0  -0.238574  0  3.152363  0  0  -0.182147  0  3.429739  0  0  -0.198205  0  3.449123  0  0  -0.232626  -0.171784  0  3.420199  0
N  N40  1  0.06035530  0.84754941  0.26340943  1  0  -0.235057  0  3.139637  0  0  -0.178454  0  3.418406  0  0  -0.194482  0  3.43774  0  0  -0.231285  -0.167641  0  3.405342  0
N  N41  1  0.21277203  0.15265820  0.23651863  1  0  -0.235974  0  3.139159  0  0  -0.17955  0  3.418094  0  0  -0.19556  0  3.437386  0  0  -0.231523  -0.169207  0  3.408558  0
N  N42  1  0.93964524  0.15245402  0.73659217  1  0  -0.235129  0  3.139862  0  0  -0.178552  0  3.41863  0  0  -0.194586  0  3.437965  0  0  -0.231313  -0.167736  0  3.405559  0
N  N43  1  0.78722649  0.84734427  0.76347911  1  0  -0.235986  0  3.139003  0  0  -0.179624  0  3.418002  0  0  -0.195632  0  3.43729  0  0  -0.23158  -0.169277  0  3.408456  0
N  N44  1  0.76516940  0.70642900  0.18016629  1  0  -0.003745  0  3.534769  0  0  0.068545  0  3.762683  0  0  0.056543  0  3.783676  0  0  -0.111387  0.076388  0  3.748397  0
N  N45  1  0.05879269  0.29373137  0.31972449  1  0  -0.001544  0  3.534554  0  0  0.072051  0  3.760919  0  0  0.060051  0  3.781941  0  0  -0.11056  0.107334  0  3.711891  0
N  N46  1  0.23483226  0.29357053  0.81983440  1  0  -0.003774  0  3.534842  0  0  0.068513  0  3.762727  0  0  0.05651  0  3.783722  0  0  -0.111352  0.076355  0  3.748445  0
N  N47  1  0.94120898  0.70626816  0.68027474  1  0  -0.001681  0  3.534512  0  0  0.071899  0  3.760926  0  0  0.0599  0  3.781944  0  0  -0.110615  0.107112  0  3.71197  0
N  N48  1  0.20639126  0.54684741  0.14024641  1  0  -0.234808  0  2.894722  0  0  -0.22143  0  3.184836  0  0  -0.228991  0  3.197388  0  0  -0.241707  -0.216256  0  3.17621  0
N  N49  1  0.65970739  0.45324928  0.35971864  1  0  -0.235829  0  2.895195  0  0  -0.22256  0  3.185452  0  0  -0.230092  0  3.197947  0  0  -0.241896  -0.217084  0  3.176323  0
N  N50  1  0.79360935  0.45315310  0.85975305  1  0  -0.234726  0  2.894735  0  0  -0.221364  0  3.184832  0  0  -0.228928  0  3.197383  0  0  -0.241702  -0.21619  0  3.176208  0
N  N51  1  0.34028721  0.54674537  0.64027945  1  0  -0.235903  0  2.894974  0  0  -0.22263  0  3.185211  0  0  -0.230163  0  3.197708  0  0  -0.241946  -0.217155  0  3.176088  0
N  N52  1  0.28869417  0.44080103  0.11136804  1  0  -0.244093  0  2.9886  0  0  -0.211373  0  3.283459  0  0  -0.222019  0  3.296699  0  0  -0.223141  -0.204017  0  3.274262  0
N  N53  1  0.84810221  0.55929673  0.38853514  1  0  -0.243871  0  2.987193  0  0  -0.210928  0  3.281663  0  0  -0.221616  0  3.294925  0  0  -0.223175  -0.203437  0  3.27198  0
N  N54  1  0.71130652  0.55919655  0.88862856  1  0  -0.244166  0  2.988791  0  0  -0.211455  0  3.283661  0  0  -0.222097  0  3.296896  0  0  -0.223216  -0.204096  0  3.27446  0
N  N55  1  0.15188930  0.44069790  0.61146440  1  0  -0.2438  0  2.986956  0  0  -0.210839  0  3.281397  0  0  -0.221521  0  3.294657  0  0  -0.22313  -0.203352  0  3.271725  0
N  N56  1  0.55989851  0.61999128  0.15924583  1  0  -0.008304  0  3.547084  0  0  0.06569  0  3.770034  0  0  0.053509  0  3.793434  0  0  -0.120828  0.07376  0  3.754011  0
N  N57  1  0.93999131  0.38013725  0.34062456  1  0  -0.009388  0  3.549732  0  0  0.064075  0  3.77291  0  0  0.051912  0  3.79631  0  0  -0.120937  0.063198  0  3.753897  0
N  N58  1  0.44010518  0.38000922  0.84075436  1  0  -0.008271  0  3.547015  0  0  0.065705  0  3.76996  0  0  0.053525  0  3.79336  0  0  -0.120847  0.073777  0  3.753939  0
N  N59  1  0.06000468  0.61986325  0.65937563  1  0  -0.009169  0  3.549609  0  0  0.064296  0  3.772792  0  0  0.052135  0  3.796193  0  0  -0.120934  0.063442  0  3.753789  0
Cl  Cl60  1  0.99999858  0.99999952  0.99999996  1  0  -0.614102  0  1.060594  0  0  -0.557286  0  1.361874  0  0  -0.576671  0  1.343283  0  0  -0.34652  -0.543275  0  1.374553  0
Cl  Cl61  1  0.99999894  0.00000469  0.49999853  1  0  -0.614345  0  1.060977  0  0  -0.557305  0  1.362165  0  0  -0.576665  0  1.343447  0  0  -0.346731  -0.543317  0  1.37475  0
Cl  Cl62  1  0.60246597  0.00007968  0.24999878  1  0  -0.534708  0  0.979564  0  0  -0.482914  0  1.268534  0  0  -0.499911  0  1.248159  0  0  -0.301475  -0.470708  0  1.282502  0
Cl  Cl63  1  0.39753513  0.99992179  0.75000309  1  0  -0.534697  0  0.979528  0  0  -0.482902  0  1.268482  0  0  -0.4999  0  1.248107  0  0  -0.301468  -0.4707  0  1.282448  0
Cl  Cl64  1  0.39888042  0.81461980  0.95333548  1  0  -0.563543  0  0.96437  0  0  -0.501302  0  1.234349  0  0  -0.520432  0  1.214438  0  0  -0.316034  -0.487456  0  1.24768  0
Cl  Cl65  1  0.58429950  0.18528946  0.54679024  1  0  -0.563569  0  0.964334  0  0  -0.501185  0  1.234314  0  0  -0.520393  0  1.214509  0  0  -0.316066  -0.487167  0  1.24759  0
Cl  Cl66  1  0.60111613  0.18537874  0.04666497  1  0  -0.563525  0  0.964381  0  0  -0.501295  0  1.234369  0  0  -0.520423  0  1.214451  0  0  -0.316026  -0.487446  0  1.247699  0
Cl  Cl67  1  0.41570112  0.81471105  0.45320850  1  0  -0.563586  0  0.964339  0  0  -0.501206  0  1.234323  0  0  -0.520416  0  1.214518  0  0  -0.316069  -0.487191  0  1.247605  0
