# generated using pymatgen
data_ZnH8C12(NO3)2
_symmetry_space_group_name_H-M   'P 1'
_cell_length_a   7.25156855
_cell_length_b   7.25159517
_cell_length_c   12.50205970
_cell_angle_alpha   100.36287502
_cell_angle_beta   100.36260438
_cell_angle_gamma   90.32750878
_symmetry_Int_Tables_number   1
_chemical_formula_structural   ZnH8C12(NO3)2
_chemical_formula_sum   'Zn2 H16 C24 N4 O12'
_cell_volume   635.66160359
_cell_formula_units_Z   2
loop_
 _symmetry_equiv_pos_site_id
 _symmetry_equiv_pos_as_xyz
  1  'x, y, z'
loop_
 _atom_site_type_symbol
 _atom_site_label
 _atom_site_symmetry_multiplicity
 _atom_site_fract_x
 _atom_site_fract_y
 _atom_site_fract_z
 _atom_site_occupancy
 _atom_site_hle17_bader_spin_density
 _atom_site_hle17_ddec_charge
 _atom_site_hle17_ddec_spin_density
 _atom_site_hle17_ddec_sum_bond_order
 _atom_site_hle17_magmom
 _atom_site_hse06_10hf_bader_spin_density
 _atom_site_hse06_10hf_ddec_charge
 _atom_site_hse06_10hf_ddec_spin_density
 _atom_site_hse06_10hf_ddec_sum_bond_order
 _atom_site_hse06_10hf_magmom
 _atom_site_hse06_bader_spin_density
 _atom_site_hse06_ddec_charge
 _atom_site_hse06_ddec_spin_density
 _atom_site_hse06_ddec_sum_bond_order
 _atom_site_hse06_magmom
 _atom_site_pbe_bader_spin_density
 _atom_site_pbe_cm5_charge
 _atom_site_pbe_ddec_charge
 _atom_site_pbe_ddec_spin_density
 _atom_site_pbe_ddec_sum_bond_order
 _atom_site_pbe_magmom
Zn  Zn0  1  0.83771858  0.16227935  0.74999436  1  0  1.005083  0  1.850054  0  0  0.813668  0  2.32334  0  0  0.85973  0  2.27001  0  0  0.700564  0.781617  0  2.360053  0
Zn  Zn1  1  0.16226662  0.83771907  0.25000217  1  0  1.004993  0  1.850072  0  0  0.813655  0  2.323313  0  0  0.859712  0  2.269975  0  0  0.700582  0.781585  0  2.360019  0
H  H2  1  0.18792263  0.35196462  0.43887128  1  0  0.148678  0  0.926327  0  0  0.159493  0  0.98367  0  0  0.163438  0  0.980306  0  0  0.119937  0.156543  0  0.986285  0
H  H3  1  0.64805992  0.81209420  0.06112354  1  0  0.148671  0  0.926342  0  0  0.159459  0  0.983747  0  0  0.163412  0  0.980366  0  0  0.119925  0.156506  0  0.986368  0
H  H4  1  0.81207720  0.64804777  0.56112819  1  0  0.148767  0  0.926244  0  0  0.159519  0  0.983687  0  0  0.163468  0  0.980312  0  0  0.119958  0.156571  0  0.986301  0
H  H5  1  0.35195438  0.18789706  0.93887205  1  0  0.148721  0  0.926191  0  0  0.159554  0  0.983559  0  0  0.163506  0  0.98018  0  0  0.119983  0.1566  0  0.986189  0
H  H6  1  0.76958840  0.20775649  0.51085752  1  0  0.101859  0  0.944055  0  0  0.111594  0  1.005157  0  0  0.114656  0  1.002745  0  0  0.122087  0.109254  0  1.007147  0
H  H7  1  0.79225374  0.23042891  0.98915462  1  0  0.10186  0  0.944012  0  0  0.111597  0  1.005124  0  0  0.114659  0  1.00271  0  0  0.122063  0.109258  0  1.007116  0
H  H8  1  0.23040334  0.79223070  0.48914572  1  0  0.10184  0  0.944025  0  0  0.111578  0  1.005118  0  0  0.114642  0  1.002706  0  0  0.12208  0.109239  0  1.007109  0
H  H9  1  0.20774713  0.76957507  0.01084809  1  0  0.101925  0  0.943994  0  0  0.111671  0  1.005112  0  0  0.114734  0  1.002697  0  0  0.122088  0.10933  0  1.007104  0
H  H10  1  0.43110688  0.16137708  0.74051640  1  0  0.102221  0  0.956775  0  0  0.105043  0  1.030742  0  0  0.109087  0  1.026151  0  0  0.116697  0.102073  0  1.034095  0
H  H11  1  0.83861339  0.56887019  0.75946918  1  0  0.102244  0  0.956683  0  0  0.105071  0  1.030663  0  0  0.109111  0  1.026074  0  0  0.116694  0.102101  0  1.034015  0
H  H12  1  0.56887163  0.83862841  0.25948416  1  0  0.102116  0  0.956765  0  0  0.10496  0  1.030721  0  0  0.109003  0  1.026126  0  0  0.116692  0.101989  0  1.034071  0
H  H13  1  0.16139215  0.43111269  0.24052544  1  0  0.102176  0  0.956759  0  0  0.105037  0  1.030701  0  0  0.109082  0  1.026104  0  0  0.116685  0.102066  0  1.034051  0
H  H14  1  0.63110527  0.29988143  0.35045878  1  0  0.392558  0  0.802926  0  0  0.380632  0  0.852053  0  0  0.388583  0  0.844121  0  0  0.34334  0.374886  0  0.857849  0
H  H15  1  0.70016009  0.36892888  0.14955887  1  0  0.392737  0  0.802672  0  0  0.380813  0  0.851827  0  0  0.388766  0  0.843884  0  0  0.343369  0.375062  0  0.857631  0
H  H16  1  0.36889213  0.70010713  0.64954278  1  0  0.39257  0  0.802896  0  0  0.380651  0  0.852018  0  0  0.388601  0  0.844089  0  0  0.343322  0.374905  0  0.857816  0
H  H17  1  0.29986036  0.63107363  0.85045051  1  0  0.392622  0  0.802969  0  0  0.380709  0  0.852084  0  0  0.388651  0  0.844154  0  0  0.343399  0.374964  0  0.857879  0
C  C18  1  0.10664447  0.28471868  0.63693737  1  0  0.648464  0  3.946146  0  0  0.597958  0  4.244878  0  0  0.632341  0  4.236496  0  0  0.202543  0.574578  0  4.249875  0
C  C19  1  0.71531493  0.89335366  0.86305467  1  0  0.648526  0  3.945854  0  0  0.59789  0  4.244744  0  0  0.632269  0  4.236371  0  0  0.202541  0.574511  0  4.249736  0
C  C20  1  0.89334109  0.71532042  0.36305939  1  0  0.648474  0  3.94587  0  0  0.598  0  4.244544  0  0  0.632385  0  4.236158  0  0  0.202526  0.574614  0  4.249545  0
C  C21  1  0.28468813  0.10663628  0.13694682  1  0  0.648312  0  3.946444  0  0  0.5979  0  4.245028  0  0  0.632284  0  4.236649  0  0  0.20254  0.574515  0  4.250023  0
C  C22  1  0.28622806  0.25640589  0.59316497  1  0  -0.067386  0  3.756307  0  0  -0.043208  0  3.997524  0  0  -0.051581  0  4.017452  0  0  -0.008614  -0.038145  0  3.984496  0
C  C23  1  0.74358968  0.71377590  0.90683065  1  0  -0.067482  0  3.756387  0  0  -0.043202  0  3.997619  0  0  -0.051572  0  4.01754  0  0  -0.008602  -0.038136  0  3.984594  0
C  C24  1  0.71376161  0.74359815  0.40683899  1  0  -0.067617  0  3.756835  0  0  -0.043364  0  3.997987  0  0  -0.051742  0  4.017911  0  0  -0.008702  -0.038294  0  3.984958  0
C  C25  1  0.25642666  0.28619714  0.09317047  1  0  -0.06783  0  3.756837  0  0  -0.043594  0  3.997961  0  0  -0.051965  0  4.017885  0  0  -0.008685  -0.038522  0  3.984932  0
C  C26  1  0.30497784  0.29831118  0.49103198  1  0  -0.137571  0  3.625426  0  0  -0.175211  0  3.874424  0  0  -0.173225  0  3.888762  0  0  -0.072953  -0.176233  0  3.864941  0
C  C27  1  0.70169738  0.69503624  0.00896546  1  0  -0.137366  0  3.625386  0  0  -0.17505  0  3.874512  0  0  -0.173063  0  3.888848  0  0  -0.072888  -0.176071  0  3.865029  0
C  C28  1  0.69502898  0.70170116  0.50896501  1  0  -0.137391  0  3.625711  0  0  -0.175115  0  3.87468  0  0  -0.173136  0  3.889038  0  0  -0.072844  -0.176141  0  3.865202  0
C  C29  1  0.29830458  0.30496070  0.99103344  1  0  -0.137403  0  3.625241  0  0  -0.175115  0  3.874342  0  0  -0.173124  0  3.88867  0  0  -0.072938  -0.176134  0  3.864864  0
C  C30  1  0.47960909  0.27422043  0.45878880  1  0  0.289546  0  3.831287  0  0  0.284215  0  4.101738  0  0  0.290601  0  4.11967  0  0  0.087793  0.279257  0  4.089901  0
C  C31  1  0.72580158  0.52041854  0.04121354  1  0  0.289372  0  3.830804  0  0  0.284047  0  4.101348  0  0  0.290425  0  4.119279  0  0  0.087671  0.279089  0  4.089517  0
C  C32  1  0.52039059  0.72578913  0.54120476  1  0  0.28931  0  3.831175  0  0  0.284193  0  4.10137  0  0  0.290579  0  4.119301  0  0  0.087651  0.279233  0  4.089539  0
C  C33  1  0.27421196  0.47958677  0.95878581  1  0  0.289573  0  3.830828  0  0  0.284216  0  4.101426  0  0  0.290599  0  4.119355  0  0  0.087711  0.279245  0  4.089614  0
C  C34  1  0.62990248  0.21923768  0.53159381  1  0  -0.011919  0  3.694732  0  0  -0.057273  0  3.957615  0  0  -0.053338  0  3.97494  0  0  0.030521  -0.059803  0  3.946122  0
C  C35  1  0.78075802  0.37009916  0.96840344  1  0  -0.011845  0  3.694824  0  0  -0.057188  0  3.957703  0  0  -0.053245  0  3.975021  0  0  0.030615  -0.059717  0  3.946206  0
C  C36  1  0.37008400  0.78075793  0.46840416  1  0  -0.011811  0  3.694784  0  0  -0.057174  0  3.957623  0  0  -0.053239  0  3.974942  0  0  0.030653  -0.059699  0  3.946118  0
C  C37  1  0.21923674  0.62989361  0.03159509  1  0  -0.011978  0  3.694687  0  0  -0.057374  0  3.957668  0  0  -0.053438  0  3.974992  0  0  0.030549  -0.059904  0  3.946184  0
C  C38  1  0.44047705  0.19642291  0.66054068  1  0  0.086353  0  3.67659  0  0  0.033759  0  3.943236  0  0  0.042772  0  3.956458  0  0  0.033924  0.027903  0  3.93435  0
C  C39  1  0.80357400  0.55952479  0.83945695  1  0  0.086284  0  3.676529  0  0  0.033651  0  3.943212  0  0  0.042678  0  3.956414  0  0  0.03392  0.027793  0  3.934326  0
C  C40  1  0.55950700  0.80358115  0.33946031  1  0  0.086568  0  3.676439  0  0  0.033952  0  3.94312  0  0  0.042978  0  3.956331  0  0  0.033965  0.028092  0  3.934228  0
C  C41  1  0.19643126  0.44045111  0.16054492  1  0  0.08655  0  3.676198  0  0  0.033896  0  3.942845  0  0  0.042914  0  3.95606  0  0  0.033928  0.028037  0  3.93395  0
N  N42  1  0.60983448  0.18382814  0.63093255  1  0  -0.315321  0  3.386973  0  0  -0.226142  0  3.672371  0  0  -0.244818  0  3.68886  0  0  -0.334202  -0.213545  0  3.661207  0
N  N43  1  0.81617085  0.39016902  0.86907240  1  0  -0.315345  0  3.387215  0  0  -0.226126  0  3.672559  0  0  -0.244806  0  3.689049  0  0  -0.334175  -0.213525  0  3.661396  0
N  N44  1  0.39016043  0.81616746  0.36907188  1  0  -0.315305  0  3.387171  0  0  -0.226249  0  3.672712  0  0  -0.244922  0  3.689185  0  0  -0.334273  -0.213644  0  3.661541  0
N  N45  1  0.18383203  0.60981672  0.13093024  1  0  -0.315325  0  3.386881  0  0  -0.226095  0  3.672223  0  0  -0.244775  0  3.688726  0  0  -0.334119  -0.213488  0  3.661045  0
O  O46  1  0.05797851  0.14533357  0.67931082  1  0  -0.641109  0  2.014224  0  0  -0.564865  0  2.279316  0  0  -0.593616  0  2.262577  0  0  -0.337387  -0.544708  0  2.290179  0
O  O47  1  0.85469936  0.94200320  0.82067693  1  0  -0.64105  0  2.013877  0  0  -0.564766  0  2.279022  0  0  -0.593515  0  2.262287  0  0  -0.337367  -0.544612  0  2.289882  0
O  O48  1  0.94201114  0.85470271  0.32068927  1  0  -0.640894  0  2.0141  0  0  -0.564685  0  2.279168  0  0  -0.593431  0  2.262425  0  0  -0.337263  -0.544532  0  2.290029  0
O  O49  1  0.14530628  0.05798248  0.17931399  1  0  -0.640828  0  2.014313  0  0  -0.564658  0  2.279378  0  0  -0.593404  0  2.262636  0  0  -0.337287  -0.544506  0  2.290239  0
O  O50  1  0.02237294  0.43316679  0.63130834  1  0  -0.613364  0  1.907353  0  0  -0.575091  0  2.133599  0  0  -0.597597  0  2.123108  0  0  -0.322412  -0.559044  0  2.140279  0
O  O51  1  0.56686673  0.97764247  0.86868020  1  0  -0.613481  0  1.907133  0  0  -0.575196  0  2.133468  0  0  -0.597704  0  2.122976  0  0  -0.322501  -0.559148  0  2.140158  0
O  O52  1  0.97762437  0.56685261  0.36868680  1  0  -0.613545  0  1.906936  0  0  -0.575291  0  2.133149  0  0  -0.597797  0  2.122651  0  0  -0.322528  -0.559243  0  2.139837  0
O  O53  1  0.43315619  0.02235297  0.13131910  1  0  -0.613454  0  1.907042  0  0  -0.575223  0  2.133226  0  0  -0.597734  0  2.122734  0  0  -0.322584  -0.559168  0  2.139902  0
O  O54  1  0.49993909  0.31096460  0.35850612  1  0  -0.485545  0  2.121276  0  0  -0.437712  0  2.324892  0  0  -0.457144  0  2.321493  0  0  -0.331551  -0.423797  0  2.326899  0
O  O55  1  0.68903020  0.50009258  0.14150426  1  0  -0.485683  0  2.120548  0  0  -0.43787  0  2.324162  0  0  -0.45733  0  2.320828  0  0  -0.33156  -0.423948  0  2.326166  0
O  O56  1  0.50005995  0.68902956  0.64149539  1  0  -0.485588  0  2.121014  0  0  -0.437826  0  2.324553  0  0  -0.45726  0  2.321154  0  0  -0.331547  -0.423916  0  2.326581  0
O  O57  1  0.31096692  0.49992126  0.85850388  1  0  -0.485533  0  2.121147  0  0  -0.437718  0  2.324811  0  0  -0.457146  0  2.321431  0  0  -0.331534  -0.423793  0  2.32682  0
