# generated using pymatgen
data_CuH17C22(NO2)2
_symmetry_space_group_name_H-M   'P 1'
_cell_length_a   9.58288455
_cell_length_b   10.19706286
_cell_length_c   11.08860018
_cell_angle_alpha   114.83753624
_cell_angle_beta   102.43201204
_cell_angle_gamma   98.31110051
_symmetry_Int_Tables_number   1
_chemical_formula_structural   CuH17C22(NO2)2
_chemical_formula_sum   'Cu2 H34 C44 N4 O8'
_cell_volume   925.89676363
_cell_formula_units_Z   2
loop_
 _symmetry_equiv_pos_site_id
 _symmetry_equiv_pos_as_xyz
  1  'x, y, z'
loop_
 _atom_site_type_symbol
 _atom_site_label
 _atom_site_symmetry_multiplicity
 _atom_site_fract_x
 _atom_site_fract_y
 _atom_site_fract_z
 _atom_site_occupancy
 _atom_site_hle17_ddec_charge
 _atom_site_hle17_ddec_spin_density
 _atom_site_hle17_ddec_sum_bond_order
 _atom_site_hle17_magmom
 _atom_site_hse06_10hf_ddec_charge
 _atom_site_hse06_10hf_ddec_spin_density
 _atom_site_hse06_10hf_ddec_sum_bond_order
 _atom_site_hse06_10hf_magmom
 _atom_site_hse06_ddec_charge
 _atom_site_hse06_ddec_spin_density
 _atom_site_hse06_ddec_sum_bond_order
 _atom_site_hse06_magmom
 _atom_site_pbe_cm5_charge
 _atom_site_pbe_ddec_charge
 _atom_site_pbe_ddec_spin_density
 _atom_site_pbe_ddec_sum_bond_order
 _atom_site_pbe_magmom
Cu  Cu0  1  0.95540356  0.59626618  0.60300624  1  0.880815  0.690702  1.83557  0.497  0.872017  0.807158  2.244078  0.642  0.973657  0.893956  2.165439  0.743  0.684277  0.802985  0.706136  2.305463  0.551
Cu  Cu1  1  0.04460149  0.40374211  0.39700135  1  0.880745  -0.690672  1.83583  -0.497  0.87188  -0.807135  2.244393  -0.642  0.97355  -0.893927  2.165676  -0.743  0.684236  0.802797  -0.706094  2.305929  -0.551
H  H2  1  0.05317035  0.60106385  0.90431424  1  0.105702  -2.2e-05  0.996017  0.0  0.115631  -2e-06  1.059101  0.0  0.119507  -2.4e-05  1.056286  0.0  0.09944  0.112878  1.4e-05  1.061319  0.0
H  H3  1  0.94682807  0.39893547  0.09568505  1  0.105662  2.9e-05  0.995961  0.0  0.115598  1e-06  1.059046  0.0  0.119476  2.4e-05  1.056232  0.0  0.099428  0.112845  -1.4e-05  1.061263  0.0
H  H4  1  0.11428082  0.68215975  0.16102970  1  0.08469  -6e-06  0.964969  0.0  0.096324  -1.6e-05  1.027444  0.0  0.09892  -6e-06  1.027021  0.0  0.093206  0.094585  -2.3e-05  1.027566  0.0
H  H5  1  0.88571993  0.31783621  0.83896871  1  0.084669  1.4e-05  0.964993  0.0  0.096298  1.5e-05  1.027486  0.0  0.098895  6e-06  1.027059  0.0  0.093165  0.094561  2.3e-05  1.027605  0.0
H  H6  1  0.02762221  0.88989312  0.31289836  1  0.085223  -1.7e-05  0.952564  0.0  0.099455  -9e-06  1.006134  0.0  0.102026  -6e-06  1.005658  0.0  0.09654  0.097134  -1.3e-05  1.007492  0.0
H  H7  1  0.97237175  0.11009723  0.68709933  1  0.085215  1.1e-05  0.952614  0.0  0.099463  9e-06  1.006164  0.0  0.102034  6e-06  1.005689  0.0  0.096528  0.097143  1.3e-05  1.007521  0.0
H  H8  1  0.87395874  0.01991153  0.21309739  1  0.113023  -5.6e-05  0.983987  0.0  0.12149  -4.1e-05  1.049265  0.0  0.125506  -6e-06  1.046152  0.0  0.103249  0.118534  -7.8e-05  1.051657  0.0
H  H9  1  0.12603114  0.98007545  0.78689915  1  0.113051  6e-05  0.983881  0.0  0.121479  4.1e-05  1.049207  0.0  0.12549  6e-06  1.04611  0.0  0.10325  0.118529  7.8e-05  1.051603  0.0
H  H10  1  0.72652815  0.77269544  0.56756561  1  0.151673  -1.4e-05  0.960701  0.0  0.171811  -1.4e-05  1.01698  0.0  0.174959  -4.1e-05  1.015218  0.0  0.102917  0.169568  2.1e-05  1.018341  0.0
H  H11  1  0.27347346  0.22730389  0.43243156  1  0.151659  1.6e-05  0.96065  0.0  0.171793  1.4e-05  1.016938  0.0  0.174943  4.1e-05  1.015174  0.0  0.102918  0.169549  -2.2e-05  1.0183  0.0
H  H12  1  0.71610737  0.95533749  0.68006662  1  0.118413  5e-06  0.971279  0.0  0.136069  1e-06  1.03903  0.0  0.137702  -1e-06  1.040332  0.0  0.094629  0.135051  -4e-06  1.038018  0.0
H  H13  1  0.28389155  0.04465959  0.31993279  1  0.118455  -4e-06  0.971284  0.0  0.136081  -1e-06  1.039059  0.0  0.137713  1e-06  1.040362  0.0  0.09465  0.135067  4e-06  1.038047  0.0
H  H14  1  0.57649063  0.79491169  0.63772051  1  0.123077  -5e-06  0.937321  0.0  0.144937  1e-06  0.996222  0.0  0.147303  1e-06  0.995701  0.0  0.096732  0.143652  0.0  0.995957  0.0
H  H15  1  0.42351090  0.20508316  0.36227671  1  0.123035  0.0  0.937318  0.0  0.144891  -1e-06  0.996229  0.0  0.147256  -1e-06  0.995708  0.0  0.096704  0.143605  -0.0  0.995962  0.0
H  H16  1  0.66534166  0.06058454  0.88416883  1  0.071825  3e-06  0.925845  0.0  0.091528  2e-06  0.984196  0.0  0.091833  2e-06  0.985016  0.0  0.110656  0.090985  1e-06  0.984129  0.0
H  H17  1  0.33465849  0.93940919  0.11582319  1  0.071822  -5e-06  0.925803  0.0  0.091537  -2e-06  0.984164  0.0  0.091839  -1e-06  0.984994  0.0  0.110648  0.090994  -1e-06  0.984096  0.0
H  H18  1  0.75534418  0.11176272  0.05974870  1  0.086262  3e-06  0.918509  0.0  0.101924  -4e-06  0.98006  0.0  0.102841  8e-06  0.979777  0.0  0.11288  0.10097  -1.6e-05  0.980886  0.0
H  H19  1  0.24464878  0.88823211  0.94024424  1  0.08625  -7e-06  0.918534  0.0  0.101908  4e-06  0.980127  0.0  0.102826  -8e-06  0.979845  0.0  0.112918  0.100959  1.6e-05  0.980955  0.0
H  H20  1  0.56930338  0.88945880  0.03748090  1  0.070875  1e-06  0.930117  0.0  0.091282  3e-06  0.987783  0.0  0.091745  2e-06  0.989284  0.0  0.092338  0.09112  2e-06  0.9865  0.0
H  H21  1  0.43069170  0.11053605  0.96250883  1  0.070899  -1e-05  0.93015  0.0  0.091325  -3e-06  0.987761  0.0  0.091741  -2e-06  0.989331  0.0  0.09233  0.091184  -2e-06  0.986452  0.0
H  H22  1  0.47451774  0.85270437  0.86686591  1  0.068721  -1.9e-05  0.930835  0.0  0.088757  -8e-06  0.988158  0.0  0.08915  -9e-06  0.98934  0.0  0.090377  0.088275  -7e-06  0.987608  0.0
H  H23  1  0.52547996  0.14728825  0.13312252  1  0.068708  1.4e-05  0.930883  0.0  0.088736  8e-06  0.988202  0.0  0.08913  1e-05  0.989375  0.0  0.090391  0.08825  7e-06  0.987651  0.0
H  H24  1  0.64795157  0.30402000  0.64745299  1  0.104423  0.000294  0.968085  0.0  0.113273  0.000224  1.034984  0.0  0.11659  0.000132  1.032864  0.0  0.105451  0.111207  0.000241  1.036057  0.0
H  H25  1  0.35205026  0.69598828  0.35255311  1  0.104348  -0.000303  0.968166  0.0  0.113267  -0.000224  1.034993  0.0  0.116585  -0.000132  1.032871  0.0  0.105424  0.111201  -0.000241  1.036067  0.0
H  H26  1  0.78368345  0.97693002  0.33186944  1  0.096273  -0.000184  0.995115  0.0  0.106307  -0.000142  1.057618  0.0  0.10902  -9.6e-05  1.056156  0.0  0.102038  0.103951  -0.0002  1.059712  0.0
H  H27  1  0.21631410  0.02307826  0.66813317  1  0.096259  0.000189  0.995197  0.0  0.106317  0.000142  1.057672  0.0  0.109032  9.6e-05  1.056205  0.0  0.102021  0.103949  0.0002  1.059786  0.0
H  H28  1  0.57272973  0.77618690  0.29100451  1  0.094171  0.000119  0.974132  0.0  0.10362  0.000107  1.037809  0.0  0.105495  6.7e-05  1.039321  0.0  0.099785  0.102627  9.5e-05  1.036304  0.0
H  H29  1  0.42727211  0.22382138  0.70900249  1  0.094155  -0.000117  0.974177  0.0  0.103565  -0.000106  1.037898  0.0  0.105443  -6.7e-05  1.039407  0.0  0.099769  0.10258  -9.4e-05  1.036387  0.0
H  H30  1  0.28317169  0.46553681  0.12454097  1  0.102732  -8e-05  0.962154  0.0  0.111975  -9.7e-05  1.02521  0.0  0.113918  -5.5e-05  1.025622  0.0  0.103965  0.110012  -9.9e-05  1.025773  0.0
H  H31  1  0.71683609  0.53447372  0.87547069  1  0.102785  8e-05  0.962117  0.0  0.112046  9.7e-05  1.025151  0.0  0.113946  5.5e-05  1.025617  0.0  0.103947  0.110089  9.9e-05  1.025706  0.0
H  H32  1  0.20206846  0.48513893  0.90663671  1  0.103434  3.4e-05  0.968137  0.0  0.113552  2.3e-05  1.03099  0.0  0.115551  1.2e-05  1.030837  0.0  0.105453  0.111752  1.2e-05  1.031815  0.0
H  H33  1  0.79793629  0.51485592  0.09336470  1  0.103477  -2.3e-05  0.968127  0.0  0.113568  -2.3e-05  1.031004  0.0  0.115565  -1.3e-05  1.030849  0.0  0.105463  0.111763  -1.2e-05  1.031825  0.0
H  H34  1  0.48478375  0.46749684  0.30908406  1  0.109894  0.000102  0.926974  0.0  0.122331  6.4e-05  0.9806  0.0  0.12489  3.9e-05  0.97973  0.0  0.109575  0.120253  7.6e-05  0.981394  0.0
H  H35  1  0.51522470  0.53250809  0.69092375  1  0.109814  -9.5e-05  0.926985  0.0  0.12223  -6.4e-05  0.980642  0.0  0.124799  -3.9e-05  0.979761  0.0  0.109532  0.120153  -7.6e-05  0.981437  0.0
C  C36  1  0.92381632  0.75941873  0.91449914  1  0.147628  -0.000151  3.83812  0.0  0.148002  -0.000111  4.093894  0.0  0.152435  -0.000101  4.115747  0.0  0.079963  0.14506  -6.3e-05  4.078863  0.0
C  C37  1  0.07617860  0.24057946  0.08549907  1  0.147523  0.000132  3.83824  0.0  0.147924  0.000112  4.094021  0.0  0.152355  0.0001  4.115884  0.0  0.079954  0.144985  6.3e-05  4.078978  0.0
C  C38  1  0.01240103  0.68897807  0.97138691  1  -0.148004  0.000106  3.750058  0.0  -0.16886  5.2e-05  4.002147  0.0  -0.170756  1.3e-05  4.019974  0.0  -0.100216  -0.167238  9.5e-05  3.99042  0.0
C  C39  1  0.98759807  0.31101565  0.02861123  1  -0.1479  -0.000106  3.750277  0.0  -0.168759  -4.3e-05  4.002346  0.0  -0.170661  -1.6e-05  4.020183  0.0  -0.100233  -0.167138  -9.5e-05  3.990611  0.0
C  C40  1  0.04630004  0.73608576  0.11446085  1  -0.102035  -7.8e-05  3.814739  0.0  -0.116582  -2.1e-05  4.071101  0.0  -0.11917  -1.5e-05  4.093577  0.0  -0.109974  -0.114672  -2.1e-05  4.055548  0.0
C  C41  1  0.95369489  0.26391242  0.88554007  1  -0.102051  4.6e-05  3.814704  0.0  -0.116603  1.3e-05  4.071086  0.0  -0.11919  1.9e-05  4.093563  0.0  -0.109951  -0.114695  2.1e-05  4.055529  0.0
C  C42  1  0.99595490  0.85339075  0.20088273  1  -0.076901  0.000166  3.799483  0.0  -0.09006  2.1e-05  4.052311  0.0  -0.091615  2.7e-05  4.074293  0.0  -0.103075  -0.088924  1.7e-05  4.03717  0.0
C  C43  1  0.00403905  0.14659960  0.79911406  1  -0.07695  -0.000122  3.799613  0.0  -0.090123  -2.5e-05  4.052427  0.0  -0.09168  -2.7e-05  4.074412  0.0  -0.103024  -0.088983  -1.7e-05  4.037286  0.0
C  C44  1  0.90717660  0.92454353  0.14598476  1  -0.157154  -0.000231  3.762943  0.0  -0.178181  -0.000102  4.020443  0.0  -0.181208  -6e-05  4.039174  0.0  -0.102341  -0.175745  -0.000112  4.007325  0.0
C  C45  1  0.09281075  0.07545016  0.85401303  1  -0.157055  0.000203  3.76312  0.0  -0.178021  0.000109  4.020648  0.0  -0.181052  5.9e-05  4.039378  0.0  -0.102334  -0.17559  0.000112  4.007534  0.0
C  C46  1  0.86900408  0.87244991  0.00211910  1  0.100631  6.3e-05  3.812917  0.0  0.089187  -1.7e-05  4.061433  0.0  0.093677  -1.1e-05  4.083255  0.0  0.088979  0.085998  -1.9e-05  4.046225  0.0
C  C47  1  0.13099015  0.12754157  0.99787457  1  0.100632  -5.7e-05  3.812891  0.0  0.08909  1.8e-05  4.061519  0.0  0.093581  1.1e-05  4.083337  0.0  0.088972  0.085903  1.9e-05  4.046313  0.0
C  C48  1  0.78268235  0.82694569  0.78146725  1  0.409866  -0.000295  3.690065  0.0  0.390734  -0.000236  3.966875  0.0  0.410924  -0.000212  3.9788  0.0  0.23097  0.377881  -0.000254  3.957629  0.0
C  C49  1  0.21731656  0.17305139  0.21853126  1  0.409829  0.000261  3.690195  0.0  0.39065  0.000238  3.967034  0.0  0.410838  0.000206  3.978964  0.0  0.230952  0.377801  0.000254  3.957778  0.0
C  C50  1  0.69619885  0.83828410  0.66014780  1  -0.400965  0.000104  3.720082  0.0  -0.482641  1.1e-05  3.956397  0.0  -0.488284  -1.9e-05  3.961401  0.0  -0.237812  -0.47878  4.9e-05  3.952398  0.0
C  C51  1  0.30380218  0.16171299  0.33984930  1  -0.400969  -9.9e-05  3.720051  0.0  -0.4826  -1e-05  3.956384  0.0  -0.488244  2.1e-05  3.961391  0.0  -0.237842  -0.478739  -5e-05  3.952384  0.0
C  C52  1  0.68806139  0.01611903  0.95883815  1  0.019432  -3.3e-05  3.615519  0.0  -0.04102  -1.8e-05  3.873812  0.0  -0.036062  -1.3e-05  3.884352  0.0  -0.048735  -0.044431  -2.6e-05  3.867413  0.0
C  C53  1  0.31193341  0.98387469  0.04115379  1  0.019474  3.3e-05  3.615469  0.0  -0.041074  2.2e-05  3.873885  0.0  -0.036119  1.2e-05  3.884428  0.0  -0.048765  -0.044481  2.6e-05  3.86749  0.0
C  C54  1  0.54335810  0.94310971  0.97049575  1  -0.121894  -2e-06  3.67264  0.0  -0.163146  -7e-06  3.936474  0.0  -0.164732  -4e-06  3.950236  0.0  -0.160948  -0.162224  -7e-06  3.927356  0.0
C  C55  1  0.45663533  0.05688289  0.02949371  1  -0.121937  2.3e-05  3.672653  0.0  -0.163108  4e-06  3.936453  0.0  -0.164671  4e-06  3.950219  0.0  -0.160969  -0.162194  7e-06  3.927329  0.0
C  C56  1  0.51193459  0.07554630  0.55268600  1  0.05396  -0.000538  3.790996  -0.001  0.070677  -0.000391  4.016967  0.0  0.069888  -0.000248  4.041062  0.0  -0.002676  0.071113  -0.00051  4.000243  -0.001
C  C57  1  0.48806488  0.92446535  0.44731556  1  0.053922  0.000562  3.790909  0.001  0.070676  0.000397  4.016878  0.001  0.069873  0.000246  4.040974  0.0  -0.002702  0.071118  0.000511  4.000155  0.001
C  C58  1  0.63198505  0.18805691  0.57159952  1  -0.108225  -0.000933  3.695522  -0.001  -0.139988  -0.000434  3.943  -0.001  -0.138506  -0.000321  3.960331  -0.001  -0.077092  -0.140042  -0.000448  3.929593  -0.001
C  C59  1  0.36801735  0.81195363  0.42840395  1  -0.10828  0.000919  3.695456  0.001  -0.140085  0.000424  3.942959  0.001  -0.138596  0.000323  3.960286  0.001  -0.077144  -0.140143  0.000447  3.929555  0.001
C  C60  1  0.72665882  0.15359398  0.49125026  1  -0.054112  0.001509  3.761333  0.002  -0.033893  0.000443  3.99592  0.0  -0.043304  0.000259  4.0178  0.0  -0.017438  -0.027367  0.000448  3.980656  0.0
C  C61  1  0.27334113  0.84641544  0.50874872  1  -0.05407  -0.001471  3.761055  -0.002  -0.033937  -0.000434  3.995781  0.0  -0.04335  -0.000258  4.017662  0.0  -0.017441  -0.027397  -0.000438  3.980501  0.0
C  C62  1  0.70611613  0.00313446  0.39117370  1  -0.076523  0.001259  3.747507  0.002  -0.101527  0.000849  3.994837  0.001  -0.101505  0.000571  4.015186  0.001  -0.088931  -0.101773  0.000854  3.98237  0.001
C  C63  1  0.29388277  0.99687494  0.60882959  1  -0.076462  -0.001262  3.747552  -0.002  -0.10146  -0.000845  3.994868  -0.001  -0.101436  -0.000574  4.015219  -0.001  -0.088833  -0.1017  -0.000854  3.982419  -0.001
C  C64  1  0.58880629  0.89156564  0.36863671  1  -0.104354  0.000851  3.726514  0.001  -0.121059  0.00049  3.972367  0.001  -0.124171  0.000294  3.993952  0.0  -0.085342  -0.118702  0.000498  3.957307  0.001
C  C65  1  0.41118997  0.10844600  0.63136337  1  -0.104422  -0.000876  3.726626  -0.001  -0.121082  -0.000496  3.972492  -0.001  -0.1242  -0.00029  3.994077  0.0  -0.08539  -0.11873  -0.000498  3.957438  -0.001
C  C66  1  0.84247664  0.27835008  0.50374589  1  0.630343  -0.000102  3.880251  0.0  0.595483  0.000309  4.171257  0.0  0.637519  0.000256  4.163684  0.0  0.210926  0.567316  0.000378  4.174387  0.0
C  C67  1  0.15752637  0.72166268  0.49626397  1  0.630443  9.8e-05  3.880239  0.0  0.595595  -0.000307  4.171243  0.0  0.637633  -0.000253  4.163666  0.0  0.210975  0.567428  -0.000381  4.174383  0.0
C  C68  1  0.39606768  0.47690580  0.11856876  1  -0.10165  -0.003205  3.720442  -0.003  -0.127734  -0.001166  3.982787  -0.001  -0.130664  -0.00067  4.004455  -0.001  -0.085459  -0.12598  -0.000242  3.968748  0.0
C  C69  1  0.60393863  0.52309913  0.88143685  1  -0.101795  0.00323  3.720501  0.003  -0.127877  0.001168  3.98285  0.001  -0.130778  0.000668  4.004539  0.001  -0.085438  -0.126122  0.000243  3.968808  0.0
C  C70  1  0.42599428  0.49275162  0.00455491  1  0.05327  -0.00175  3.797677  -0.002  0.070063  -0.001026  4.028318  -0.001  0.069457  -0.000693  4.052908  -0.001  -0.005778  0.070398  -0.000768  4.011532  -0.001
C  C71  1  0.57400852  0.50725219  0.99544963  1  0.053372  0.001747  3.797709  0.002  0.070087  0.001027  4.028411  0.001  0.069483  0.000693  4.052989  0.001  -0.005817  0.070422  0.000768  4.011623  0.001
C  C72  1  0.31474210  0.49723072  0.90051448  1  -0.106725  -0.001359  3.686415  -0.001  -0.139804  -0.000957  3.931871  -0.001  -0.140254  -0.000605  3.952382  -0.001  -0.077767  -0.140415  0.000474  3.919874  0.0
C  C73  1  0.68526226  0.50277085  0.09948857  1  -0.106744  0.001332  3.686681  0.001  -0.139799  0.000956  3.932161  0.001  -0.140244  0.000604  3.952667  0.001  -0.077772  -0.140404  -0.000478  3.920154  0.0
C  C74  1  0.34667729  0.51229655  0.79036359  1  -0.039161  0.002347  3.758392  0.003  -0.02284  0.000559  3.999463  0.001  -0.030971  0.000264  4.0203  0.0  -0.013557  -0.017989  6.4e-05  3.986868  0.0
C  C75  1  0.65332803  0.48770055  0.20963699  1  -0.03925  -0.002315  3.758462  -0.002  -0.022893  -0.000552  3.999468  -0.001  -0.03102  -0.00026  4.020294  0.0  -0.013595  -0.018039  -5.4e-05  3.986863  0.0
C  C76  1  0.22438680  0.51364202  0.68161135  1  0.64209  -0.000719  3.876001  -0.001  0.604636  -0.00016  4.171285  0.0  0.647063  -0.000118  4.162239  0.0  0.217242  0.576407  -3.6e-05  4.175594  0.0
C  C77  1  0.77561314  0.48636288  0.31840210  1  0.642225  0.000696  3.876113  0.001  0.604761  0.000163  4.171383  0.0  0.647194  0.000118  4.162329  0.0  0.217358  0.57653  3.4e-05  4.175689  0.0
C  C78  1  0.50751181  0.47656211  0.22025898  1  -0.084091  -0.0007  3.735888  -0.001  -0.111376  -0.001273  4.001373  -0.001  -0.111499  -0.000843  4.02091  -0.001  -0.086126  -0.111357  -0.000758  3.988766  -0.001
C  C79  1  0.49249442  0.52343834  0.77974758  1  -0.083962  0.000678  3.735942  0.001  -0.111212  0.001271  4.001406  0.001  -0.111342  0.000844  4.020933  0.001  -0.086082  -0.11119  0.000757  3.988794  0.001
N  N80  1  0.77876182  0.91219081  0.91486236  1  -0.185992  -4.5e-05  3.477093  0.0  -0.101348  -7.1e-05  3.697614  0.0  -0.119368  -6.1e-05  3.72161  0.0  -0.244644  -0.089045  -8.2e-05  3.68084  0.0
N  N81  1  0.22123573  0.08780514  0.08513637  1  -0.185997  6.4e-05  3.477097  0.0  -0.101264  6.5e-05  3.697637  0.0  -0.119279  6.4e-05  3.721631  0.0  -0.244623  -0.088964  8.2e-05  3.680864  0.0
N  N82  1  0.87049631  0.73565834  0.77761348  1  -0.474973  -0.00135  3.04274  -0.001  -0.44725  -0.000937  3.338999  0.0  -0.471397  -0.000939  3.349385  0.0  -0.352539  -0.430489  -0.000837  3.332115  0.0
N  N83  1  0.12950396  0.26433986  0.22238571  1  -0.474843  0.001378  3.042641  0.001  -0.447088  0.000931  3.338872  0.0  -0.47124  0.000944  3.349261  0.0  -0.352485  -0.430328  0.000838  3.332  0.0
O  O84  1  0.21562303  0.43325796  0.55471367  1  -0.567028  -0.074845  2.102754  -0.099  -0.540091  -0.049511  2.370959  -0.072  -0.58366  -0.038392  2.362122  -0.059  -0.302848  -0.510897  -0.050681  2.376851  -0.071
O  O85  1  0.78438217  0.56673466  0.44528064  1  -0.566933  0.074834  2.103347  0.099  -0.540017  0.049499  2.371555  0.072  -0.583573  0.038384  2.362711  0.059  -0.302777  -0.51085  0.05067  2.377438  0.071
O  O86  1  0.13928418  0.59464402  0.72704991  1  -0.570641  0.081879  2.121569  0.108  -0.54782  0.052895  2.402412  0.077  -0.592211  0.040631  2.394599  0.063  -0.30504  -0.517829  0.054898  2.407734  0.077
O  O87  1  0.86072861  0.40535310  0.27294934  1  -0.570796  -0.081892  2.12123  -0.108  -0.547954  -0.052906  2.40208  -0.077  -0.592362  -0.040642  2.394266  -0.063  -0.305163  -0.517939  -0.054916  2.407419  -0.077
O  O88  1  0.91836856  0.24420748  0.41863757  1  -0.574235  -0.068336  2.074901  -0.09  -0.54634  -0.047347  2.344014  -0.069  -0.588583  -0.037078  2.334367  -0.057  -0.308966  -0.516632  -0.050899  2.350226  -0.071
O  O89  1  0.08164055  0.75579187  0.58136187  1  -0.574289  0.068321  2.075188  0.09  -0.546375  0.047341  2.344273  0.069  -0.588603  0.037068  2.33462  0.057  -0.308994  -0.51669  0.050884  2.35048  0.071
O  O90  1  0.85043438  0.40928606  0.59580407  1  -0.573739  0.077544  2.111846  0.102  -0.54945  0.051417  2.386944  0.074  -0.593593  0.039638  2.37949  0.061  -0.314228  -0.519131  0.054401  2.391394  0.076
O  O91  1  0.14957209  0.59071553  0.40419486  1  -0.573768  -0.077551  2.111609  -0.102  -0.549491  -0.051423  2.386736  -0.074  -0.593645  -0.039647  2.379281  -0.061  -0.314211  -0.519141  -0.054407  2.391194  -0.076
