# generated using pymatgen
data_Mo2H11C9(NO2)3
_symmetry_space_group_name_H-M   'P 1'
_cell_length_a   7.30024642
_cell_length_b   7.48916365
_cell_length_c   11.59437098
_cell_angle_alpha   85.91370632
_cell_angle_beta   85.95752166
_cell_angle_gamma   89.18019328
_symmetry_Int_Tables_number   1
_chemical_formula_structural   Mo2H11C9(NO2)3
_chemical_formula_sum   'Mo4 H22 C18 N6 O12'
_cell_volume   630.68403193
_cell_formula_units_Z   2
loop_
 _symmetry_equiv_pos_site_id
 _symmetry_equiv_pos_as_xyz
  1  'x, y, z'
loop_
 _atom_site_type_symbol
 _atom_site_label
 _atom_site_symmetry_multiplicity
 _atom_site_fract_x
 _atom_site_fract_y
 _atom_site_fract_z
 _atom_site_occupancy
 _atom_site_hle17_bader_spin_density
 _atom_site_hle17_ddec_charge
 _atom_site_hle17_ddec_spin_density
 _atom_site_hle17_ddec_sum_bond_order
 _atom_site_hle17_magmom
 _atom_site_hse06_10hf_bader_spin_density
 _atom_site_hse06_10hf_ddec_charge
 _atom_site_hse06_10hf_ddec_spin_density
 _atom_site_hse06_10hf_ddec_sum_bond_order
 _atom_site_hse06_10hf_magmom
 _atom_site_hse06_bader_spin_density
 _atom_site_hse06_ddec_charge
 _atom_site_hse06_ddec_spin_density
 _atom_site_hse06_ddec_sum_bond_order
 _atom_site_hse06_magmom
 _atom_site_pbe_bader_spin_density
 _atom_site_pbe_cm5_charge
 _atom_site_pbe_ddec_charge
 _atom_site_pbe_ddec_spin_density
 _atom_site_pbe_ddec_sum_bond_order
 _atom_site_pbe_magmom
Mo  Mo0  1  0.36687215  0.67443401  0.55417243  1  0  2.163769  0  4.073305  0  0  2.150088  0  4.63382  0  0  2.248125  0  4.599761  0  0  1.527924  2.077905  0  4.663793  0
Mo  Mo1  1  0.63312600  0.32555739  0.44582562  1  0  2.163841  0  4.073253  0  0  2.150182  0  4.633724  0  0  2.248203  0  4.599682  0  0  1.528005  2.078007  0  4.6637  0
Mo  Mo2  1  0.13660148  0.35910385  0.41115852  1  0  2.168387  0  4.082128  0  0  2.154966  0  4.63777  0  0  2.253384  0  4.605471  0  0  1.54218  2.08148  0  4.668232  0
Mo  Mo3  1  0.86341167  0.64091157  0.58885847  1  0  2.168297  0  4.082136  0  0  2.154846  0  4.637808  0  0  2.253264  0  4.605501  0  0  1.542248  2.081368  0  4.668264  0
H  H4  1  0.32494114  0.39673491  0.84902868  1  0  0.106138  0  0.912868  0  0  0.11851  0  0.969669  0  0  0.121225  0  0.965721  0  0  0.150843  0.116504  0  0.972548  0
H  H5  1  0.67506245  0.60326851  0.15097375  1  0  0.106046  0  0.913  0  0  0.118428  0  0.969785  0  0  0.121141  0  0.965836  0  0  0.150793  0.116423  0  0.972662  0
H  H6  1  0.03619648  0.03973542  0.66084654  1  0  0.129311  0  0.956017  0  0  0.13755  0  1.017184  0  0  0.140998  0  1.012727  0  0  0.149943  0.134881  0  1.020621  0
H  H7  1  0.96380302  0.96026401  0.33915195  1  0  0.129374  0  0.956033  0  0  0.137613  0  1.017184  0  0  0.141065  0  1.012726  0  0  0.149951  0.134947  0  1.020618  0
H  H8  1  0.99396782  0.85775205  0.81380615  1  0  0.077229  0  0.933045  0  0  0.087817  0  0.997526  0  0  0.088863  0  0.997828  0  0  0.104101  0.087049  0  0.997404  0
H  H9  1  0.00603166  0.14225006  0.18619221  1  0  0.07722  0  0.933024  0  0  0.087783  0  0.997493  0  0  0.088829  0  0.997794  0  0  0.104097  0.087015  0  0.997372  0
H  H10  1  0.79960468  0.13820119  0.78214526  1  0  0.09124  0  0.935772  0  0  0.107815  0  0.996655  0  0  0.109169  0  0.996022  0  0  0.097157  0.10676  0  0.997233  0
H  H11  1  0.20039205  0.86180093  0.21785495  1  0  0.091254  0  0.93578  0  0  0.107828  0  0.996644  0  0  0.10918  0  0.996013  0  0  0.097154  0.106767  0  0.997226  0
H  H12  1  0.67273095  0.96017470  0.85233914  1  0  0.084082  0  0.933111  0  0  0.104211  0  0.989993  0  0  0.105136  0  0.990175  0  0  0.095531  0.103499  0  0.989955  0
H  H13  1  0.32726992  0.03982204  0.14766113  1  0  0.084131  0  0.933077  0  0  0.104249  0  0.989963  0  0  0.105174  0  0.990143  0  0  0.095546  0.103535  0  0.989929  0
H  H14  1  0.61177973  0.24803632  0.95038758  1  0  0.034737  0  0.922624  0  0  0.052061  0  0.97585  0  0  0.052179  0  0.976274  0  0  0.089141  0.051862  0  0.975711  0
H  H15  1  0.38821564  0.75196313  0.04961195  1  0  0.034745  0  0.92257  0  0  0.052076  0  0.97581  0  0  0.05219  0  0.976239  0  0  0.08913  0.051877  0  0.975671  0
H  H16  1  0.86306563  0.37239310  0.05695704  1  0  0.073189  0  0.940203  0  0  0.091598  0  1.004548  0  0  0.092197  0  1.00497  0  0  0.09026  0.091124  0  1.004297  0
H  H17  1  0.13693111  0.62760768  0.94304150  1  0  0.073172  0  0.940275  0  0  0.091603  0  1.00459  0  0  0.092202  0  1.005012  0  0  0.090249  0.091128  0  1.00434  0
H  H18  1  0.91660776  0.38762418  0.90464753  1  0  0.091244  0  0.962616  0  0  0.105746  0  1.030578  0  0  0.107636  0  1.02957  0  0  0.089452  0.104289  0  1.03148  0
H  H19  1  0.08338899  0.61237392  0.09535200  1  0  0.091258  0  0.962622  0  0  0.105758  0  1.030578  0  0  0.107649  0  1.029568  0  0  0.089454  0.104299  0  1.031481  0
H  H20  1  0.18421214  0.27140744  0.01603384  1  0  0.056516  0  0.918849  0  0  0.07053  0  0.978439  0  0  0.071127  0  0.978746  0  0  0.098053  0.070018  0  0.978345  0
H  H21  1  0.81578597  0.72859467  0.98396631  1  0  0.056484  0  0.918864  0  0  0.070505  0  0.978451  0  0  0.0711  0  0.978764  0  0  0.098034  0.070001  0  0.978348  0
H  H22  1  0.33493891  0.87878017  0.84820700  1  0  0.112186  0  0.958329  0  0  0.130964  0  1.015636  0  0  0.133504  0  1.01385  0  0  0.096342  0.129052  0  1.017095  0
H  H23  1  0.66506334  0.12121522  0.15178724  1  0  0.112293  0  0.958284  0  0  0.131054  0  1.015619  0  0  0.133595  0  1.013832  0  0  0.096396  0.129142  0  1.017078  0
H  H24  1  0.40897558  0.04847499  0.93310035  1  0  0.07379  0  0.978198  0  0  0.086448  0  1.053195  0  0  0.087067  0  1.053804  0  0  0.091144  0.08598  0  1.052767  0
H  H25  1  0.59102391  0.95152444  0.06690072  1  0  0.07379  0  0.978149  0  0  0.086463  0  1.05315  0  0  0.087083  0  1.053758  0  0  0.091143  0.085996  0  1.052722  0
C  C26  1  0.26566934  0.33391904  0.77932311  1  0  0.201827  0  3.592763  0  0  0.141707  0  3.868949  0  0  0.157384  0  3.876351  0  0  0.17405  0.131424  0  3.863778  0
C  C27  1  0.73432742  0.66607371  0.22068098  1  0  0.201995  0  3.59255  0  0  0.14188  0  3.868742  0  0  0.157557  0  3.876143  0  0  0.174213  0.131595  0  3.863574  0
C  C28  1  0.11885534  0.14973577  0.68345878  1  0  0.223857  0  3.553344  0  0  0.166771  0  3.817951  0  0  0.183765  0  3.823929  0  0  0.183525  0.155625  0  3.813823  0
C  C29  1  0.88114689  0.85026498  0.31653866  1  0  0.22363  0  3.553695  0  0  0.166529  0  3.818287  0  0  0.18352  0  3.824268  0  0  0.183458  0.155381  0  3.81416  0
C  C30  1  0.12346822  0.06572671  0.90060294  1  0  0.185581  0  3.489756  0  0  0.184346  0  3.725036  0  0  0.188739  0  3.742176  0  0  0.09482  0.181402  0  3.713306  0
C  C31  1  0.87653265  0.93427137  0.09939640  1  0  0.18566  0  3.4896  0  0  0.184399  0  3.724919  0  0  0.188792  0  3.742054  0  0  0.094825  0.181451  0  3.713193  0
C  C32  1  0.95913924  0.94348033  0.88550255  1  0  -0.064291  0  3.557031  0  0  -0.071137  0  3.787256  0  0  -0.073194  0  3.804571  0  0  -0.07999  -0.06971  0  3.775441  0
C  C33  1  0.04086026  0.05651642  0.11449778  1  0  -0.064343  0  3.55718  0  0  -0.071048  0  3.787156  0  0  -0.073102  0  3.80447  0  0  -0.079956  -0.069623  0  3.775344  0
C  C34  1  0.78438561  0.05316716  0.86332570  1  0  -0.169914  0  3.636832  0  0  -0.220528  0  3.890428  0  0  -0.221266  0  3.903144  0  0  -0.167042  -0.219808  0  3.881569  0
C  C35  1  0.21561252  0.94683094  0.13667377  1  0  -0.169953  0  3.636904  0  0  -0.220557  0  3.890451  0  0  -0.221294  0  3.903162  0  0  -0.167043  -0.219835  0  3.881595  0
C  C36  1  0.73642794  0.16757738  0.96588392  1  0  0.053236  0  3.639175  0  0  0.055991  0  3.880674  0  0  0.055972  0  3.89762  0  0  -0.090959  0.056087  0  3.868905  0
C  C37  1  0.26357154  0.83242606  0.03411351  1  0  0.053292  0  3.639155  0  0  0.055979  0  3.880718  0  0  0.055963  0  3.897665  0  0  -0.090925  0.056073  0  3.868951  0
C  C38  1  0.89546295  0.29343894  0.98143319  1  0  -0.176448  0  3.642395  0  0  -0.230171  0  3.903389  0  0  -0.231453  0  3.916758  0  0  -0.170842  -0.229067  0  3.894058  0
C  C39  1  0.10453380  0.70655783  0.01856640  1  0  -0.176545  0  3.642495  0  0  -0.230262  0  3.9035  0  0  -0.231543  0  3.916859  0  0  -0.170882  -0.22915  0  3.894149  0
C  C40  1  0.06950692  0.18249270  0.00279368  1  0  -0.051984  0  3.568323  0  0  -0.062056  0  3.80693  0  0  -0.063706  0  3.824436  0  0  -0.078976  -0.060833  0  3.794854  0
C  C41  1  0.93049120  0.81750540  0.99720665  1  0  -0.051847  0  3.568137  0  0  -0.061915  0  3.806814  0  0  -0.063564  0  3.82432  0  0  -0.078907  -0.060697  0  3.794741  0
C  C42  1  0.29708557  0.95514194  0.92389074  1  0  -0.232899  0  3.641563  0  0  -0.289102  0  3.897027  0  0  -0.29158  0  3.909492  0  0  -0.169856  -0.28722  0  3.88841  0
C  C43  1  0.70291390  0.04486151  0.07611360  1  0  -0.233012  0  3.64144  0  0  -0.289256  0  3.896968  0  0  -0.291733  0  3.909428  0  0  -0.169898  -0.287369  0  3.888349  0
N  N44  1  0.27859049  0.39442659  0.66960647  1  0  -0.27013  0  3.203954  0  0  -0.240077  0  3.498594  0  0  -0.253505  0  3.517545  0  0  -0.241956  -0.230765  0  3.485454  0
N  N45  1  0.72141172  0.60557818  0.33039768  1  0  -0.270072  0  3.204299  0  0  -0.240039  0  3.49892  0  0  -0.253465  0  3.51787  0  0  -0.241915  -0.23073  0  3.485778  0
N  N46  1  0.18570204  0.27823508  0.60979990  1  0  -0.280505  0  3.239021  0  0  -0.247727  0  3.531364  0  0  -0.263589  0  3.551379  0  0  -0.25355  -0.236579  0  3.517438  0
N  N47  1  0.81429745  0.72176702  0.39018984  1  0  -0.280449  0  3.239338  0  0  -0.24758  0  3.531585  0  0  -0.263439  0  3.551607  0  0  -0.253469  -0.23643  0  3.517651  0
N  N48  1  0.16494960  0.18047775  0.79216383  1  0  -0.123648  0  3.441973  0  0  -0.03559  0  3.660331  0  0  -0.052428  0  3.681867  0  0  -0.213253  -0.024612  0  3.645655  0
N  N49  1  0.83504713  0.81952304  0.20783816  1  0  -0.123696  0  3.441743  0  0  -0.035674  0  3.660179  0  0  -0.052517  0  3.681718  0  0  -0.213425  -0.024697  0  3.645504  0
O  O50  1  0.38837244  0.43581813  0.43060083  1  0  -1.007061  0  1.921544  0  0  -1.001724  0  2.23747  0  0  -1.046948  0  2.231858  0  0  -0.604984  -0.966879  0  2.240199  0
O  O51  1  0.61162291  0.56418667  0.56940104  1  0  -1.006983  0  1.921438  0  0  -1.001656  0  2.237385  0  0  -1.046932  0  2.231867  0  0  -0.604881  -0.966809  0  2.240114  0
O  O52  1  0.11374866  0.62418369  0.51762040  1  0  -1.00443  0  1.925797  0  0  -0.998684  0  2.240989  0  0  -1.044661  0  2.237617  0  0  -0.604141  -0.96317  0  2.241933  0
O  O53  1  0.88626459  0.37580896  0.48237780  1  0  -1.004506  0  1.925722  0  0  -0.998773  0  2.240908  0  0  -1.044743  0  2.237527  0  0  -0.60414  -0.963263  0  2.241857  0
O  O54  1  0.41716907  0.83635468  0.44679542  1  0  -0.584666  0  1.404257  0  0  -0.585609  0  1.639163  0  0  -0.609326  0  1.631177  0  0  -0.487968  -0.568963  0  1.645941  0
O  O55  1  0.58283588  0.16365677  0.55320399  1  0  -0.584639  0  1.404453  0  0  -0.585569  0  1.639345  0  0  -0.609287  0  1.631365  0  0  -0.487936  -0.568923  0  1.646125  0
O  O56  1  0.33229930  0.78349923  0.67853735  1  0  -0.664647  0  1.441959  0  0  -0.670486  0  1.695555  0  0  -0.698309  0  1.686894  0  0  -0.505927  -0.650669  0  1.702455  0
O  O57  1  0.66770429  0.21650553  0.32146847  1  0  -0.664558  0  1.442089  0  0  -0.670434  0  1.695716  0  0  -0.698249  0  1.687058  0  0  -0.505958  -0.650621  0  1.702618  0
O  O58  1  0.10976616  0.46834220  0.27793544  1  0  -0.659066  0  1.404315  0  0  -0.660267  0  1.643547  0  0  -0.685642  0  1.635215  0  0  -0.516131  -0.642137  0  1.650696  0
O  O59  1  0.89023607  0.53165855  0.72206632  1  0  -0.659083  0  1.404594  0  0  -0.660259  0  1.643827  0  0  -0.685626  0  1.635494  0  0  -0.516169  -0.642137  0  1.65098  0
O  O60  1  0.15183436  0.13829344  0.38444076  1  0  -0.636808  0  1.467601  0  0  -0.634136  0  1.719254  0  0  -0.661027  0  1.710953  0  0  -0.489025  -0.614701  0  1.726066  0
O  O61  1  0.84816515  0.86170331  0.61555612  1  0  -0.636619  0  1.467783  0  0  -0.633978  0  1.719523  0  0  -0.660846  0  1.711202  0  0  -0.489056  -0.61455  0  1.726339  0
