# generated using pymatgen
data_CdH8(C5N4)2
_symmetry_space_group_name_H-M   'P 1'
_cell_length_a   6.63141936
_cell_length_b   9.47320119
_cell_length_c   11.09593243
_cell_angle_alpha   115.26478646
_cell_angle_beta   106.06639578
_cell_angle_gamma   90.01751593
_symmetry_Int_Tables_number   1
_chemical_formula_structural   CdH8(C5N4)2
_chemical_formula_sum   'Cd2 H16 C20 N16'
_cell_volume   600.10585157
_cell_formula_units_Z   2
loop_
 _symmetry_equiv_pos_site_id
 _symmetry_equiv_pos_as_xyz
  1  'x, y, z'
loop_
 _atom_site_type_symbol
 _atom_site_label
 _atom_site_symmetry_multiplicity
 _atom_site_fract_x
 _atom_site_fract_y
 _atom_site_fract_z
 _atom_site_occupancy
 _atom_site_hle17_bader_spin_density
 _atom_site_hle17_ddec_charge
 _atom_site_hle17_ddec_spin_density
 _atom_site_hle17_ddec_sum_bond_order
 _atom_site_hle17_magmom
 _atom_site_hse06_10hf_bader_spin_density
 _atom_site_hse06_10hf_ddec_charge
 _atom_site_hse06_10hf_ddec_spin_density
 _atom_site_hse06_10hf_ddec_sum_bond_order
 _atom_site_hse06_10hf_magmom
 _atom_site_hse06_bader_spin_density
 _atom_site_hse06_ddec_charge
 _atom_site_hse06_ddec_spin_density
 _atom_site_hse06_ddec_sum_bond_order
 _atom_site_hse06_magmom
 _atom_site_pbe_bader_spin_density
 _atom_site_pbe_cm5_charge
 _atom_site_pbe_ddec_charge
 _atom_site_pbe_ddec_spin_density
 _atom_site_pbe_ddec_sum_bond_order
 _atom_site_pbe_magmom
Cd  Cd0  1  0.25003394  0.09395310  0.99997463  1  0  1.019736  0  1.943816  0  0  0.829001  0  2.426492  0  0  0.874898  0  2.387288  0  0  0.788386  0.796789  0  2.452588  0
Cd  Cd1  1  0.74996265  0.90604726  0.00002601  1  0  1.019773  0  1.943796  0  0  0.829023  0  2.4265  0  0  0.874938  0  2.387262  0  0  0.788406  0.796813  0  2.452598  0
H  H2  1  0.19071522  0.59791686  0.89351741  1  0  0.10951  0  0.946376  0  0  0.120056  0  1.005994  0  0  0.122996  0  1.005332  0  0  0.108371  0.118006  0  1.007035  0
H  H3  1  0.30891360  0.70446123  0.10639460  1  0  0.108968  0  0.946681  0  0  0.119635  0  1.006198  0  0  0.122572  0  1.005537  0  0  0.107916  0.117589  0  1.007225  0
H  H4  1  0.80928450  0.40208350  0.10648193  1  0  0.109534  0  0.946346  0  0  0.120072  0  1.005977  0  0  0.123011  0  1.005317  0  0  0.10838  0.118023  0  1.007016  0
H  H5  1  0.69108926  0.29553913  0.89360617  1  0  0.108974  0  0.94666  0  0  0.119639  0  1.006182  0  0  0.122575  0  1.005522  0  0  0.107916  0.117594  0  1.007209  0
H  H6  1  0.01141402  0.45510398  0.63776987  1  0  0.101801  0  0.970549  0  0  0.107144  0  1.039284  0  0  0.109417  0  1.03756  0  0  0.10727  0.105402  0  1.040749  0
H  H7  1  0.48827260  0.81727742  0.36211543  1  0  0.101488  0  0.971269  0  0  0.106664  0  1.040294  0  0  0.109039  0  1.038426  0  0  0.107226  0.104863  0  1.041825  0
H  H8  1  0.98859041  0.54489639  0.36223025  1  0  0.101812  0  0.970543  0  0  0.107147  0  1.039281  0  0  0.109419  0  1.037557  0  0  0.107268  0.105405  0  1.040747  0
H  H9  1  0.51173183  0.18272295  0.63788470  1  0  0.101519  0  0.971252  0  0  0.106693  0  1.040283  0  0  0.109069  0  1.038415  0  0  0.107235  0.104893  0  1.041814  0
H  H10  1  0.90332787  0.16282946  0.52802445  1  0  0.104466  0  0.970728  0  0  0.108457  0  1.040264  0  0  0.111164  0  1.039949  0  0  0.105716  0.106794  0  1.040341  0
H  H11  1  0.59664288  0.63472462  0.47175892  1  0  0.104448  0  0.971456  0  0  0.108575  0  1.040707  0  0  0.111261  0  1.040433  0  0  0.105746  0.106914  0  1.040784  0
H  H12  1  0.09667498  0.83717090  0.47197452  1  0  0.104492  0  0.970756  0  0  0.108483  0  1.0403  0  0  0.111192  0  1.039981  0  0  0.105718  0.106822  0  1.040375  0
H  H13  1  0.40335998  0.36527574  0.52824185  1  0  0.104448  0  0.97147  0  0  0.10858  0  1.040712  0  0  0.111264  0  1.040442  0  0  0.105739  0.106918  0  1.040789  0
H  H14  1  0.98625165  0.02556629  0.68233065  1  0  0.076912  0  0.942602  0  0  0.084782  0  1.007985  0  0  0.086257  0  1.007505  0  0  0.116667  0.083295  0  1.008973  0
H  H15  1  0.51384563  0.34317940  0.31738302  1  0  0.076963  0  0.943489  0  0  0.084633  0  1.00909  0  0  0.086171  0  1.008533  0  0  0.116901  0.083103  0  1.010134  0
H  H16  1  0.01374651  0.97443407  0.31766935  1  0  0.076891  0  0.942607  0  0  0.084767  0  1.007984  0  0  0.086241  0  1.007506  0  0  0.116653  0.083279  0  1.008974  0
H  H17  1  0.48614939  0.65682095  0.68261736  1  0  0.076967  0  0.943415  0  0  0.084626  0  1.009044  0  0  0.086161  0  1.008489  0  0  0.116886  0.083105  0  1.010058  0
C  C18  1  0.19221721  0.38598222  0.92351402  1  0  0.170859  0  3.763655  0  0  0.165243  0  4.00878  0  0  0.172135  0  4.028626  0  0  0.115637  0.160959  0  3.995079  0
C  C19  1  0.30751043  0.46242479  0.07627942  1  0  0.167112  0  3.767611  0  0  0.163347  0  4.01089  0  0  0.170096  0  4.030882  0  0  0.115151  0.159163  0  3.997095  0
C  C20  1  0.80778251  0.61401814  0.07648623  1  0  0.170905  0  3.763645  0  0  0.165274  0  4.008772  0  0  0.172168  0  4.02862  0  0  0.115633  0.16099  0  3.995069  0
C  C21  1  0.69248930  0.53757557  0.92372084  1  0  0.167127  0  3.767618  0  0  0.163349  0  4.01089  0  0  0.170103  0  4.030884  0  0  0.115171  0.159168  0  3.997094  0
C  C22  1  0.14545030  0.47093349  0.84447806  1  0  -0.138292  0  3.692314  0  0  -0.15885  0  3.944879  0  0  -0.165449  0  3.966252  0  0  -0.081705  -0.154896  0  3.930942  0
C  C23  1  0.35425127  0.62644772  0.15535081  1  0  -0.137441  0  3.693316  0  0  -0.15825  0  3.945004  0  0  -0.164809  0  3.966435  0  0  -0.081242  -0.154296  0  3.930978  0
C  C24  1  0.85455100  0.52906687  0.15552245  1  0  -0.138294  0  3.692363  0  0  -0.158854  0  3.944919  0  0  -0.165453  0  3.966291  0  0  -0.081695  -0.154899  0  3.930979  0
C  C25  1  0.64575181  0.37355382  0.84465042  1  0  -0.13745  0  3.69341  0  0  -0.158233  0  3.945053  0  0  -0.164794  0  3.966485  0  0  -0.081233  -0.154282  0  3.93103  0
C  C26  1  0.04456524  0.39096836  0.70093808  1  0  0.003714  0  3.708664  0  0  -0.014234  0  3.954388  0  0  -0.011156  0  3.974622  0  0  -0.063813  -0.015506  0  3.94047  0
C  C27  1  0.45523722  0.69000212  0.29888463  1  0  0.004986  0  3.707633  0  0  -0.0131  0  3.953795  0  0  -0.010081  0  3.974007  0  0  -0.06319  -0.014309  0  3.939844  0
C  C28  1  0.95543761  0.60903200  0.29906088  1  0  0.003684  0  3.708717  0  0  -0.014226  0  3.954409  0  0  -0.01115  0  3.974644  0  0  -0.063815  -0.015503  0  3.9405  0
C  C29  1  0.54476585  0.30999942  0.70111570  1  0  0.00496  0  3.707673  0  0  -0.01315  0  3.953848  0  0  -0.010132  0  3.974057  0  0  -0.063186  -0.014361  0  3.939902  0
C  C30  1  0.98713167  0.22829077  0.63929263  1  0  -0.102703  0  3.708358  0  0  -0.111332  0  3.953465  0  0  -0.118823  0  3.976057  0  0  -0.074216  -0.106515  0  3.937562  0
C  C31  1  0.51285655  0.58900724  0.36050305  1  0  -0.103371  0  3.709057  0  0  -0.11204  0  3.954293  0  0  -0.119515  0  3.976899  0  0  -0.075265  -0.107234  0  3.938387  0
C  C32  1  0.01287119  0.77170959  0.36070724  1  0  -0.102755  0  3.70839  0  0  -0.111419  0  3.953538  0  0  -0.118905  0  3.976125  0  0  -0.074259  -0.1066  0  3.937631  0
C  C33  1  0.48714474  0.41099312  0.63949656  1  0  -0.103358  0  3.709092  0  0  -0.112029  0  3.954327  0  0  -0.119501  0  3.976932  0  0  -0.075265  -0.107223  0  3.938421  0
C  C34  1  0.03301267  0.15198134  0.72452197  1  0  0.136254  0  3.706997  0  0  0.104923  0  3.959017  0  0  0.111342  0  3.978634  0  0  0.048689  0.101259  0  3.94519  0
C  C35  1  0.46701801  0.42746488  0.27525980  1  0  0.136282  0  3.707646  0  0  0.104978  0  3.959677  0  0  0.111326  0  3.979275  0  0  0.049098  0.101359  0  3.945898  0
C  C36  1  0.96698862  0.84801902  0.27547764  1  0  0.136364  0  3.706945  0  0  0.105025  0  3.958969  0  0  0.111438  0  3.978591  0  0  0.048774  0.101359  0  3.945141  0
C  C37  1  0.53297858  0.57253548  0.72474084  1  0  0.136263  0  3.707623  0  0  0.104952  0  3.959644  0  0  0.111298  0  3.979241  0  0  0.049097  0.101336  0  3.945866  0
N  N38  1  0.99016654  0.87825017  0.86366030  1  0  -0.624177  0  2.761541  0  0  -0.578127  0  3.077005  0  0  -0.603664  0  3.082669  0  0  -0.339396  -0.560578  0  3.072988  0
N  N39  1  0.50979375  0.01463251  0.13636642  1  0  -0.623671  0  2.760045  0  0  -0.577623  0  3.075788  0  0  -0.603174  0  3.081526  0  0  -0.339132  -0.560061  0  3.071692  0
N  N40  1  0.00983027  0.12175137  0.13634170  1  0  -0.624128  0  2.761664  0  0  -0.57806  0  3.077114  0  0  -0.60359  0  3.082774  0  0  -0.339359  -0.560515  0  3.073101  0
N  N41  1  0.49020282  0.98536784  0.86363151  1  0  -0.623564  0  2.760164  0  0  -0.577617  0  3.07585  0  0  -0.603161  0  3.081583  0  0  -0.339111  -0.560061  0  3.071756  0
N  N42  1  0.98121530  0.78622475  0.74590946  1  0  0.400693  0  4.243461  0  0  0.430745  0  4.52898  0  0  0.446683  0  4.558622  0  0  0.079364  0.42009  0  4.50968  0
N  N43  1  0.51872288  0.04037018  0.25412484  1  0  0.399586  0  4.243176  0  0  0.42944  0  4.528964  0  0  0.445355  0  4.558685  0  0  0.079058  0.418811  0  4.509591  0
N  N44  1  0.01878221  0.21377206  0.25408735  1  0  0.400636  0  4.243325  0  0  0.430693  0  4.528838  0  0  0.446629  0  4.558482  0  0  0.07932  0.420038  0  4.509537  0
N  N45  1  0.48127551  0.95963138  0.74587923  1  0  0.399585  0  4.243259  0  0  0.429562  0  4.528782  0  0  0.445477  0  4.558505  0  0  0.079082  0.418934  0  4.509409  0
N  N46  1  0.97297219  0.69709834  0.63201104  1  0  -0.383267  0  2.397482  0  0  -0.379746  0  2.623612  0  0  -0.386396  0  2.633325  0  0  -0.185544  -0.37556  0  2.618403  0
N  N47  1  0.52694839  0.06515215  0.36802281  1  0  -0.382664  0  2.398587  0  0  -0.378694  0  2.624353  0  0  -0.385342  0  2.634102  0  0  -0.185454  -0.374568  0  2.619174  0
N  N48  1  0.02702484  0.30290438  0.36799323  1  0  -0.383282  0  2.397188  0  0  -0.379787  0  2.623313  0  0  -0.386438  0  2.633028  0  0  -0.185567  -0.37559  0  2.6181  0
N  N49  1  0.47305132  0.93484820  0.63197473  1  0  -0.382843  0  2.398428  0  0  -0.378861  0  2.624132  0  0  -0.385517  0  2.633886  0  0  -0.185526  -0.374738  0  2.61896  0
N  N50  1  0.13386496  0.22856623  0.86242723  1  0  -0.364883  0  3.261131  0  0  -0.293461  0  3.523656  0  0  -0.311835  0  3.542187  0  0  -0.331227  -0.281076  0  3.510825  0
N  N51  1  0.36606957  0.36612802  0.13736252  1  0  -0.363276  0  3.262021  0  0  -0.292121  0  3.523643  0  0  -0.310427  0  3.542174  0  0  -0.330986  -0.279756  0  3.510751  0
N  N52  1  0.86613476  0.77143413  0.13757212  1  0  -0.365014  0  3.261169  0  0  -0.293573  0  3.523704  0  0  -0.31195  0  3.542238  0  0  -0.331288  -0.281187  0  3.510873  0
N  N53  1  0.63392702  0.63387233  0.86263722  1  0  -0.363278  0  3.262018  0  0  -0.292122  0  3.523655  0  0  -0.310433  0  3.542195  0  0  -0.330998  -0.27976  0  3.510763  0
