# generated using pymatgen
data_Cd2H16C29N2(O3F2)3
_symmetry_space_group_name_H-M   'P 1'
_cell_length_a   7.59683144
_cell_length_b   15.92859724
_cell_length_c   27.89554586
_cell_angle_alpha   100.01597237
_cell_angle_beta   89.99997845
_cell_angle_gamma   89.99982968
_symmetry_Int_Tables_number   1
_chemical_formula_structural   Cd2H16C29N2(O3F2)3
_chemical_formula_sum   'Cd8 H64 C116 N8 O36 F24'
_cell_volume   3324.10688084
_cell_formula_units_Z   4
loop_
 _symmetry_equiv_pos_site_id
 _symmetry_equiv_pos_as_xyz
  1  'x, y, z'
loop_
 _atom_site_type_symbol
 _atom_site_label
 _atom_site_symmetry_multiplicity
 _atom_site_fract_x
 _atom_site_fract_y
 _atom_site_fract_z
 _atom_site_occupancy
 _atom_site_pbe_bader_charge
 _atom_site_pbe_bader_spin_density
 _atom_site_pbe_cm5_charge
 _atom_site_pbe_ddec_charge
 _atom_site_pbe_ddec_spin_density
 _atom_site_pbe_ddec_sum_bond_order
 _atom_site_pbe_magmom
Cd  Cd0  1  0.47805019  0.78390405  0.91881335  1  1.299719  0  0.783838  0.965752  0  2.144174  0
Cd  Cd1  1  0.95413266  0.84919393  0.95264899  1  1.328365  0  0.786166  0.992269  0  2.126778  0
Cd  Cd2  1  0.97804617  0.21609469  0.58118638  1  1.299671  0  0.783835  0.965767  0  2.144082  0
Cd  Cd3  1  0.45413192  0.15080549  0.54735117  1  1.328335  0  0.786174  0.992268  0  2.126771  0
Cd  Cd4  1  0.52194846  0.21609546  0.08118651  1  1.299725  0  0.78385  0.965761  0  2.144163  0
Cd  Cd5  1  0.04586994  0.15080622  0.04735094  1  1.32834  0  0.786176  0.992307  0  2.126739  0
Cd  Cd6  1  0.02194721  0.78390418  0.41881235  1  1.299681  0  0.783805  0.965695  0  2.144104  0
Cd  Cd7  1  0.54586541  0.84919466  0.45264733  1  1.328366  0  0.786172  0.992254  0  2.126786  0
H  H8  1  0.28338092  0.79916063  0.76859819  1  0.105844  0  0.099153  0.108297  0  1.048929  0
H  H9  1  0.78416475  0.80262374  0.69475142  1  0.084084  0  0.096429  0.1014  0  1.025856  0
H  H10  1  0.63487492  0.77268776  0.76851594  1  0.061955  0  0.104452  0.116743  0  1.000177  0
H  H11  1  0.96582286  0.96364071  0.71446362  1  0.099671  0  0.099523  0.107395  0  1.020738  0
H  H12  1  0.79312214  0.05808219  0.67131052  1  0.108511  0  0.103013  0.110096  0  1.022595  0
H  H13  1  0.06475175  0.79829600  0.57718952  1  0.111801  0  0.095203  0.100135  0  1.064615  0
H  H14  1  0.33166629  0.71711302  0.00887384  1  0.150435  0  0.119609  0.102008  0  1.014223  0
H  H15  1  0.21993588  0.58855008  0.03732703  1  0.087706  0  0.101832  0.104323  0  1.040464  0
H  H16  1  0.34649905  0.44575626  0.89468374  1  0.104064  0  0.106987  0.119246  0  1.018604  0
H  H17  1  0.45049989  0.58235957  0.87249076  1  0.14198  0  0.128512  0.110884  0  0.966142  0
H  H18  1  0.22008233  0.47732819  0.06242946  1  0.051199  0  0.110553  0.118004  0  0.999538  0
H  H19  1  0.11175203  0.34535230  0.08740680  1  0.165062  0  0.12163  0.107482  0  1.014377  0
H  H20  1  0.07680834  0.22052447  0.94470772  1  0.136853  0  0.121467  0.102913  0  0.986647  0
H  H21  1  0.17594797  0.34864598  0.91267974  1  0.051232  0  0.109874  0.120075  0  0.99766  0
H  H22  1  0.05864252  0.94162170  0.04914283  1  0.644744  0  0.290952  0.395608  0  0.932757  0
H  H23  1  0.21793406  0.91024786  0.01417786  1  0.631597  0  0.302772  0.402387  0  0.910728  0
H  H24  1  0.78338075  0.20083840  0.73140194  1  0.10589  0  0.099143  0.108328  0  1.048862  0
H  H25  1  0.28416206  0.19737976  0.80524987  1  0.084158  0  0.096426  0.101388  0  1.025896  0
H  H26  1  0.13487609  0.22731723  0.73148516  1  0.06196  0  0.104418  0.116722  0  1.000127  0
H  H27  1  0.46582515  0.03636252  0.78553798  1  0.099756  0  0.099489  0.107348  0  1.020785  0
H  H28  1  0.29313582  0.94191747  0.82869112  1  0.10862  0  0.103014  0.110077  0  1.022566  0
H  H29  1  0.56474605  0.20170527  0.92281265  1  0.11173  0  0.09522  0.100173  0  1.064529  0
H  H30  1  0.83167184  0.28288808  0.49112729  1  0.150453  0  0.119618  0.102031  0  1.014162  0
H  H31  1  0.71993803  0.41144863  0.46267281  1  0.087688  0  0.101844  0.104348  0  1.040484  0
H  H32  1  0.84650210  0.55424459  0.60531621  1  0.104048  0  0.106992  0.119236  0  1.01853  0
H  H33  1  0.95050113  0.41764049  0.62751054  1  0.141919  0  0.128526  0.110903  0  0.966129  0
H  H34  1  0.72008250  0.52267498  0.43757010  1  0.05125  0  0.110545  0.117984  0  0.99955  0
H  H35  1  0.61175141  0.65464976  0.41259194  1  0.165456  0  0.121634  0.107453  0  1.014445  0
H  H36  1  0.57680478  0.77947615  0.55529188  1  0.13683  0  0.121445  0.102932  0  0.986619  0
H  H37  1  0.67594649  0.65135449  0.58731947  1  0.051274  0  0.10989  0.120107  0  0.997641  0
H  H38  1  0.55864295  0.05837853  0.45085681  1  0.644788  0  0.290917  0.39553  0  0.932862  0
H  H39  1  0.71793556  0.08975150  0.48582204  1  0.631504  0  0.302787  0.402407  0  0.910667  0
H  H40  1  0.71660983  0.20084334  0.23140247  1  0.105969  0  0.099177  0.108347  0  1.048759  0
H  H41  1  0.21582995  0.19737514  0.30524982  1  0.08411  0  0.096438  0.101399  0  1.025844  0
H  H42  1  0.36512505  0.22730601  0.23148372  1  0.061958  0  0.104394  0.116703  0  1.000149  0
H  H43  1  0.03416789  0.03636327  0.28553668  1  0.099683  0  0.09949  0.107303  0  1.020839  0
H  H44  1  0.20687387  0.94192114  0.32868758  1  0.108563  0  0.103016  0.110091  0  1.022624  0
H  H45  1  0.93524822  0.20170351  0.42281142  1  0.111764  0  0.095215  0.100159  0  1.064592  0
H  H46  1  0.66832051  0.28288777  0.99112579  1  0.150437  0  0.119603  0.102006  0  1.014142  0
H  H47  1  0.78005619  0.41144879  0.96267278  1  0.087664  0  0.101824  0.104349  0  1.040526  0
H  H48  1  0.65349828  0.55424325  0.10531577  1  0.104089  0  0.106948  0.119172  0  1.01857  0
H  H49  1  0.54950007  0.41763931  0.12751012  1  0.141944  0  0.128533  0.1109  0  0.966129  0
H  H50  1  0.77990448  0.52267196  0.93756940  1  0.051165  0  0.110536  0.117988  0  0.999572  0
H  H51  1  0.88823740  0.65464657  0.91259157  1  0.165229  0  0.121649  0.107455  0  1.014416  0
H  H52  1  0.92319821  0.77947313  0.05529125  1  0.136374  0  0.121422  0.102883  0  0.986705  0
H  H53  1  0.82405726  0.65135099  0.08731916  1  0.051269  0  0.109851  0.120092  0  0.997598  0
H  H54  1  0.94136271  0.05837526  0.95085678  1  0.644705  0  0.290951  0.395614  0  0.932754  0
H  H55  1  0.78206854  0.08974783  0.98582092  1  0.631552  0  0.302787  0.402428  0  0.910622  0
H  H56  1  0.21661921  0.79916238  0.26859697  1  0.105877  0  0.099157  0.108337  0  1.048856  0
H  H57  1  0.71583791  0.80262103  0.19475048  1  0.08401  0  0.09645  0.10139  0  1.025897  0
H  H58  1  0.86512388  0.77268356  0.26851519  1  0.061974  0  0.104427  0.11674  0  1.000157  0
H  H59  1  0.53418929  0.96363700  0.21446224  1  0.099764  0  0.099482  0.10735  0  1.020872  0
H  H60  1  0.70688521  0.05808269  0.17130989  1  0.108286  0  0.103007  0.110087  0  1.022615  0
H  H61  1  0.43525786  0.79829743  0.07718825  1  0.111843  0  0.095221  0.100195  0  1.064556  0
H  H62  1  0.16832023  0.71711143  0.50887294  1  0.150447  0  0.119612  0.102004  0  1.014151  0
H  H63  1  0.28005667  0.58855280  0.53732868  1  0.087647  0  0.101835  0.104334  0  1.04045  0
H  H64  1  0.15348602  0.44575366  0.39468640  1  0.104094  0  0.107028  0.119293  0  1.018522  0
H  H65  1  0.04948830  0.58235647  0.37249087  1  0.141956  0  0.128484  0.110813  0  0.966129  0
H  H66  1  0.27991352  0.47732517  0.56243127  1  0.051203  0  0.110543  0.11795  0  0.999622  0
H  H67  1  0.38824987  0.34534976  0.58740865  1  0.165175  0  0.121619  0.107443  0  1.014437  0
H  H68  1  0.42319650  0.22052401  0.44470841  1  0.136306  0  0.121435  0.102878  0  0.986642  0
H  H69  1  0.32405347  0.34864630  0.41268160  1  0.051309  0  0.109869  0.120098  0  0.997634  0
H  H70  1  0.44136623  0.94162480  0.54914164  1  0.644713  0  0.290992  0.39567  0  0.932659  0
H  H71  1  0.28206704  0.91025120  0.51417886  1  0.63175  0  0.302769  0.402369  0  0.910702  0
C  C72  1  0.76447763  0.75546448  0.85290458  1  1.579385  0  0.201582  0.584745  0  4.212439  0
C  C73  1  0.87241077  0.77183360  0.81025124  1  -0.023915  0  0.00502  0.003614  0  3.889223  0
C  C74  1  0.05625732  0.77987134  0.80961011  1  -0.006607  0  -0.015335  -0.050233  0  3.934489  0
C  C75  1  0.14057798  0.79546092  0.76732571  1  -0.033161  0  -0.091756  -0.147319  0  3.963857  0
C  C76  1  0.04620705  0.80454761  0.72571044  1  -0.037357  0  -0.02683  0.065351  0  3.973411  0
C  C77  1  0.86229864  0.79610857  0.72662077  1  -0.036159  0  -0.089647  -0.116207  0  3.979099  0
C  C78  1  0.77749357  0.77957536  0.76816999  1  0.040777  0  -0.084811  -0.095415  0  3.947008  0
C  C79  1  0.16861995  0.77097526  0.85266477  1  1.565235  0  0.200868  0.578916  0  4.206803  0
C  C80  1  0.13713575  0.81638074  0.67793081  1  0.049796  0  -0.009214  -0.26405  0  3.848904  0
C  C81  1  0.32050547  0.86108318  0.68654545  1  1.712924  0  0.305181  0.675472  0  3.967851  0
C  C82  1  0.16632981  0.72460469  0.64873459  1  1.69709  0  0.303541  0.679221  0  3.955451  0
C  C83  1  0.02679354  0.87228267  0.64956910  1  -0.005933  0  -0.024126  0.070101  0  3.971563  0
C  C84  1  0.94994000  0.94701242  0.67516860  1  -0.040449  0  -0.085366  -0.111762  0  3.954985  0
C  C85  1  0.85117417  0.00017491  0.65093391  1  -0.057019  0  -0.082356  -0.086705  0  3.93768  0
C  C86  1  0.82654113  0.98005328  0.60048693  1  0.003795  0  0.003082  -0.010808  0  3.90775  0
C  C87  1  0.90511625  0.90631901  0.57451062  1  0.036051  0  -0.017589  -0.056083  0  3.946373  0
C  C88  1  0.00542946  0.85385310  0.59926226  1  -0.082585  0  -0.091439  -0.143104  0  3.97151  0
C  C89  1  0.72039589  0.03928796  0.57558381  1  1.57798  0  0.217357  0.606267  0  4.194024  0
C  C90  1  0.87867376  0.87972062  0.52066903  1  1.570074  0  0.207025  0.584569  0  4.211546  0
C  C91  1  0.33162503  0.65541241  0.98490901  1  0.534979  0  0.04912  0.104786  0  3.93131  0
C  C92  1  0.27112700  0.58254977  0.00048824  1  -0.090251  0  -0.086127  -0.177209  0  3.958954  0
C  C93  1  0.27328014  0.50405000  0.96860804  1  -0.012481  0  0.010658  0.101384  0  3.979466  0
C  C94  1  0.33844549  0.50415649  0.92144423  1  -0.063548  0  -0.082232  -0.17678  0  3.925145  0
C  C95  1  0.39717501  0.58004176  0.90857232  1  0.459518  0  0.057205  0.105814  0  3.937417  0
C  C96  1  0.20971308  0.42570298  0.98478868  1  0.000535  0  0.011408  0.101166  0  3.973504  0
C  C97  1  0.18833375  0.42288768  0.03446160  1  -0.014311  0  -0.079688  -0.165656  0  3.933557  0
C  C98  1  0.12965556  0.34877076  0.04908791  1  0.503491  0  0.050452  0.102002  0  3.93297  0
C  C99  1  0.11098423  0.27913409  0.96936229  1  0.476297  0  0.051007  0.102612  0  3.942551  0
C  C100  1  0.16703238  0.35127906  0.95187536  1  -0.003335  0  -0.080087  -0.167905  0  3.924253  0
C  C101  1  0.26446959  0.24453650  0.64709718  1  1.579481  0  0.201661  0.584946  0  4.212383  0
C  C102  1  0.37241199  0.22816403  0.68974839  1  -0.023848  0  0.004997  0.003527  0  3.889335  0
C  C103  1  0.55626103  0.22012421  0.69039007  1  -0.006229  0  -0.01535  -0.050237  0  3.934705  0
C  C104  1  0.64057515  0.20453770  0.73267619  1  -0.033474  0  -0.091704  -0.147294  0  3.963981  0
C  C105  1  0.54620686  0.19545497  0.77429150  1  -0.037436  0  -0.026787  0.06545  0  3.973313  0
C  C106  1  0.36229595  0.20389673  0.77338141  1  -0.036183  0  -0.089695  -0.116349  0  3.979142  0
C  C107  1  0.27749741  0.22042305  0.73183008  1  0.040715  0  -0.084751  -0.095302  0  3.947009  0
C  C108  1  0.66862498  0.22902267  0.64733562  1  1.565046  0  0.200945  0.579024  0  4.206799  0
C  C109  1  0.63713425  0.18361979  0.82207164  1  0.049531  0  -0.009242  -0.264202  0  3.849151  0
C  C110  1  0.82050163  0.13891516  0.81345605  1  1.71343  0  0.305148  0.675368  0  3.968058  0
C  C111  1  0.66633822  0.27539643  0.85126649  1  1.697092  0  0.303568  0.679118  0  3.955265  0
C  C112  1  0.52679366  0.12771866  0.85043273  1  -0.005786  0  -0.02417  0.070211  0  3.971394  0
C  C113  1  0.44993950  0.05299019  0.82483295  1  -0.040402  0  -0.085365  -0.111821  0  3.954997  0
C  C114  1  0.35118220  0.99982530  0.84906669  1  -0.057037  0  -0.082259  -0.08656  0  3.937582  0
C  C115  1  0.32654469  0.01994696  0.89951403  1  0.003754  0  0.003017  -0.010838  0  3.907758  0
C  C116  1  0.40511536  0.09368112  0.92548997  1  0.036021  0  -0.01759  -0.056067  0  3.946314  0
C  C117  1  0.50542677  0.14614890  0.90073892  1  -0.082653  0  -0.091441  -0.143173  0  3.971347  0
C  C118  1  0.22039616  0.96071244  0.92441647  1  1.577874  0  0.217334  0.606213  0  4.194153  0
C  C119  1  0.37867264  0.12027891  0.97933150  1  1.570148  0  0.206992  0.584487  0  4.211593  0
C  C120  1  0.83162819  0.34458910  0.51509137  1  0.53504  0  0.049194  0.104903  0  3.931187  0
C  C121  1  0.77113170  0.41745205  0.49951117  1  -0.090228  0  -0.086117  -0.177247  0  3.958991  0
C  C122  1  0.77328365  0.49595223  0.53139134  1  -0.012479  0  0.010695  0.101441  0  3.979558  0
C  C123  1  0.83845026  0.49584437  0.57855536  1  -0.063577  0  -0.082307  -0.176839  0  3.925144  0
C  C124  1  0.89717497  0.41996030  0.59142918  1  0.459512  0  0.057172  0.105758  0  3.937498  0
C  C125  1  0.70971612  0.57429807  0.51521131  1  0.000541  0  0.01137  0.101042  0  3.973455  0
C  C126  1  0.68833750  0.57711553  0.46553725  1  -0.01429  0  -0.079758  -0.165646  0  3.933383  0
C  C127  1  0.62966018  0.65123126  0.45091046  1  0.503067  0  0.05048  0.102063  0  3.933016  0
C  C128  1  0.61098370  0.72086775  0.53063779  1  0.476284  0  0.050952  0.102525  0  3.942592  0
C  C129  1  0.66703097  0.64872205  0.54812356  1  -0.0033  0  -0.080009  -0.167797  0  3.924176  0
C  C130  1  0.23551838  0.24452993  0.14709658  1  1.579722  0  0.201563  0.584739  0  4.212483  0
C  C131  1  0.12758788  0.22816336  0.18974874  1  -0.023661  0  0.004932  0.00349  0  3.889278  0
C  C132  1  0.94373343  0.22012498  0.19038945  1  -0.006495  0  -0.015322  -0.050167  0  3.934403  0
C  C133  1  0.85941540  0.20454115  0.23267477  1  -0.033425  0  -0.091679  -0.147258  0  3.963682  0
C  C134  1  0.95378106  0.19545382  0.27429033  1  -0.037452  0  -0.026868  0.065224  0  3.973537  0
C  C135  1  0.13769475  0.20389286  0.27338072  1  -0.036138  0  -0.08961  -0.11608  0  3.978852  0
C  C136  1  0.22249850  0.22042161  0.23183106  1  0.040747  0  -0.084755  -0.095389  0  3.94699  0
C  C137  1  0.83137080  0.22902362  0.14733503  1  1.565016  0  0.200933  0.579013  0  4.206834  0
C  C138  1  0.86286158  0.18362133  0.32207074  1  0.049611  0  -0.009255  -0.264197  0  3.849301  0
C  C139  1  0.67949186  0.13891952  0.31345509  1  1.713374  0  0.305229  0.675549  0  3.967856  0
C  C140  1  0.83366358  0.27539802  0.35126667  1  1.697066  0  0.303482  0.67883  0  3.955479  0
C  C141  1  0.97320116  0.12772067  0.35043222  1  -0.005475  0  -0.024173  0.070141  0  3.97144  0
C  C142  1  0.05005206  0.05299155  0.32483135  1  -0.040882  0  -0.085302  -0.111621  0  3.954814  0
C  C143  1  0.14882316  0.99982906  0.34906424  1  -0.056946  0  -0.082325  -0.086636  0  3.937733  0
C  C144  1  0.17345883  0.01994941  0.39951109  1  0.003883  0  0.003059  -0.010872  0  3.907901  0
C  C145  1  0.09488767  0.09368241  0.42548908  1  0.035988  0  -0.017631  -0.056091  0  3.946299  0
C  C146  1  0.99456656  0.14614833  0.40073852  1  -0.082591  0  -0.091469  -0.143176  0  3.971437  0
C  C147  1  0.27960802  0.96071473  0.42441315  1  1.578065  0  0.217318  0.606177  0  4.193999  0
C  C148  1  0.12132620  0.12027953  0.47933054  1  1.570083  0  0.207003  0.584424  0  4.211715  0
C  C149  1  0.66836967  0.34458838  0.01509063  1  0.534976  0  0.049172  0.104945  0  3.931112  0
C  C150  1  0.72886638  0.41744974  0.99951091  1  -0.09024  0  -0.086183  -0.177401  0  3.959243  0
C  C151  1  0.72671720  0.49594824  0.03139063  1  -0.012496  0  0.010674  0.101331  0  3.979523  0
C  C152  1  0.66155184  0.49584238  0.07855521  1  -0.063542  0  -0.082194  -0.17662  0  3.925132  0
C  C153  1  0.60282232  0.41995903  0.09142803  1  0.459504  0  0.057142  0.105692  0  3.937574  0
C  C154  1  0.79027899  0.57429398  0.01521022  1  0.000523  0  0.011471  0.101363  0  3.973033  0
C  C155  1  0.81165568  0.57711246  0.96553654  1  -0.014425  0  -0.079688  -0.165684  0  3.933371  0
C  C156  1  0.87033519  0.65123002  0.95091100  1  0.503409  0  0.050418  0.101993  0  3.933107  0
C  C157  1  0.88901837  0.72086415  0.03063674  1  0.476358  0  0.051066  0.102733  0  3.942554  0
C  C158  1  0.83297022  0.64871853  0.04812324  1  -0.00272  0  -0.080129  -0.168065  0  3.92419  0
C  C159  1  0.73552379  0.75546621  0.35290372  1  1.579528  0  0.201571  0.58472  0  4.212451  0
C  C160  1  0.62758666  0.77183357  0.31025129  1  -0.02413  0  0.004985  0.003578  0  3.889233  0
C  C161  1  0.44374157  0.77987084  0.30960864  1  -0.006594  0  -0.015301  -0.050114  0  3.934466  0
C  C162  1  0.35942218  0.79546245  0.26732374  1  -0.03307  0  -0.091718  -0.147391  0  3.963778  0
C  C163  1  0.45379705  0.80454582  0.22570849  1  -0.037418  0  -0.02681  0.065488  0  3.973398  0
C  C164  1  0.63770533  0.79610661  0.22661955  1  -0.036081  0  -0.089663  -0.116275  0  3.97925  0
C  C165  1  0.72250519  0.77957264  0.26817012  1  0.040868  0  -0.084775  -0.095381  0  3.946985  0
C  C166  1  0.33137762  0.77097365  0.35266321  1  1.56508  0  0.200873  0.578924  0  4.206939  0
C  C167  1  0.36287888  0.81638100  0.17792835  1  0.049431  0  -0.009257  -0.264201  0  3.849431  0
C  C168  1  0.17950623  0.86107989  0.18654338  1  1.71308  0  0.305073  0.675406  0  3.968041  0
C  C169  1  0.33368675  0.72460435  0.14873315  1  1.697241  0  0.303571  0.679291  0  3.954975  0
C  C170  1  0.47321288  0.87228277  0.14956769  1  -0.005998  0  -0.024123  0.070217  0  3.97154  0
C  C171  1  0.55007362  0.94700996  0.17516770  1  -0.040052  0  -0.085291  -0.11175  0  3.955008  0
C  C172  1  0.64883488  0.00017421  0.15093390  1  -0.057223  0  -0.082326  -0.086583  0  3.937692  0
C  C173  1  0.67346844  0.98005255  0.10048655  1  0.003701  0  0.003077  -0.010857  0  3.90784  0
C  C174  1  0.59488987  0.90632031  0.07451044  1  0.036105  0  -0.017646  -0.056181  0  3.946456  0
C  C175  1  0.49457846  0.85385380  0.09926126  1  -0.082372  0  -0.09143  -0.143163  0  3.971482  0
C  C176  1  0.77960775  0.03928707  0.07558268  1  1.577907  0  0.217342  0.606276  0  4.193928  0
C  C177  1  0.62133259  0.87972252  0.02066819  1  1.570196  0  0.206984  0.584505  0  4.211568  0
C  C178  1  0.16836651  0.65541105  0.48490928  1  0.53501  0  0.049137  0.104963  0  3.930937  0
C  C179  1  0.22886431  0.58254810  0.50049019  1  -0.090241  0  -0.08614  -0.177308  0  3.958841  0
C  C180  1  0.22671500  0.50404856  0.46861009  1  -0.012452  0  0.010704  0.101441  0  3.979471  0
C  C181  1  0.16154049  0.50415451  0.42144660  1  -0.063551  0  -0.082317  -0.176889  0  3.925069  0
C  C182  1  0.10281578  0.58003922  0.40857284  1  0.459486  0  0.057206  0.105892  0  3.937288  0
C  C183  1  0.29028121  0.42570336  0.48479018  1  0.000442  0  0.011434  0.101187  0  3.973248  0
C  C184  1  0.31166510  0.42288526  0.53446418  1  -0.014263  0  -0.079754  -0.16564  0  3.933281  0
C  C185  1  0.37034505  0.34876889  0.54908983  1  0.5033  0  0.05048  0.102055  0  3.932915  0
C  C186  1  0.38901890  0.27913304  0.46936292  1  0.476794  0  0.051001  0.102667  0  3.942482  0
C  C187  1  0.33297163  0.35127938  0.45187757  1  -0.003182  0  -0.080092  -0.167966  0  3.924273  0
N  N188  1  0.39454208  0.65446803  0.93979241  1  -1.217755  0  -0.322767  -0.236353  0  3.517137  0
N  N189  1  0.09332882  0.27746773  0.01716541  1  -1.201995  0  -0.322976  -0.24459  0  3.502313  0
N  N190  1  0.89454386  0.34553403  0.56020837  1  -1.217696  0  -0.322818  -0.236429  0  3.517244  0
N  N191  1  0.59333295  0.72253372  0.48283363  1  -1.202105  0  -0.322906  -0.244567  0  3.502328  0
N  N192  1  0.60545130  0.34553403  0.06020771  1  -1.217741  0  -0.322732  -0.236341  0  3.517043  0
N  N193  1  0.90666851  0.72253114  0.98283260  1  -1.202109  0  -0.322955  -0.24462  0  3.502355  0
N  N194  1  0.10544557  0.65446549  0.43979257  1  -1.217639  0  -0.322749  -0.236443  0  3.517051  0
N  N195  1  0.40667360  0.27746579  0.51716695  1  -1.202159  0  -0.322895  -0.24456  0  3.502262  0
O  O196  1  0.74059772  0.81989280  0.88827193  1  -1.155153  0  -0.347319  -0.596191  0  2.309635  0
O  O197  1  0.68742731  0.68562562  0.85042430  1  -1.15719  0  -0.318966  -0.543251  0  2.106952  0
O  O198  1  0.09722180  0.75147067  0.89050877  1  -1.192168  0  -0.336674  -0.602631  0  2.319314  0
O  O199  1  0.33326092  0.78418311  0.84846027  1  -1.134425  0  -0.323534  -0.534606  0  2.253036  0
O  O200  1  0.79963535  0.09456214  0.55597684  1  -1.189048  0  -0.323189  -0.582743  0  2.348161  0
O  O201  1  0.55231267  0.03492789  0.57812481  1  -1.116439  0  -0.312551  -0.544166  0  2.241529  0
O  O202  1  0.76657165  0.92054635  0.49987493  1  -1.17181  0  -0.32428  -0.556542  0  2.280613  0
O  O203  1  0.96785721  0.81578680  0.50008385  1  -1.172164  0  -0.327823  -0.568006  0  2.347824  0
O  O204  1  0.11228348  0.89045043  0.02902663  1  -1.236811  0  -0.584995  -0.757901  0  2.023921  0
O  O205  1  0.24059671  0.18011139  0.61172764  1  -1.155103  0  -0.347299  -0.596135  0  2.309604  0
O  O206  1  0.18743857  0.31437738  0.64957588  1  -1.157362  0  -0.319059  -0.543441  0  2.107005  0
O  O207  1  0.59722807  0.24852737  0.60949057  1  -1.192076  0  -0.336761  -0.602755  0  2.3193  0
O  O208  1  0.83326340  0.21581586  0.65154236  1  -1.134289  0  -0.32353  -0.534659  0  2.253031  0
O  O209  1  0.29962672  0.90543624  0.94402323  1  -1.188945  0  -0.32315  -0.582711  0  2.348195  0
O  O210  1  0.05231423  0.96507339  0.92187343  1  -1.116452  0  -0.312542  -0.544129  0  2.241593  0
O  O211  1  0.26657142  0.07945102  0.00012549  1  -1.171901  0  -0.324272  -0.556521  0  2.280623  0
O  O212  1  0.46784776  0.18421260  0.99991845  1  -1.172168  0  -0.327791  -0.567968  0  2.347933  0
O  O213  1  0.61228225  0.10954972  0.47097371  1  -1.236775  0  -0.58497  -0.757839  0  2.023987  0
O  O214  1  0.25940356  0.18010416  0.11172948  1  -1.155301  0  -0.347313  -0.596155  0  2.309742  0
O  O215  1  0.31256081  0.31437262  0.14957580  1  -1.157425  0  -0.318962  -0.54327  0  2.106828  0
O  O216  1  0.90277290  0.24852693  0.10949091  1  -1.192087  0  -0.336716  -0.602703  0  2.319332  0
O  O217  1  0.66673246  0.21581578  0.15154168  1  -1.134365  0  -0.323557  -0.534678  0  2.252954  0
O  O218  1  0.20037910  0.90543736  0.44401944  1  -1.189017  0  -0.323145  -0.582685  0  2.348009  0
O  O219  1  0.44769125  0.96507288  0.42187232  1  -1.116574  0  -0.312525  -0.544066  0  2.241553  0
O  O220  1  0.23342832  0.07945252  0.50012380  1  -1.171795  0  -0.324246  -0.556455  0  2.280632  0
O  O221  1  0.03214144  0.18421399  0.49991614  1  -1.172181  0  -0.327811  -0.56793  0  2.347898  0
O  O222  1  0.88772043  0.10954653  0.97097298  1  -1.236701  0  -0.585015  -0.757965  0  2.023768  0
O  O223  1  0.75939668  0.81989321  0.38826986  1  -1.1552  0  -0.347265  -0.596083  0  2.309677  0
O  O224  1  0.81256797  0.68562404  0.35042454  1  -1.157283  0  -0.318995  -0.543299  0  2.106883  0
O  O225  1  0.40277321  0.75146959  0.39050797  1  -1.192136  0  -0.336716  -0.60269  0  2.319351  0
O  O226  1  0.16673525  0.78418174  0.34845840  1  -1.134241  0  -0.323519  -0.534625  0  2.253033  0
O  O227  1  0.70037193  0.09456455  0.05597748  1  -1.18895  0  -0.323148  -0.582711  0  2.348172  0
O  O228  1  0.94769100  0.03492802  0.07812304  1  -1.116464  0  -0.312566  -0.544177  0  2.24141  0
O  O229  1  0.73343118  0.92055040  0.99987385  1  -1.172017  0  -0.324202  -0.556448  0  2.280623  0
O  O230  1  0.53215747  0.81578628  0.00008315  1  -1.172147  0  -0.32786  -0.568022  0  2.347849  0
O  O231  1  0.38772562  0.89045425  0.52902445  1  -1.236941  0  -0.585026  -0.75794  0  2.02385  0
F  F232  1  0.23830207  0.67128419  0.67636786  1  -0.612684  0  -0.101781  -0.202321  0  1.309278  0
F  F233  1  0.00984758  0.68883164  0.63158844  1  -0.626373  0  -0.094644  -0.207805  0  1.338297  0
F  F234  1  0.27499883  0.72156893  0.60919359  1  -0.622423  0  -0.09588  -0.212853  0  1.346047  0
F  F235  1  0.38333688  0.88568641  0.64568568  1  -0.611247  0  -0.093406  -0.194018  0  1.342563  0
F  F236  1  0.30927291  0.93223046  0.72141513  1  -0.623392  0  -0.084767  -0.18781  0  1.326256  0
F  F237  1  0.44738221  0.80990626  0.70131425  1  -0.624501  0  -0.093305  -0.210005  0  1.351318  0
F  F238  1  0.73830360  0.32871810  0.82363260  1  -0.612714  0  -0.101813  -0.202357  0  1.309272  0
F  F239  1  0.50986102  0.31117291  0.86841657  1  -0.626215  0  -0.094608  -0.207727  0  1.338203  0
F  F240  1  0.77501639  0.27842948  0.89080541  1  -0.62255  0  -0.095895  -0.212775  0  1.345982  0
F  F241  1  0.88332261  0.11430993  0.85431669  1  -0.611303  0  -0.093438  -0.194062  0  1.342547  0
F  F242  1  0.80926298  0.06776791  0.77858852  1  -0.623773  0  -0.084757  -0.187692  0  1.326312  0
F  F243  1  0.94738464  0.19008871  0.79868798  1  -0.624541  0  -0.093278  -0.209949  0  1.351414  0
F  F244  1  0.76169395  0.32872171  0.32363443  1  -0.612726  0  -0.101729  -0.202227  0  1.309247  0
F  F245  1  0.99014580  0.31117171  0.36841575  1  -0.626241  0  -0.094632  -0.207694  0  1.338229  0
F  F246  1  0.72498534  0.27842931  0.39080580  1  -0.622533  0  -0.095873  -0.212674  0  1.345977  0
F  F247  1  0.61666308  0.11431310  0.35431347  1  -0.611261  0  -0.093454  -0.194088  0  1.342609  0
F  F248  1  0.69072705  0.06777288  0.27858583  1  -0.623633  0  -0.084766  -0.187752  0  1.326286  0
F  F249  1  0.55260986  0.19009454  0.29868790  1  -0.624705  0  -0.093316  -0.210029  0  1.351308  0
F  F250  1  0.26171742  0.67128140  0.17636583  1  -0.612847  0  -0.101803  -0.202395  0  1.309236  0
F  F251  1  0.49017054  0.68883299  0.13158787  1  -0.626494  0  -0.094633  -0.207791  0  1.33814  0
F  F252  1  0.22501780  0.72156748  0.10919205  1  -0.6223  0  -0.095901  -0.21284  0  1.345855  0
F  F253  1  0.11667472  0.88568384  0.14568333  1  -0.610917  0  -0.093372  -0.194036  0  1.342519  0
F  F254  1  0.19073567  0.93222905  0.22141074  1  -0.623653  0  -0.08481  -0.187815  0  1.326313  0
F  F255  1  0.05262980  0.80990315  0.20131077  1  -0.624582  0  -0.09326  -0.209949  0  1.351352  0
