# generated using pymatgen
data_TlH3C6N2O5
_symmetry_space_group_name_H-M   'P 1'
_cell_length_a   4.12881302
_cell_length_b   9.29374568
_cell_length_c   20.98285124
_cell_angle_alpha   89.99942281
_cell_angle_beta   90.00000084
_cell_angle_gamma   85.83526880
_symmetry_Int_Tables_number   1
_chemical_formula_structural   TlH3C6N2O5
_chemical_formula_sum   'Tl4 H12 C24 N8 O20'
_cell_volume   803.03074607
_cell_formula_units_Z   4
loop_
 _symmetry_equiv_pos_site_id
 _symmetry_equiv_pos_as_xyz
  1  'x, y, z'
loop_
 _atom_site_type_symbol
 _atom_site_label
 _atom_site_symmetry_multiplicity
 _atom_site_fract_x
 _atom_site_fract_y
 _atom_site_fract_z
 _atom_site_occupancy
 _atom_site_hle17_bader_spin_density
 _atom_site_hle17_ddec_charge
 _atom_site_hle17_ddec_spin_density
 _atom_site_hle17_ddec_sum_bond_order
 _atom_site_hle17_magmom
 _atom_site_hse06_10hf_bader_spin_density
 _atom_site_hse06_10hf_ddec_charge
 _atom_site_hse06_10hf_ddec_spin_density
 _atom_site_hse06_10hf_ddec_sum_bond_order
 _atom_site_hse06_10hf_magmom
 _atom_site_hse06_bader_spin_density
 _atom_site_hse06_ddec_charge
 _atom_site_hse06_ddec_spin_density
 _atom_site_hse06_ddec_sum_bond_order
 _atom_site_hse06_magmom
 _atom_site_pbe_bader_spin_density
 _atom_site_pbe_cm5_charge
 _atom_site_pbe_ddec_charge
 _atom_site_pbe_ddec_spin_density
 _atom_site_pbe_ddec_sum_bond_order
 _atom_site_pbe_magmom
Tl  Tl0  1  0.48395844  0.23321246  0.47219124  1  0  0.850643  0  0.793804  0  0  0.748944  0  1.074135  0  0  0.77916  0  1.046395  0  0  0.446867  0.726206  0  1.094371  0
Tl  Tl1  1  0.48396962  0.73319106  0.02781186  1  0  0.850638  0  0.793782  0  0  0.748963  0  1.074126  0  0  0.779176  0  1.046383  0  0  0.446862  0.726221  0  1.094361  0
Tl  Tl2  1  0.51604241  0.76682752  0.52781437  1  0  0.850624  0  0.793877  0  0  0.74894  0  1.07424  0  0  0.77915  0  1.046499  0  0  0.446846  0.726201  0  1.094473  0
Tl  Tl3  1  0.51604564  0.26680648  0.97218850  1  0  0.850624  0  0.793898  0  0  0.748926  0  1.074257  0  0  0.779138  0  1.046514  0  0  0.446832  0.72618  0  1.094492  0
H  H4  1  0.42017403  0.92105448  0.69090859  1  0  0.108509  0  0.950895  0  0  0.118476  0  1.011923  0  0  0.121126  0  1.010897  0  0  0.108581  0.116457  0  1.013111  0
H  H5  1  0.42018948  0.42104059  0.80909302  1  0  0.108678  0  0.950832  0  0  0.118528  0  1.011944  0  0  0.121185  0  1.010895  0  0  0.108607  0.116522  0  1.013116  0
H  H6  1  0.57980000  0.07896056  0.30909559  1  0  0.108631  0  0.950827  0  0  0.118474  0  1.012024  0  0  0.12113  0  1.010979  0  0  0.108581  0.116472  0  1.013191  0
H  H7  1  0.57982089  0.57894958  0.19089257  1  0  0.10856  0  0.95085  0  0  0.118463  0  1.011982  0  0  0.121113  0  1.010961  0  0  0.108574  0.116463  0  1.01314  0
H  H8  1  0.28213652  0.23886119  0.72598894  1  0  0.088964  0  0.961618  0  0  0.090105  0  1.033958  0  0  0.091876  0  1.033079  0  0  0.108017  0.088717  0  1.034845  0
H  H9  1  0.28215978  0.73884096  0.77401261  1  0  0.088855  0  0.961633  0  0  0.089991  0  1.033977  0  0  0.091803  0  1.033058  0  0  0.107978  0.088594  0  1.034869  0
H  H10  1  0.71783996  0.76115807  0.27402143  1  0  0.088853  0  0.961666  0  0  0.090005  0  1.033991  0  0  0.091832  0  1.033052  0  0  0.107991  0.088607  0  1.034886  0
H  H11  1  0.71785302  0.26114805  0.22598251  1  0  0.088919  0  0.961556  0  0  0.090042  0  1.033921  0  0  0.091864  0  1.032988  0  0  0.108014  0.088645  0  1.034815  0
H  H12  1  0.59467632  0.97942674  0.80398984  1  0  0.127131  0  0.954654  0  0  0.130005  0  1.026432  0  0  0.134481  0  1.02164  0  0  0.11956  0.126855  0  1.029791  0
H  H13  1  0.59468695  0.47941633  0.69601054  1  0  0.127194  0  0.954758  0  0  0.130099  0  1.026471  0  0  0.134574  0  1.021683  0  0  0.119599  0.126951  0  1.02983  0
H  H14  1  0.40531223  0.02057276  0.19601624  1  0  0.127168  0  0.95468  0  0  0.13003  0  1.026461  0  0  0.134506  0  1.02167  0  0  0.11959  0.12688  0  1.02982  0
H  H15  1  0.40534043  0.52057543  0.30397791  1  0  0.127195  0  0.954532  0  0  0.130048  0  1.026357  0  0  0.134528  0  1.021558  0  0  0.119548  0.126898  0  1.029721  0
C  C16  1  0.70651889  0.07269388  0.64257269  1  0  0.397393  0  3.734644  0  0  0.377533  0  4.00962  0  0  0.40475  0  4.011772  0  0  0.135659  0.359392  0  4.007146  0
C  C17  1  0.70652756  0.57267463  0.85742594  1  0  0.397254  0  3.734878  0  0  0.377401  0  4.009862  0  0  0.404619  0  4.012012  0  0  0.135609  0.359272  0  4.007366  0
C  C18  1  0.29347704  0.92733119  0.35743243  1  0  0.397357  0  3.73466  0  0  0.377447  0  4.009802  0  0  0.404669  0  4.01195  0  0  0.135638  0.359321  0  4.007304  0
C  C19  1  0.29348522  0.42730901  0.14256251  1  0  0.397625  0  3.734576  0  0  0.377633  0  4.009868  0  0  0.404867  0  4.012012  0  0  0.135674  0.359504  0  4.007366  0
C  C20  1  0.51849548  0.02525594  0.70124881  1  0  -0.117401  0  3.558718  0  0  -0.125494  0  3.798852  0  0  -0.133331  0  3.810803  0  0  -0.080093  -0.119699  0  3.790197  0
C  C21  1  0.51851387  0.52523645  0.79875194  1  0  -0.117726  0  3.558908  0  0  -0.125626  0  3.79885  0  0  -0.133455  0  3.810791  0  0  -0.080169  -0.119844  0  3.790192  0
C  C22  1  0.48148344  0.97476540  0.29875727  1  0  -0.117453  0  3.558763  0  0  -0.125474  0  3.798901  0  0  -0.133311  0  3.81085  0  0  -0.08007  -0.119693  0  3.790244  0
C  C23  1  0.48149407  0.47475380  0.20123841  1  0  -0.117597  0  3.559075  0  0  -0.125564  0  3.799119  0  0  -0.133415  0  3.811087  0  0  -0.080199  -0.119777  0  3.790455  0
C  C24  1  0.70416230  0.02175759  0.76123544  1  0  -0.018045  0  3.558774  0  0  -0.061705  0  3.835979  0  0  -0.051445  0  3.845954  0  0  -0.054641  -0.069026  0  3.829689  0
C  C25  1  0.70418074  0.52174575  0.73876297  1  0  -0.018044  0  3.5589  0  0  -0.061796  0  3.836099  0  0  -0.051542  0  3.846071  0  0  -0.054702  -0.069113  0  3.829818  0
C  C26  1  0.29580929  0.97825107  0.23876921  1  0  -0.018048  0  3.558801  0  0  -0.061631  0  3.835943  0  0  -0.051373  0  3.845912  0  0  -0.054636  -0.068951  0  3.829663  0
C  C27  1  0.29582239  0.47825542  0.26122357  1  0  -0.018168  0  3.558831  0  0  -0.061832  0  3.836056  0  0  -0.051561  0  3.846031  0  0  -0.054629  -0.069155  0  3.829776  0
C  C28  1  0.98806346  0.08402079  0.76747039  1  0  0.034003  0  3.59475  0  0  0.024278  0  3.863399  0  0  0.017415  0  3.885012  0  0  0.07261  0.028444  0  3.849397  0
C  C29  1  0.98807462  0.58401038  0.73253108  1  0  0.033928  0  3.595024  0  0  0.024255  0  3.86363  0  0  0.017404  0  3.885239  0  0  0.072629  0.028417  0  3.84963  0
C  C30  1  0.01191299  0.91598879  0.23253807  1  0  0.033837  0  3.595121  0  0  0.02407  0  3.863764  0  0  0.017211  0  3.885383  0  0  0.072483  0.028233  0  3.849764  0
C  C31  1  0.01193575  0.41597979  0.26745975  1  0  0.033924  0  3.595039  0  0  0.024217  0  3.86363  0  0  0.017336  0  3.885287  0  0  0.072478  0.028381  0  3.84963  0
C  C32  1  0.18680328  0.13569342  0.71371345  1  0  -0.050479  0  3.651252  0  0  -0.061632  0  3.886736  0  0  -0.058414  0  3.903413  0  0  -0.06845  -0.063477  0  3.875262  0
C  C33  1  0.18681442  0.63567980  0.78628765  1  0  -0.050345  0  3.651259  0  0  -0.061477  0  3.886711  0  0  -0.058296  0  3.903374  0  0  -0.068382  -0.063316  0  3.875248  0
C  C34  1  0.81318289  0.86431906  0.28629549  1  0  -0.050349  0  3.651594  0  0  -0.061441  0  3.887084  0  0  -0.058262  0  3.903746  0  0  -0.068395  -0.06328  0  3.875619  0
C  C35  1  0.81319839  0.36431352  0.21370556  1  0  -0.050443  0  3.651484  0  0  -0.061526  0  3.887017  0  0  -0.058332  0  3.903684  0  0  -0.068405  -0.063366  0  3.875553  0
C  C36  1  0.98698622  0.15261871  0.65465238  1  0  -0.110054  0  3.535083  0  0  -0.133211  0  3.813724  0  0  -0.150191  0  3.836807  0  0  0.051746  -0.121879  0  3.798009  0
C  C37  1  0.98698278  0.65260870  0.84534828  1  0  -0.109925  0  3.535018  0  0  -0.133216  0  3.813831  0  0  -0.150199  0  3.836934  0  0  0.051815  -0.12189  0  3.798112  0
C  C38  1  0.01302422  0.84738867  0.34535513  1  0  -0.110214  0  3.53499  0  0  -0.133493  0  3.813826  0  0  -0.150487  0  3.83694  0  0  0.051676  -0.122162  0  3.798105  0
C  C39  1  0.01302029  0.34737526  0.15464255  1  0  -0.110154  0  3.535009  0  0  -0.133448  0  3.813899  0  0  -0.15045  0  3.837018  0  0  0.051701  -0.122124  0  3.798184  0
N  N40  1  0.07535234  0.12404761  0.83195241  1  0  0.500728  0  3.891246  0  0  0.529913  0  4.185223  0  0  0.552931  0  4.193056  0  0  0.046385  0.514049  0  4.180234  0
N  N41  1  0.07537328  0.62404893  0.66805064  1  0  0.500871  0  3.891227  0  0  0.530034  0  4.185217  0  0  0.553051  0  4.193046  0  0  0.046398  0.514171  0  4.180236  0
N  N42  1  0.92462890  0.87594459  0.16805796  1  0  0.50105  0  3.890387  0  0  0.530261  0  4.184352  0  0  0.553281  0  4.192179  0  0  0.04657  0.514398  0  4.179367  0
N  N43  1  0.92465899  0.37595235  0.33194067  1  0  0.500936  0  3.890949  0  0  0.53014  0  4.184897  0  0  0.55316  0  4.192725  0  0  0.046576  0.514277  0  4.179913  0
N  N44  1  0.09802353  0.25066605  0.61204966  1  0  0.516011  0  3.927438  0  0  0.541229  0  4.220023  0  0  0.563989  0  4.234414  0  0  0.009249  0.525756  0  4.209926  0
N  N45  1  0.09802735  0.75065280  0.88795085  1  0  0.516059  0  3.927653  0  0  0.541292  0  4.220275  0  0  0.564052  0  4.234667  0  0  0.009232  0.525819  0  4.210177  0
N  N46  1  0.90197963  0.74934158  0.38795690  1  0  0.5161  0  3.927677  0  0  0.54131  0  4.22031  0  0  0.564075  0  4.234701  0  0  0.009303  0.525836  0  4.210212  0
N  N47  1  0.90198297  0.24932339  0.11204570  1  0  0.516131  0  3.92762  0  0  0.541406  0  4.220179  0  0  0.564171  0  4.234572  0  0  0.009486  0.525931  0  4.210079  0
O  O48  1  0.60135490  0.03996160  0.58870926  1  0  -0.560864  0  2.039471  0  0  -0.516905  0  2.277527  0  0  -0.540366  0  2.274502  0  0  -0.284048  -0.500028  0  2.279331  0
O  O49  1  0.60136591  0.53992397  0.91128857  1  0  -0.560699  0  2.03953  0  0  -0.516728  0  2.277558  0  0  -0.540191  0  2.274531  0  0  -0.284003  -0.499854  0  2.279354  0
O  O50  1  0.39862653  0.96008440  0.41129491  1  0  -0.560745  0  2.039367  0  0  -0.516727  0  2.277404  0  0  -0.540186  0  2.274373  0  0  -0.284026  -0.499855  0  2.279202  0
O  O51  1  0.39863953  0.46004699  0.08869702  1  0  -0.560851  0  2.03942  0  0  -0.516805  0  2.277531  0  0  -0.540268  0  2.274499  0  0  -0.283969  -0.499931  0  2.279324  0
O  O52  1  0.29066418  0.21231585  0.83718886  1  0  -0.418642  0  1.843232  0  0  -0.390277  0  2.07083  0  0  -0.406888  0  2.069128  0  0  -0.135839  -0.37965  0  2.072861  0
O  O53  1  0.29067298  0.71231444  0.66281711  1  0  -0.418603  0  1.843109  0  0  -0.390243  0  2.070705  0  0  -0.406848  0  2.068997  0  0  -0.135808  -0.379617  0  2.072742  0
O  O54  1  0.70931948  0.78767628  0.16282342  1  0  -0.418506  0  1.842784  0  0  -0.390175  0  2.070417  0  0  -0.406777  0  2.068706  0  0  -0.135742  -0.379552  0  2.072451  0
O  O55  1  0.70934713  0.28767971  0.33717943  1  0  -0.418561  0  1.842951  0  0  -0.390205  0  2.070522  0  0  -0.406817  0  2.068833  0  0  -0.13582  -0.379583  0  2.07256  0
O  O56  1  0.92686683  0.07937319  0.87843578  1  0  -0.364886  0  1.844894  0  0  -0.349546  0  2.074056  0  0  -0.360361  0  2.070175  0  0  -0.108452  -0.342491  0  2.076538  0
O  O57  1  0.92686841  0.57938791  0.62156524  1  0  -0.365008  0  1.844914  0  0  -0.349663  0  2.074068  0  0  -0.360484  0  2.070193  0  0  -0.108494  -0.34261  0  2.076555  0
O  O58  1  0.07313864  0.92060530  0.12157126  1  0  -0.365265  0  1.844488  0  0  -0.34992  0  2.07364  0  0  -0.360743  0  2.069767  0  0  -0.108667  -0.342864  0  2.076124  0
O  O59  1  0.07315660  0.42062007  0.37842369  1  0  -0.365111  0  1.844812  0  0  -0.349759  0  2.073937  0  0  -0.360586  0  2.070088  0  0  -0.108594  -0.342706  0  2.076424  0
O  O60  1  0.96779842  0.27205115  0.55727923  1  0  -0.534796  0  1.904027  0  0  -0.494945  0  2.151966  0  0  -0.51721  0  2.148268  0  0  -0.19064  -0.478443  0  2.153757  0
O  O61  1  0.96783373  0.77201855  0.94272464  1  0  -0.534895  0  1.904054  0  0  -0.495078  0  2.15206  0  0  -0.517348  0  2.148364  0  0  -0.190713  -0.478575  0  2.15385  0
O  O62  1  0.03218049  0.72796804  0.44272923  1  0  -0.534822  0  1.9041  0  0  -0.495014  0  2.152152  0  0  -0.517282  0  2.148456  0  0  -0.190661  -0.478509  0  2.153944  0
O  O63  1  0.03220320  0.22792770  0.05727573  1  0  -0.534875  0  1.904183  0  0  -0.495017  0  2.152117  0  0  -0.517284  0  2.148421  0  0  -0.19074  -0.478511  0  2.153905  0
O  O64  1  0.33255385  0.32399468  0.62803969  1  0  -0.448216  0  1.797016  0  0  -0.426768  0  2.030741  0  0  -0.447525  0  2.03134  0  0  -0.176481  -0.411185  0  2.029513  0
O  O65  1  0.33255767  0.82397852  0.87196334  1  0  -0.448212  0  1.797038  0  0  -0.426707  0  2.03072  0  0  -0.447465  0  2.031326  0  0  -0.176468  -0.411125  0  2.029489  0
O  O66  1  0.66742990  0.67602004  0.37196972  1  0  -0.448226  0  1.797164  0  0  -0.426673  0  2.030806  0  0  -0.447431  0  2.031412  0  0  -0.176499  -0.411088  0  2.029576  0
O  O67  1  0.66743081  0.17600268  0.12803702  1  0  -0.448166  0  1.796973  0  0  -0.426735  0  2.030691  0  0  -0.447497  0  2.031297  0  0  -0.176533  -0.411149  0  2.029459  0
