# generated using pymatgen
data_Mg3H30C32(NO5)4
_symmetry_space_group_name_H-M   'P 1'
_cell_length_a   15.13170758
_cell_length_b   19.55445073
_cell_length_c   19.76064066
_cell_angle_alpha   89.99996767
_cell_angle_beta   89.99990439
_cell_angle_gamma   90.00002347
_symmetry_Int_Tables_number   1
_chemical_formula_structural   Mg3H30C32(NO5)4
_chemical_formula_sum   'Mg12 H120 C128 N16 O80'
_cell_volume   5847.02003806
_cell_formula_units_Z   4
loop_
 _symmetry_equiv_pos_site_id
 _symmetry_equiv_pos_as_xyz
  1  'x, y, z'
loop_
 _atom_site_type_symbol
 _atom_site_label
 _atom_site_symmetry_multiplicity
 _atom_site_fract_x
 _atom_site_fract_y
 _atom_site_fract_z
 _atom_site_occupancy
 _atom_site_pbe_bader_charge
 _atom_site_pbe_bader_spin_density
 _atom_site_pbe_cm5_charge
 _atom_site_pbe_ddec_charge
 _atom_site_pbe_ddec_spin_density
 _atom_site_pbe_ddec_sum_bond_order
 _atom_site_pbe_magmom
Mg  Mg0  1  0.50000121  0.50000134  0.00000157  1  1.683283  0  0.826324  1.382848  0  1.438806  0
Mg  Mg1  1  0.50000013  0.99999939  0.49999989  1  1.683275  0  0.826323  1.382777  0  1.438943  0
Mg  Mg2  1  0.00000093  0.99999945  0.00000023  1  1.68329  0  0.826352  1.382849  0  1.438835  0
Mg  Mg3  1  0.00000091  0.49999907  0.49999934  1  1.683297  0  0.826303  1.382809  0  1.438916  0
Mg  Mg4  1  0.73103422  0.52968283  0.97309891  1  1.696954  0  0.799399  1.382081  0  1.374543  0
Mg  Mg5  1  0.26896608  0.97031814  0.47309808  1  1.696957  0  0.799473  1.382184  0  1.374334  0
Mg  Mg6  1  0.76896475  0.02968185  0.02690045  1  1.696972  0  0.799446  1.382096  0  1.374513  0
Mg  Mg7  1  0.23103362  0.47031686  0.52690217  1  1.696977  0  0.79944  1.382101  0  1.374477  0
Mg  Mg8  1  0.26896578  0.47031854  0.02690166  1  1.69696  0  0.799442  1.382091  0  1.374501  0
Mg  Mg9  1  0.73103523  0.02968119  0.52690046  1  1.696968  0  0.799408  1.382052  0  1.374565  0
Mg  Mg10  1  0.23103392  0.97031799  0.97309961  1  1.696936  0  0.7994  1.382067  0  1.374543  0
Mg  Mg11  1  0.76896571  0.52968196  0.47309890  1  1.696942  0  0.799472  1.382183  0  1.374379  0
H  H12  1  0.79892122  0.58206795  0.60280266  1  0.649791  0  0.313121  0.367003  0  0.95879  0
H  H13  1  0.20107922  0.91792965  0.10279942  1  0.649751  0  0.313191  0.367045  0  0.958634  0
H  H14  1  0.70107843  0.08206980  0.39720123  1  0.649728  0  0.313189  0.367031  0  0.958619  0
H  H15  1  0.29892243  0.41793124  0.89719783  1  0.64978  0  0.313129  0.366994  0  0.958749  0
H  H16  1  0.20107943  0.41793137  0.39720044  1  0.649762  0  0.3132  0.367063  0  0.958607  0
H  H17  1  0.79892011  0.08206865  0.89719913  1  0.649746  0  0.313163  0.367064  0  0.958717  0
H  H18  1  0.29892223  0.91793105  0.60279985  1  0.649758  0  0.313172  0.367037  0  0.958669  0
H  H19  1  0.70108021  0.58206961  0.10280223  1  0.649785  0  0.313157  0.367064  0  0.958745  0
H  H20  1  0.35044708  0.79532282  0.03005981  1  0.448192  0  0.307313  0.297354  0  0.948235  0
H  H21  1  0.64955155  0.70467635  0.53006824  1  0.447673  0  0.307323  0.297359  0  0.948158  0
H  H22  1  0.14955385  0.29532535  0.96993194  1  0.448143  0  0.307314  0.297375  0  0.948139  0
H  H23  1  0.85044619  0.20467668  0.46994166  1  0.448185  0  0.307319  0.297391  0  0.948185  0
H  H24  1  0.64955622  0.20467650  0.96993114  1  0.448107  0  0.307281  0.297336  0  0.948217  0
H  H25  1  0.35044778  0.29532195  0.46994296  1  0.448191  0  0.307317  0.297365  0  0.94826  0
H  H26  1  0.85044681  0.70467755  0.03005851  1  0.448175  0  0.307314  0.297366  0  0.948232  0
H  H27  1  0.14955380  0.79532469  0.53006752  1  0.44816  0  0.307313  0.29737  0  0.948139  0
H  H28  1  0.38474130  0.87549690  0.04600308  1  0.45952  0  0.29787  0.28438  0  0.997398  0
H  H29  1  0.61525399  0.62450483  0.54600704  1  0.459572  0  0.297849  0.284302  0  0.997491  0
H  H30  1  0.11525571  0.37549738  0.95399318  1  0.459527  0  0.29783  0.284265  0  0.997513  0
H  H31  1  0.88474040  0.12450466  0.45399784  1  0.459491  0  0.297879  0.28441  0  0.997409  0
H  H32  1  0.61525605  0.12450294  0.95399294  1  0.459547  0  0.297848  0.284293  0  0.997494  0
H  H33  1  0.38474138  0.37549399  0.45399961  1  0.45948  0  0.297812  0.284302  0  0.997612  0
H  H34  1  0.88473966  0.62450399  0.04600233  1  0.459464  0  0.29786  0.284375  0  0.997435  0
H  H35  1  0.11525431  0.87549671  0.54600627  1  0.459561  0  0.297842  0.284303  0  0.997467  0
H  H36  1  0.32905674  0.50905532  0.70634314  1  0.431383  0  0.306508  0.298736  0  0.936407  0
H  H37  1  0.67094415  0.99094785  0.20634281  1  0.431447  0  0.306513  0.296683  0  0.938358  0
H  H38  1  0.17094007  0.00905108  0.29365535  1  0.431416  0  0.306526  0.296744  0  0.938335  0
H  H39  1  0.82905573  0.49094594  0.79365731  1  0.431436  0  0.306517  0.296702  0  0.938352  0
H  H40  1  0.67094458  0.49094861  0.29365591  1  0.431493  0  0.306578  0.296791  0  0.938446  0
H  H41  1  0.32905519  0.00905505  0.79365624  1  0.43135  0  0.30655  0.296813  0  0.938501  0
H  H42  1  0.82905662  0.99094415  0.70634421  1  0.43136  0  0.306573  0.29679  0  0.938524  0
H  H43  1  0.17094493  0.50905288  0.20634326  1  0.43142  0  0.306541  0.296761  0  0.938383  0
H  H44  1  0.35974008  0.53245718  0.62796610  1  0.487937  0  0.295674  0.297547  0  1.000267  0
H  H45  1  0.64026229  0.96754501  0.12796481  1  0.487866  0  0.295704  0.297591  0  1.000153  0
H  H46  1  0.14025872  0.03245340  0.37203136  1  0.487958  0  0.295677  0.297516  0  1.000206  0
H  H47  1  0.85973822  0.46754357  0.87203482  1  0.487848  0  0.295686  0.29758  0  1.000188  0
H  H48  1  0.64026123  0.46754573  0.37203194  1  0.487915  0  0.295706  0.297564  0  1.000183  0
H  H49  1  0.35973902  0.03245687  0.87203323  1  0.487948  0  0.295695  0.297609  0  1.000123  0
H  H50  1  0.85973929  0.96754183  0.62796668  1  0.487941  0  0.295679  0.297577  0  1.00011  0
H  H51  1  0.14026375  0.53245626  0.12796575  1  0.487864  0  0.295699  0.2976  0  1.000159  0
H  H52  1  0.44526188  0.70052907  0.02024482  1  0.114927  0  0.111101  0.133379  0  1.013825  0
H  H53  1  0.55473413  0.79947266  0.52025078  1  0.115017  0  0.111102  0.133406  0  1.013882  0
H  H54  1  0.05473768  0.20052697  0.97974901  1  0.114948  0  0.111089  0.133408  0  1.013822  0
H  H55  1  0.94526300  0.29947148  0.47975907  1  0.114893  0  0.111057  0.133381  0  1.013881  0
H  H56  1  0.55473811  0.29947434  0.97974766  1  0.11492  0  0.111095  0.133381  0  1.013986  0
H  H57  1  0.44526322  0.20052819  0.47975739  1  0.114903  0  0.111076  0.133398  0  1.013857  0
H  H58  1  0.94526297  0.79947184  0.02024447  1  0.114914  0  0.111097  0.133378  0  1.013862  0
H  H59  1  0.05473700  0.70052631  0.52024808  1  0.114974  0  0.111076  0.133381  0  1.0139  0
H  H60  1  0.72504656  0.73787662  0.02953532  1  0.079943  0  0.099752  0.098893  0  1.052203  0
H  H61  1  0.27495207  0.76212306  0.52953153  1  0.079968  0  0.099792  0.098913  0  1.052144  0
H  H62  1  0.77495384  0.23787766  0.97047051  1  0.080025  0  0.099771  0.098873  0  1.052249  0
H  H63  1  0.22504554  0.26212335  0.47046581  1  0.07998  0  0.099753  0.098877  0  1.052287  0
H  H64  1  0.27495608  0.26212475  0.97047082  1  0.079994  0  0.099765  0.098899  0  1.052288  0
H  H65  1  0.72504594  0.23787728  0.47046600  1  0.079958  0  0.099759  0.098891  0  1.052271  0
H  H66  1  0.22504616  0.76212269  0.02953563  1  0.079971  0  0.099758  0.098913  0  1.052189  0
H  H67  1  0.77495379  0.73787393  0.52952819  1  0.080005  0  0.099779  0.09892  0  1.052232  0
H  H68  1  0.54452963  0.90738532  0.02964520  1  0.074498  0  0.103934  0.113209  0  1.022102  0
H  H69  1  0.45547164  0.59261641  0.52964634  1  0.07453  0  0.103922  0.113186  0  1.022151  0
H  H70  1  0.95547482  0.40738488  0.97035294  1  0.074495  0  0.103902  0.113151  0  1.022173  0
H  H71  1  0.04452654  0.09261613  0.47035413  1  0.074527  0  0.103922  0.113192  0  1.022166  0
H  H72  1  0.45547498  0.09261759  0.97035233  1  0.074555  0  0.103925  0.113188  0  1.022145  0
H  H73  1  0.54452902  0.40738393  0.47035625  1  0.074528  0  0.103932  0.113209  0  1.022137  0
H  H74  1  0.04452650  0.59261547  0.02964459  1  0.074506  0  0.103918  0.113214  0  1.022082  0
H  H75  1  0.95547213  0.90738319  0.52964492  1  0.074559  0  0.103936  0.113195  0  1.022158  0
H  H76  1  0.52202847  0.51602054  0.59411488  1  0.043679  0  0.108389  0.119544  0  1.011911  0
H  H77  1  0.47797265  0.98398269  0.09411327  1  0.043865  0  0.108358  0.119472  0  1.012051  0
H  H78  1  0.97797048  0.01601634  0.40588551  1  0.043703  0  0.108377  0.119528  0  1.011981  0
H  H79  1  0.02202771  0.48397857  0.90588647  1  0.043929  0  0.108386  0.119494  0  1.012009  0
H  H80  1  0.47797482  0.48397980  0.40588519  1  0.043665  0  0.108374  0.119509  0  1.012013  0
H  H81  1  0.52202800  0.01602073  0.90588527  1  0.043682  0  0.108393  0.119529  0  1.011968  0
H  H82  1  0.02202753  0.98397736  0.59411354  1  0.043627  0  0.108405  0.119508  0  1.012029  0
H  H83  1  0.97797360  0.51602025  0.09411359  1  0.043887  0  0.108364  0.119483  0  1.012023  0
H  H84  1  0.70204433  0.54225445  0.76185780  1  0.092752  0  0.106705  0.112643  0  1.026134  0
H  H85  1  0.29795643  0.95774459  0.26185542  1  0.092748  0  0.106725  0.11266  0  1.026148  0
H  H86  1  0.79795331  0.04225642  0.23814460  1  0.092692  0  0.106686  0.112574  0  1.026158  0
H  H87  1  0.20204326  0.45774523  0.73814282  1  0.09278  0  0.106702  0.112599  0  1.026329  0
H  H88  1  0.29795368  0.45774385  0.23814631  1  0.092718  0  0.106708  0.112623  0  1.026156  0
H  H89  1  0.70204555  0.04225678  0.73814160  1  0.092736  0  0.106689  0.112634  0  1.026103  0
H  H90  1  0.20204469  0.95774546  0.76185597  1  0.092698  0  0.106699  0.112629  0  1.026196  0
H  H91  1  0.79795474  0.54225665  0.26185371  1  0.092693  0  0.106699  0.112643  0  1.026159  0
H  H92  1  0.42770644  0.50221645  0.79959664  1  0.119346  0  0.104715  0.115266  0  1.018354  0
H  H93  1  0.57229226  0.99778922  0.29959592  1  0.119378  0  0.104713  0.115216  0  1.018383  0
H  H94  1  0.07228838  0.00221224  0.20040287  1  0.119404  0  0.104729  0.115268  0  1.018392  0
H  H95  1  0.92770696  0.49778636  0.70040470  1  0.119365  0  0.104736  0.115234  0  1.018416  0
H  H96  1  0.57229025  0.49779054  0.20040343  1  0.119383  0  0.1047  0.115175  0  1.018352  0
H  H97  1  0.42770773  0.00221573  0.70040263  1  0.119347  0  0.104696  0.11521  0  1.018403  0
H  H98  1  0.92770830  0.99778299  0.79959568  1  0.119382  0  0.104703  0.115236  0  1.018394  0
H  H99  1  0.07229105  0.50221194  0.29959587  1  0.119409  0  0.104693  0.115187  0  1.018331  0
H  H100  1  0.62614154  0.46369605  0.07121376  1  0.616851  0  0.333255  0.4151  0  0.872879  0
H  H101  1  0.37385937  0.03630467  0.57120947  1  0.616945  0  0.333267  0.415037  0  0.872947  0
H  H102  1  0.87386096  0.96369710  0.92878941  1  0.616923  0  0.333226  0.415004  0  0.872964  0
H  H103  1  0.12614076  0.53630338  0.42878597  1  0.616854  0  0.33323  0.415015  0  0.872993  0
H  H104  1  0.37386175  0.53630583  0.92879136  1  0.616961  0  0.333254  0.415067  0  0.872888  0
H  H105  1  0.62614128  0.96369567  0.42878654  1  0.616856  0  0.333242  0.415092  0  0.872925  0
H  H106  1  0.12614035  0.03630580  0.07121319  1  0.616869  0  0.333267  0.415103  0  0.872887  0
H  H107  1  0.87385989  0.46369441  0.57121005  1  0.616939  0  0.333257  0.415056  0  0.872926  0
H  H108  1  0.65649112  0.41632731  0.00644005  1  0.654388  0  0.297117  0.393174  0  0.951043  0
H  H109  1  0.34351126  0.08367089  0.50643526  1  0.654346  0  0.29715  0.393239  0  0.95096  0
H  H110  1  0.84351334  0.91632832  0.99356264  1  0.65435  0  0.2971  0.393168  0  0.95106  0
H  H111  1  0.15648889  0.58367263  0.49355965  1  0.654396  0  0.297123  0.393187  0  0.951017  0
H  H112  1  0.34351218  0.58367201  0.99356660  1  0.654365  0  0.297091  0.393149  0  0.951086  0
H  H113  1  0.65649005  0.91632588  0.49356025  1  0.654345  0  0.297084  0.393125  0  0.951112  0
H  H114  1  0.15648995  0.08367407  0.00643894  1  0.654346  0  0.297124  0.393196  0  0.951006  0
H  H115  1  0.84351176  0.41632925  0.50643485  1  0.654366  0  0.297103  0.393171  0  0.951069  0
H  H116  1  0.84584424  0.57139972  0.88279963  1  0.616808  0  0.293072  0.368923  0  0.969331  0
H  H117  1  0.15415494  0.92859670  0.38280100  1  0.616858  0  0.293102  0.368943  0  0.969297  0
H  H118  1  0.65415541  0.07140376  0.11719819  1  0.616883  0  0.293112  0.368978  0  0.969246  0
H  H119  1  0.34584540  0.42860051  0.61720030  1  0.61674  0  0.293061  0.368967  0  0.969246  0
H  H120  1  0.15415642  0.42859705  0.11719689  1  0.616883  0  0.293119  0.368977  0  0.969252  0
H  H121  1  0.84584572  0.07140058  0.61719957  1  0.616772  0  0.293069  0.368908  0  0.969334  0
H  H122  1  0.34584326  0.92859914  0.88280136  1  0.616845  0  0.293111  0.368976  0  0.969247  0
H  H123  1  0.65415525  0.57140341  0.38280230  1  0.61688  0  0.293121  0.368981  0  0.969241  0
H  H124  1  0.85484647  0.62490619  0.94620292  1  0.631705  0  0.290253  0.366991  0  0.97478  0
H  H125  1  0.14515389  0.87509326  0.44620635  1  0.631682  0  0.290304  0.367075  0  0.97466  0
H  H126  1  0.64515320  0.12490771  0.05379336  1  0.631629  0  0.290318  0.367124  0  0.974591  0
H  H127  1  0.35484973  0.37509251  0.55379649  1  0.631615  0  0.290255  0.366987  0  0.974777  0
H  H128  1  0.14515220  0.37509262  0.05379259  1  0.631639  0  0.290286  0.367054  0  0.974682  0
H  H129  1  0.85484875  0.12490760  0.55379574  1  0.631617  0  0.290258  0.366997  0  0.97476  0
H  H130  1  0.35484613  0.87509417  0.94620367  1  0.63171  0  0.290263  0.36701  0  0.974744  0
H  H131  1  0.64515158  0.62490732  0.44620762  1  0.631615  0  0.290284  0.367032  0  0.974734  0
C  C132  1  0.56677140  0.51962019  0.78755240  1  0.004436  0  -0.014002  -0.015835  0  3.98019  0
C  C133  1  0.43322799  0.98038395  0.28754984  1  0.004502  0  -0.014044  -0.015795  0  3.979946  0
C  C134  1  0.93322624  0.01961455  0.21244899  1  0.004463  0  -0.01401  -0.01576  0  3.979931  0
C  C135  1  0.06677040  0.48038047  0.71244940  1  0.004412  0  -0.014007  -0.015778  0  3.980095  0
C  C136  1  0.43322992  0.48038476  0.21245070  1  0.004485  0  -0.014042  -0.015812  0  3.980098  0
C  C137  1  0.56677068  0.01961895  0.71244820  1  0.004452  0  -0.014037  -0.016036  0  3.980449  0
C  C138  1  0.06677243  0.98037915  0.78755057  1  0.004295  0  -0.013917  -0.015638  0  3.980204  0
C  C139  1  0.93322959  0.51961732  0.28754966  1  0.004399  0  -0.014025  -0.015758  0  3.980115  0
C  C140  1  0.58669403  0.71196383  0.02559425  1  -0.090793  0  -0.020178  -0.029011  0  4.010494  0
C  C141  1  0.41330329  0.78803790  0.52559533  1  -0.090813  0  -0.020092  -0.028907  0  4.010421  0
C  C142  1  0.91330635  0.21196235  0.97440552  1  -0.090875  0  -0.020161  -0.029022  0  4.010492  0
C  C143  1  0.08669301  0.28803661  0.47440958  1  -0.09082  0  -0.020189  -0.028973  0  4.010511  0
C  C144  1  0.41330662  0.28804061  0.97440278  1  -0.09077  0  -0.020075  -0.028888  0  4.010366  0
C  C145  1  0.58669406  0.21196347  0.47440929  1  -0.090867  0  -0.020132  -0.028898  0  4.01048  0
C  C146  1  0.08669364  0.78803646  0.02559302  1  -0.090798  0  -0.020183  -0.029011  0  4.01059  0
C  C147  1  0.91330632  0.71196016  0.52559301  1  -0.090965  0  -0.020094  -0.02881  0  4.010328  0
C  C148  1  0.48389799  0.80698822  0.02566513  1  0.282041  0  0.089664  0.28425  0  4.08818  0
C  C149  1  0.51609999  0.69301352  0.52566816  1  0.282238  0  0.089598  0.28417  0  4.08846  0
C  C150  1  0.01610427  0.30698610  0.97433167  1  0.281867  0  0.089581  0.284177  0  4.088424  0
C  C151  1  0.98389510  0.19301337  0.47433819  1  0.281911  0  0.089666  0.284271  0  4.088129  0
C  C152  1  0.51610663  0.19301469  0.97432987  1  0.281894  0  0.089618  0.284189  0  4.088522  0
C  C153  1  0.48389736  0.30698683  0.47434050  1  0.28241  0  0.089707  0.284198  0  4.088145  0
C  C154  1  0.98389572  0.69301322  0.02566434  1  0.281992  0  0.089648  0.284161  0  4.088028  0
C  C155  1  0.01610291  0.80698596  0.52566491  1  0.281932  0  0.089574  0.284119  0  4.088489  0
C  C156  1  0.50000719  0.73668351  0.02368697  1  0.082504  0  -0.085185  -0.190007  0  3.893798  0
C  C157  1  0.49999541  0.76331618  0.52369200  1  0.082398  0  -0.085217  -0.190166  0  3.893961  0
C  C158  1  0.99999849  0.23668461  0.97630874  1  0.082495  0  -0.085163  -0.190112  0  3.894016  0
C  C159  1  0.00000550  0.26331741  0.47631697  1  0.082394  0  -0.085154  -0.190123  0  3.893822  0
C  C160  1  0.50000073  0.26331786  0.97630601  1  0.08236  0  -0.085217  -0.190121  0  3.893963  0
C  C161  1  0.50000656  0.23668263  0.47631717  1  0.081937  0  -0.085245  -0.190168  0  3.893891  0
C  C162  1  0.00000679  0.76331727  0.02368677  1  0.082443  0  -0.085171  -0.190005  0  3.893759  0
C  C163  1  0.99999912  0.73668345  0.52368866  1  0.082442  0  -0.085157  -0.190123  0  3.893876  0
C  C164  1  0.61915028  0.52938987  0.67271803  1  0.025205  0  -0.024744  -0.047213  0  4.055652  0
C  C165  1  0.38085002  0.97060922  0.17271706  1  0.024153  0  -0.024702  -0.047145  0  4.055786  0
C  C166  1  0.88084868  0.02938977  0.32728336  1  0.024894  0  -0.024722  -0.047199  0  4.055723  0
C  C167  1  0.11915034  0.47060978  0.82728117  1  0.025095  0  -0.024743  -0.047264  0  4.055723  0
C  C168  1  0.38085037  0.47060945  0.32728304  1  0.02477  0  -0.024709  -0.04717  0  4.05578  0
C  C169  1  0.61914799  0.02939112  0.82728148  1  0.025574  0  -0.024731  -0.047267  0  4.055699  0
C  C170  1  0.11914999  0.97060904  0.67271721  1  0.024808  0  -0.024715  -0.047158  0  4.055651  0
C  C171  1  0.88085163  0.52939210  0.17271788  1  0.024664  0  -0.024714  -0.04719  0  4.055757  0
C  C172  1  0.68929840  0.54032296  0.62181883  1  1.462597  0  0.241688  0.589315  0  4.090781  0
C  C173  1  0.31070399  0.95967412  0.12181694  1  1.462714  0  0.241655  0.589255  0  4.091059  0
C  C174  1  0.81070321  0.04032588  0.37818306  1  1.462795  0  0.241629  0.589181  0  4.091054  0
C  C175  1  0.18929703  0.45967569  0.87818079  1  1.462599  0  0.24166  0.589321  0  4.090776  0
C  C176  1  0.31070423  0.45967432  0.37818529  1  1.462737  0  0.241702  0.589252  0  4.090639  0
C  C177  1  0.68929733  0.04032572  0.87818110  1  1.46265  0  0.241682  0.589347  0  4.09078  0
C  C178  1  0.18929811  0.95967498  0.62181751  1  1.462693  0  0.241712  0.589276  0  4.090749  0
C  C179  1  0.81070296  0.54032670  0.12181725  1  1.462751  0  0.241664  0.589271  0  4.09092  0
C  C180  1  0.64228196  0.82778351  0.03179995  1  -0.032183  0  -0.021443  -0.029537  0  4.018468  0
C  C181  1  0.35771468  0.67221976  0.53179914  1  -0.03226  0  -0.02148  -0.02961  0  4.018416  0
C  C182  1  0.85771716  0.32778201  0.96820127  1  -0.032131  0  -0.021486  -0.029669  0  4.018318  0
C  C183  1  0.14227957  0.17221746  0.46820128  1  -0.032114  0  -0.021424  -0.029479  0  4.018266  0
C  C184  1  0.35771737  0.17222093  0.96820012  1  -0.032183  0  -0.021466  -0.029527  0  4.018198  0
C  C185  1  0.64228135  0.32778315  0.46820294  1  -0.032153  0  -0.02142  -0.029495  0  4.018402  0
C  C186  1  0.14227953  0.67221629  0.03179879  1  -0.03216  0  -0.021423  -0.029459  0  4.018444  0
C  C187  1  0.85771513  0.82777726  0.53179625  1  -0.031919  0  -0.021457  -0.029651  0  4.018424  0
C  C188  1  0.46235896  0.51171816  0.69370025  1  0.356233  0  0.094786  0.292179  0  4.086849  0
C  C189  1  0.53764261  0.98828603  0.19369907  1  0.356208  0  0.094851  0.292225  0  4.086264  0
C  C190  1  0.03764049  0.01171336  0.30629925  1  0.356163  0  0.094782  0.29224  0  4.086482  0
C  C191  1  0.96235726  0.48828058  0.80629953  1  0.356684  0  0.094816  0.292229  0  4.086253  0
C  C192  1  0.53764368  0.48828628  0.30630083  1  0.356135  0  0.09487  0.292298  0  4.08631  0
C  C193  1  0.46235804  0.01171943  0.80629795  1  0.355967  0  0.094778  0.292262  0  4.086263  0
C  C194  1  0.96235950  0.98827880  0.69370132  1  0.35618  0  0.094803  0.2923  0  4.086201  0
C  C195  1  0.03764340  0.51171619  0.19370003  1  0.356054  0  0.094854  0.292312  0  4.086253  0
C  C196  1  0.59985512  0.63643883  0.02114703  1  1.563526  0  0.239064  0.639379  0  4.137137  0
C  C197  1  0.40014353  0.86356086  0.52114657  1  1.563629  0  0.238986  0.639252  0  4.137036  0
C  C198  1  0.90014390  0.13643837  0.97885379  1  1.56362  0  0.239025  0.639316  0  4.137087  0
C  C199  1  0.09985479  0.36356059  0.47885577  1  1.563658  0  0.238988  0.639263  0  4.137455  0
C  C200  1  0.40014619  0.36356408  0.97885303  1  1.56362  0  0.239032  0.639307  0  4.13727  0
C  C201  1  0.59985448  0.13643795  0.47885551  1  1.563601  0  0.239037  0.639317  0  4.137274  0
C  C202  1  0.09985543  0.86356198  0.02114628  1  1.563592  0  0.238998  0.639242  0  4.137132  0
C  C203  1  0.90014586  0.63643669  0.52114582  1  1.563433  0  0.239041  0.639372  0  4.137305  0
C  C204  1  0.65789221  0.75731055  0.02946248  1  0.013465  0  -0.087245  -0.127893  0  3.965521  0
C  C205  1  0.34211104  0.74269016  0.52946115  1  0.013536  0  -0.087333  -0.127947  0  3.965862  0
C  C206  1  0.84211216  0.25731059  0.97053878  1  0.013503  0  -0.08728  -0.127847  0  3.96579  0
C  C207  1  0.15789118  0.24268991  0.47053771  1  0.013538  0  -0.087277  -0.127888  0  3.965578  0
C  C208  1  0.34211174  0.24269184  0.97053859  1  0.013576  0  -0.087308  -0.127975  0  3.965921  0
C  C209  1  0.65789159  0.25731019  0.47054043  1  0.013531  0  -0.087263  -0.127907  0  3.965602  0
C  C210  1  0.15789114  0.74269027  0.02946281  1  0.013497  0  -0.087221  -0.127872  0  3.965469  0
C  C211  1  0.84211212  0.75730737  0.52945729  1  0.013573  0  -0.087361  -0.128074  0  3.966014  0
C  C212  1  0.55548080  0.85234107  0.02983498  1  0.011845  0  -0.091117  -0.197751  0  3.919069  0
C  C213  1  0.44452047  0.64765861  0.52983458  1  0.011928  0  -0.091066  -0.197573  0  3.918814  0
C  C214  1  0.94452363  0.35234165  0.97016319  1  0.011953  0  -0.090996  -0.197476  0  3.918636  0
C  C215  1  0.05547773  0.14765987  0.47016585  1  0.011916  0  -0.091146  -0.197752  0  3.918899  0
C  C216  1  0.44452514  0.14765978  0.97016306  1  0.011949  0  -0.091111  -0.19767  0  3.918698  0
C  C217  1  0.55547952  0.35234020  0.47016852  1  0.011913  0  -0.091143  -0.197697  0  3.918987  0
C  C218  1  0.05547967  0.64765920  0.02983485  1  0.011845  0  -0.091133  -0.19775  0  3.918934  0
C  C219  1  0.94452160  0.85233997  0.52983269  1  0.011969  0  -0.091091  -0.197519  0  3.918747  0
C  C220  1  0.53313423  0.51853402  0.64850936  1  -0.015834  0  -0.087633  -0.194322  0  3.903996  0
C  C221  1  0.46686545  0.98146508  0.14850727  1  -0.015448  0  -0.087627  -0.194353  0  3.904176  0
C  C222  1  0.96686340  0.01853292  0.35149102  1  -0.015956  0  -0.087599  -0.194374  0  3.904235  0
C  C223  1  0.03313161  0.48146202  0.85149096  1  -0.016415  0  -0.087633  -0.194308  0  3.904156  0
C  C224  1  0.46686510  0.48146325  0.35149121  1  -0.015828  0  -0.087671  -0.194444  0  3.904242  0
C  C225  1  0.53313388  0.01853680  0.85148976  1  -0.016196  0  -0.087645  -0.194368  0  3.904144  0
C  C226  1  0.03313461  0.98146232  0.64850904  1  -0.015855  0  -0.08767  -0.194411  0  3.904219  0
C  C227  1  0.96686574  0.51853730  0.14850809  1  -0.015966  0  -0.08766  -0.194401  0  3.904193  0
C  C228  1  0.63629500  0.53134900  0.74242983  1  -0.035795  0  -0.085619  -0.130567  0  3.946316  0
C  C229  1  0.36370449  0.96865108  0.24242737  1  -0.035811  0  -0.085618  -0.130619  0  3.946333  0
C  C230  1  0.86370264  0.03134996  0.25757105  1  -0.035797  0  -0.08559  -0.130501  0  3.946074  0
C  C231  1  0.13629323  0.46864964  0.75757087  1  -0.035866  0  -0.085619  -0.130604  0  3.946346  0
C  C232  1  0.36370433  0.46864981  0.25757276  1  -0.035762  0  -0.085562  -0.130498  0  3.946237  0
C  C233  1  0.63629485  0.03135131  0.75756865  1  -0.0358  0  -0.08557  -0.130462  0  3.946221  0
C  C234  1  0.13629536  0.96864937  0.74242952  1  -0.035691  0  -0.085622  -0.130638  0  3.946402  0
C  C235  1  0.86370478  0.53135122  0.24242717  1  -0.035725  0  -0.085599  -0.1306  0  3.94626  0
C  C236  1  0.48088224  0.51030926  0.76319293  1  -0.001117  0  -0.081604  -0.181256  0  3.89382  0
C  C237  1  0.51911654  0.98969490  0.26319076  1  -0.001102  0  -0.081632  -0.181201  0  3.893845  0
C  C238  1  0.01911457  0.01030450  0.23680759  1  -0.001134  0  -0.081668  -0.181297  0  3.893845  0
C  C239  1  0.98088135  0.48969000  0.73680784  1  -0.001142  0  -0.081639  -0.181212  0  3.893942  0
C  C240  1  0.51911445  0.48969569  0.23680866  1  -0.001128  0  -0.081645  -0.181178  0  3.894027  0
C  C241  1  0.48088213  0.01031005  0.73680678  1  -0.001059  0  -0.081616  -0.181186  0  3.894099  0
C  C242  1  0.98088410  0.98968767  0.76319399  1  -0.001031  0  -0.081661  -0.181348  0  3.893967  0
C  C243  1  0.01911336  0.51030575  0.26319121  1  -0.001141  0  -0.081602  -0.181161  0  3.894067  0
C  C244  1  0.58166388  0.51742169  0.86287637  1  1.607053  0  0.232499  0.640503  0  4.171207  0
C  C245  1  0.41833666  0.98257985  0.36287535  1  1.606859  0  0.232548  0.640536  0  4.170934  0
C  C246  1  0.91833309  0.01741864  0.13712503  1  1.607058  0  0.232515  0.64044  0  4.171136  0
C  C247  1  0.08166569  0.48257795  0.63712642  1  1.60702  0  0.232467  0.640441  0  4.17102  0
C  C248  1  0.41833545  0.48258121  0.13712471  1  1.606858  0  0.232534  0.640449  0  4.170902  0
C  C249  1  0.58166333  0.01742152  0.63712320  1  1.607074  0  0.232601  0.640738  0  4.170885  0
C  C250  1  0.08166624  0.98257659  0.86287301  1  1.606997  0  0.232437  0.640381  0  4.171453  0
C  C251  1  0.91833562  0.51742086  0.36287415  1  1.607012  0  0.23246  0.64034  0  4.171095  0
C  C252  1  0.71751473  0.87776191  0.03187327  1  1.551944  0  0.222396  0.602801  0  4.161522  0
C  C253  1  0.28247927  0.62224238  0.53186904  1  1.551956  0  0.222317  0.602714  0  4.161886  0
C  C254  1  0.78248046  0.37775784  0.96812894  1  1.551982  0  0.22233  0.602798  0  4.1618  0
C  C255  1  0.21751363  0.12223703  0.46812281  1  1.551993  0  0.22242  0.602744  0  4.161681  0
C  C256  1  0.28247998  0.12224304  0.96812882  1  1.55198  0  0.222286  0.602703  0  4.161811  0
C  C257  1  0.71751411  0.37776206  0.46812647  1  1.551956  0  0.222351  0.602644  0  4.161739  0
C  C258  1  0.21751425  0.62223893  0.03187770  1  1.551724  0  0.222402  0.602658  0  4.161801  0
C  C259  1  0.78247909  0.87775666  0.53186865  1  1.551688  0  0.222373  0.602735  0  4.161755  0
N  N260  1  0.39702083  0.83150436  0.01997913  1  -1.234169  0  -0.587558  -0.597673  0  3.321037  0
N  N261  1  0.60297650  0.66849635  0.51998510  1  -1.234002  0  -0.587507  -0.597552  0  3.321063  0
N  N262  1  0.10298012  0.33150534  0.98001564  1  -1.234175  0  -0.587507  -0.597575  0  3.321027  0
N  N263  1  0.89701923  0.16849617  0.48002431  1  -1.234126  0  -0.587518  -0.597659  0  3.321105  0
N  N264  1  0.60298049  0.16849649  0.98001436  1  -1.234199  0  -0.587443  -0.597511  0  3.321289  0
N  N265  1  0.39702085  0.33150297  0.48002559  1  -1.234081  0  -0.587456  -0.5975  0  3.321264  0
N  N266  1  0.89702053  0.66849654  0.01997835  1  -1.23407  0  -0.587525  -0.597616  0  3.321106  0
N  N267  1  0.10297878  0.83150469  0.51998335  1  -1.234247  0  -0.587481  -0.597549  0  3.321089  0
N  N268  1  0.37600653  0.50362230  0.66986606  1  -1.237106  0  -0.583897  -0.611155  0  3.315334  0
N  N269  1  0.62399311  0.99637935  0.16986527  1  -1.237182  0  -0.583941  -0.608862  0  3.31636  0
N  N270  1  0.12399027  0.00361854  0.33013193  1  -1.237131  0  -0.583876  -0.608842  0  3.316587  0
N  N271  1  0.87600610  0.49637794  0.83013484  1  -1.237145  0  -0.583922  -0.60887  0  3.316286  0
N  N272  1  0.62399412  0.49637907  0.33013299  1  -1.237215  0  -0.583977  -0.608952  0  3.316617  0
N  N273  1  0.37600622  0.00362457  0.83013277  1  -1.23698  0  -0.583948  -0.609036  0  3.316443  0
N  N274  1  0.87600708  0.99637465  0.66986763  1  -1.237067  0  -0.583944  -0.608941  0  3.316433  0
N  N275  1  0.12399389  0.50362189  0.16986624  1  -1.237011  0  -0.583955  -0.609005  0  3.316404  0
O  O276  1  0.53335172  0.59994278  0.00965859  1  -1.222467  0  -0.335807  -0.611097  0  2.285238  0
O  O277  1  0.46664695  0.90005845  0.50965499  1  -1.222532  0  -0.335776  -0.611007  0  2.28519  0
O  O278  1  0.96664728  0.09993773  0.99034478  1  -1.222529  0  -0.335806  -0.611091  0  2.285112  0
O  O279  1  0.03335271  0.40005610  0.49034834  1  -1.222493  0  -0.335768  -0.611056  0  2.285394  0
O  O280  1  0.46665025  0.40006268  0.99034299  1  -1.222593  0  -0.335827  -0.61108  0  2.285172  0
O  O281  1  0.53335304  0.09994292  0.49034963  1  -1.222533  0  -0.335784  -0.611029  0  2.285325  0
O  O282  1  0.03335337  0.90005903  0.00965781  1  -1.222485  0  -0.335809  -0.611031  0  2.285253  0
O  O283  1  0.96665124  0.59994066  0.50965021  1  -1.222462  0  -0.335838  -0.611158  0  2.285168  0
O  O284  1  0.81453577  0.59356959  0.92115569  1  -1.304902  0  -0.62203  -0.82138  0  2.07703  0
O  O285  1  0.18546464  0.90642782  0.42115703  1  -1.304928  0  -0.622114  -0.821493  0  2.076888  0
O  O286  1  0.68546322  0.09357162  0.07884111  1  -1.304913  0  -0.622132  -0.821557  0  2.07683  0
O  O287  1  0.31453899  0.40643268  0.57884327  1  -1.304809  0  -0.62207  -0.821348  0  2.076867  0
O  O288  1  0.18546290  0.40642973  0.07884033  1  -1.304914  0  -0.622119  -0.821495  0  2.076926  0
O  O289  1  0.81453800  0.09356843  0.57884304  1  -1.30482  0  -0.622058  -0.821394  0  2.077031  0
O  O290  1  0.31453478  0.90643077  0.92115693  1  -1.304931  0  -0.622097  -0.821447  0  2.077009  0
O  O291  1  0.68546166  0.59357023  0.42116085  1  -1.304877  0  -0.622107  -0.821492  0  2.076969  0
O  O292  1  0.67916605  0.61216559  0.02898985  1  -1.257458  0  -0.362646  -0.685437  0  2.284624  0
O  O293  1  0.32082994  0.88783358  0.52899100  1  -1.257516  0  -0.362623  -0.685374  0  2.284474  0
O  O294  1  0.82083164  0.11216409  0.97101149  1  -1.257476  0  -0.362649  -0.685397  0  2.284586  0
O  O295  1  0.17916707  0.38783181  0.47101335  1  -1.257549  0  -0.362615  -0.685353  0  2.284684  0
O  O296  1  0.32083461  0.38783680  0.97101021  1  -1.257473  0  -0.362664  -0.685404  0  2.284639  0
O  O297  1  0.67916609  0.11216574  0.47101311  1  -1.257447  0  -0.362656  -0.685419  0  2.284656  0
O  O298  1  0.17916968  0.88783268  0.02899009  1  -1.257522  0  -0.362619  -0.685362  0  2.284567  0
O  O299  1  0.82083688  0.61216240  0.52899127  1  -1.2574  0  -0.362646  -0.685415  0  2.284715  0
O  O300  1  0.51338800  0.50696063  0.89903820  1  -1.246022  0  -0.367706  -0.664809  0  2.270791  0
O  O301  1  0.48661114  0.99304141  0.39903708  1  -1.245988  0  -0.367706  -0.664796  0  2.270846  0
O  O302  1  0.98660830  0.00695557  0.10096320  1  -1.246146  0  -0.367684  -0.664748  0  2.270834  0
O  O303  1  0.01338858  0.49303848  0.60096114  1  -1.245933  0  -0.367704  -0.664814  0  2.270674  0
O  O304  1  0.48661067  0.49304228  0.10096288  1  -1.245975  0  -0.367693  -0.664743  0  2.270791  0
O  O305  1  0.51338753  0.00695843  0.60095995  1  -1.246067  0  -0.367772  -0.664921  0  2.270732  0
O  O306  1  0.01339367  0.99303915  0.89903686  1  -1.246088  0  -0.367654  -0.664717  0  2.270954  0
O  O307  1  0.98661009  0.50695675  0.39903589  1  -1.245934  0  -0.367666  -0.664709  0  2.270838  0
O  O308  1  0.65960549  0.52542806  0.88508005  1  -1.234506  0  -0.351811  -0.639175  0  2.216688  0
O  O309  1  0.34039103  0.97457296  0.38508065  1  -1.234294  0  -0.351897  -0.639304  0  2.216456  0
O  O310  1  0.84039016  0.02542705  0.11492033  1  -1.234356  0  -0.351881  -0.63922  0  2.216596  0
O  O311  1  0.15960603  0.47457365  0.61492112  1  -1.234506  0  -0.351801  -0.639128  0  2.216616  0
O  O312  1  0.34038987  0.47457382  0.11492103  1  -1.234302  0  -0.351894  -0.639252  0  2.216491  0
O  O313  1  0.65960499  0.02542483  0.61492093  1  -1.234477  0  -0.351831  -0.639229  0  2.216539  0
O  O314  1  0.15960719  0.97457023  0.88507973  1  -1.234325  0  -0.351844  -0.639218  0  2.216724  0
O  O315  1  0.84039132  0.52543181  0.38507793  1  -1.234478  0  -0.351847  -0.639197  0  2.216529  0
O  O316  1  0.70080478  0.93979228  0.04862626  1  -1.243328  0  -0.355791  -0.654268  0  2.276584  0
O  O317  1  0.29919579  0.56020790  0.54862812  1  -1.24317  0  -0.355766  -0.654202  0  2.276216  0
O  O318  1  0.79919771  0.43979283  0.95136984  1  -1.243255  0  -0.355813  -0.654326  0  2.27629  0
O  O319  1  0.20080171  0.06020615  0.45137085  1  -1.243451  0  -0.355815  -0.654256  0  2.27651  0
O  O320  1  0.29919455  0.06020704  0.95137229  1  -1.243169  0  -0.355738  -0.654217  0  2.276267  0
O  O321  1  0.70080090  0.43979449  0.45137700  1  -1.24336  0  -0.355783  -0.654214  0  2.276612  0
O  O322  1  0.20080163  0.56020701  0.04862668  1  -1.243371  0  -0.355815  -0.654197  0  2.276584  0
O  O323  1  0.79919828  0.93979011  0.54862669  1  -1.243095  0  -0.355804  -0.654223  0  2.276321  0
O  O324  1  0.79332839  0.85662863  0.01309853  1  -1.169231  0  -0.317066  -0.537458  0  2.148839  0
O  O325  1  0.20667622  0.64337004  0.51309439  1  -1.169381  0  -0.316948  -0.53735  0  2.14949  0
O  O326  1  0.70667537  0.35663015  0.98690268  1  -1.169308  0  -0.316921  -0.537351  0  2.14948  0
O  O327  1  0.29332859  0.14336829  0.48689694  1  -1.169099  0  -0.317109  -0.537496  0  2.149002  0
O  O328  1  0.20667556  0.14337120  0.98690356  1  -1.169354  0  -0.316947  -0.537381  0  2.149485  0
O  O329  1  0.79332840  0.35662928  0.48690112  1  -1.16919  0  -0.317084  -0.537434  0  2.148872  0
O  O330  1  0.29332991  0.64337173  0.01310599  1  -1.168963  0  -0.317069  -0.537441  0  2.149004  0
O  O331  1  0.70667404  0.85662848  0.51309401  1  -1.169425  0  -0.31696  -0.537334  0  2.149346  0
O  O332  1  0.76619783  0.56412317  0.64466064  1  -1.16071  0  -0.324791  -0.469172  0  2.246792  0
O  O333  1  0.23380318  0.93587338  0.14465836  1  -1.160618  0  -0.324862  -0.469178  0  2.246691  0
O  O334  1  0.73380313  0.06412710  0.35534225  1  -1.1607  0  -0.324818  -0.469117  0  2.246788  0
O  O335  1  0.26619848  0.43587653  0.85533989  1  -1.160686  0  -0.324808  -0.469135  0  2.246693  0
O  O336  1  0.23380017  0.43587769  0.35534246  1  -1.160636  0  -0.324877  -0.469208  0  2.246552  0
O  O337  1  0.76619747  0.06412697  0.85533968  1  -1.160707  0  -0.324835  -0.469234  0  2.246795  0
O  O338  1  0.26619885  0.93587682  0.64465883  1  -1.16067  0  -0.324827  -0.469176  0  2.246693  0
O  O339  1  0.73380349  0.56412638  0.14466017  1  -1.160697  0  -0.324802  -0.469188  0  2.246874  0
O  O340  1  0.67633166  0.53018564  0.56012448  1  -1.207362  0  -0.300767  -0.574236  0  2.271703  0
O  O341  1  0.32367483  0.96981096  0.06012460  1  -1.207099  0  -0.300735  -0.57423  0  2.271877  0
O  O342  1  0.82367325  0.03018955  0.43987741  1  -1.207155  0  -0.300775  -0.574238  0  2.271787  0
O  O343  1  0.17632817  0.46981301  0.93987465  1  -1.207326  0  -0.300712  -0.574189  0  2.271676  0
O  O344  1  0.32367098  0.46980908  0.43987761  1  -1.20719  0  -0.300794  -0.574223  0  2.271785  0
O  O345  1  0.67632912  0.03019041  0.93987496  1  -1.207343  0  -0.300745  -0.574212  0  2.271679  0
O  O346  1  0.17632938  0.96980926  0.56012316  1  -1.207049  0  -0.300848  -0.57428  0  2.271676  0
O  O347  1  0.82367182  0.53018887  0.06012390  1  -1.207086  0  -0.300774  -0.574237  0  2.271764  0
O  O348  1  0.63385322  0.46565981  0.02219814  1  -1.32814  0  -0.592779  -0.895064  0  2.15451  0
O  O349  1  0.36614582  0.03433992  0.52219487  1  -1.32822  0  -0.592829  -0.895044  0  2.154624  0
O  O350  1  0.86614928  0.96565879  0.97780452  1  -1.328193  0  -0.592772  -0.894991  0  2.154702  0
O  O351  1  0.13385232  0.53433757  0.47780158  1  -1.328149  0  -0.592758  -0.894979  0  2.154668  0
O  O352  1  0.36615008  0.53434207  0.97780698  1  -1.328192  0  -0.592791  -0.895026  0  2.15467  0
O  O353  1  0.63385417  0.96565992  0.47780216  1  -1.328119  0  -0.592746  -0.895023  0  2.154599  0
O  O354  1  0.13385137  0.03434105  0.02219757  1  -1.328127  0  -0.592801  -0.8951  0  2.154568  0
O  O355  1  0.86614370  0.46565919  0.52219494  1  -1.328202  0  -0.592793  -0.895047  0  2.154734  0
