# generated using pymatgen
data_ZnH14C11(NO2)2
_symmetry_space_group_name_H-M   'P 1'
_cell_length_a   9.89837156
_cell_length_b   12.47156701
_cell_length_c   12.47152919
_cell_angle_alpha   90.00012664
_cell_angle_beta   90.00002695
_cell_angle_gamma   90.00000472
_symmetry_Int_Tables_number   1
_chemical_formula_structural   ZnH14C11(NO2)2
_chemical_formula_sum   'Zn4 H56 C44 N8 O16'
_cell_volume   1539.58788214
_cell_formula_units_Z   4
loop_
 _symmetry_equiv_pos_site_id
 _symmetry_equiv_pos_as_xyz
  1  'x, y, z'
loop_
 _atom_site_type_symbol
 _atom_site_label
 _atom_site_symmetry_multiplicity
 _atom_site_fract_x
 _atom_site_fract_y
 _atom_site_fract_z
 _atom_site_occupancy
 _atom_site_pbe_bader_charge
 _atom_site_pbe_bader_spin_density
 _atom_site_pbe_cm5_charge
 _atom_site_pbe_ddec_charge
 _atom_site_pbe_ddec_spin_density
 _atom_site_pbe_ddec_sum_bond_order
 _atom_site_pbe_magmom
Zn  Zn0  1  0.03509296  0.59813684  0.99088798  1  1.265571  0  0.677406  0.776507  0  2.318813  0
Zn  Zn1  1  0.53509107  0.40186372  0.00911330  1  1.26566  0  0.677385  0.776464  0  2.318892  0
Zn  Zn2  1  0.78509295  0.00911342  0.59813771  1  1.265622  0  0.67741  0.776522  0  2.318792  0
Zn  Zn3  1  0.28509050  0.99089037  0.40186366  1  1.265579  0  0.677401  0.776479  0  2.318829  0
H  H4  1  0.15916983  0.95834452  0.57140415  1  0.469279  0  0.293159  0.251033  0  1.001208  0
H  H5  1  0.65917017  0.04165204  0.42859637  1  0.469273  0  0.293141  0.251025  0  1.001252  0
H  H6  1  0.90917006  0.42859679  0.95834744  1  0.469276  0  0.293147  0.251021  0  1.001251  0
H  H7  1  0.40917038  0.57140460  0.04165639  1  0.469291  0  0.293167  0.251062  0  1.001146  0
H  H8  1  0.95055766  0.78635364  0.85171136  1  0.162312  0  0.126551  0.106124  0  0.983973  0
H  H9  1  0.45055497  0.21364294  0.14828526  1  0.162289  0  0.126562  0.106131  0  0.983936  0
H  H10  1  0.70055689  0.14828378  0.78635695  1  0.162309  0  0.126542  0.10612  0  0.9839  0
H  H11  1  0.20055835  0.85171519  0.21364519  1  0.16225  0  0.126568  0.106132  0  0.984022  0
H  H12  1  0.02192102  0.86625437  0.67892091  1  0.142922  0  0.112001  0.132015  0  1.034435  0
H  H13  1  0.52191928  0.13374219  0.32107635  1  0.142903  0  0.11199  0.131963  0  1.03444  0
H  H14  1  0.77192017  0.32107772  0.86625594  1  0.142921  0  0.111998  0.131971  0  1.034442  0
H  H15  1  0.27191955  0.67892366  0.13374863  1  0.142954  0  0.112004  0.131978  0  1.03447  0
H  H16  1  0.36168700  0.64741500  0.67987010  1  0.110789  0  0.109837  0.118936  0  1.0068  0
H  H17  1  0.86168730  0.35258158  0.32013050  1  0.110863  0  0.10984  0.118932  0  1.00677  0
H  H18  1  0.11168626  0.32012970  0.64741657  1  0.110839  0  0.109845  0.118931  0  1.006787  0
H  H19  1  0.61168863  0.67987568  0.35258634  1  0.110827  0  0.109839  0.118977  0  1.00678  0
H  H20  1  0.27888656  0.57816005  0.85263230  1  0.152137  0  0.11598  0.096313  0  1.064786  0
H  H21  1  0.77888677  0.42183571  0.14736746  1  0.152107  0  0.11601  0.096324  0  1.064749  0
H  H22  1  0.02888574  0.14736785  0.57816102  1  0.152134  0  0.115973  0.096322  0  1.064825  0
H  H23  1  0.52888615  0.85263753  0.42183865  1  0.152034  0  0.115973  0.096343  0  1.06481  0
H  H24  1  0.17591700  0.78823590  0.49501398  1  0.07711  0  0.116959  0.108762  0  0.966139  0
H  H25  1  0.67591336  0.21176066  0.50498495  1  0.077111  0  0.116974  0.108808  0  0.966068  0
H  H26  1  0.92591418  0.50498476  0.78823927  1  0.07711  0  0.116979  0.108785  0  0.96609  0
H  H27  1  0.42591661  0.49501824  0.21176536  1  0.077175  0  0.116936  0.108724  0  0.966152  0
H  H28  1  0.34624705  0.77767433  0.53817390  1  0.075851  0  0.107987  0.089285  0  0.994188  0
H  H29  1  0.84624339  0.22232465  0.46182509  1  0.075935  0  0.108012  0.089317  0  0.994216  0
H  H30  1  0.09624336  0.46182414  0.77767421  1  0.075921  0  0.108006  0.089307  0  0.99419  0
H  H31  1  0.59624564  0.53817803  0.22232789  1  0.075885  0  0.107976  0.089295  0  0.994128  0
H  H32  1  0.39279112  0.90799974  0.68732657  1  0.05753  0  0.114269  0.081071  0  0.953461  0
H  H33  1  0.89279140  0.09199844  0.31267243  1  0.057534  0  0.114267  0.08105  0  0.953511  0
H  H34  1  0.14279044  0.31267142  0.90800129  1  0.057513  0  0.114263  0.081034  0  0.953499  0
H  H35  1  0.64279165  0.68732835  0.09200002  1  0.057485  0  0.114263  0.081056  0  0.953534  0
H  H36  1  0.36233559  0.09059653  0.76499697  1  0.050949  0  0.099549  0.146815  0  0.989529  0
H  H37  1  0.86233590  0.90940165  0.23500202  1  0.050928  0  0.099542  0.14678  0  0.989505  0
H  H38  1  0.11233468  0.23500185  0.09059703  1  0.050945  0  0.099543  0.146791  0  0.989541  0
H  H39  1  0.61233638  0.76499631  0.90940347  1  0.050937  0  0.099547  0.146817  0  0.989535  0
H  H40  1  0.20522691  0.02100141  0.75504540  1  0.030912  0  0.088943  0.124502  0  1.00376  0
H  H41  1  0.70522723  0.97899756  0.24495434  1  0.030918  0  0.08896  0.1245  0  1.003776  0
H  H42  1  0.95522583  0.24495404  0.02100269  1  0.030897  0  0.088954  0.124509  0  1.003764  0
H  H43  1  0.45522773  0.75504415  0.97899955  1  0.030924  0  0.088955  0.124515  0  1.003784  0
H  H44  1  0.24691354  0.12268380  0.65977012  1  0.02966  0  0.09169  0.132291  0  1.035167  0
H  H45  1  0.74691391  0.87731518  0.34022883  1  0.029657  0  0.091684  0.132303  0  1.035115  0
H  H46  1  0.99691353  0.34022847  0.12268560  1  0.029656  0  0.091674  0.132298  0  1.035085  0
H  H47  1  0.49691435  0.65976972  0.87731665  1  0.029675  0  0.091687  0.132279  0  1.035201  0
H  H48  1  0.96048136  0.61490072  0.36794612  1  0.030661  0  0.091415  0.141822  0  0.997204  0
H  H49  1  0.46048201  0.38509747  0.63205372  1  0.030673  0  0.091397  0.141783  0  0.997263  0
H  H50  1  0.71047971  0.63205760  0.61489896  1  0.030683  0  0.091414  0.141797  0  0.997224  0
H  H51  1  0.21048526  0.36794698  0.38509677  1  0.030682  0  0.091419  0.141837  0  0.997194  0
H  H52  1  0.84858415  0.70831954  0.30843305  1  0.025213  0  0.095903  0.14551  0  1.018374  0
H  H53  1  0.34858685  0.29167944  0.69156755  1  0.025248  0  0.095898  0.145479  0  1.018404  0
H  H54  1  0.59858355  0.69157067  0.70831738  1  0.025215  0  0.095911  0.145499  0  1.018431  0
H  H55  1  0.09858500  0.30843791  0.29167830  1  0.0251  0  0.095917  0.145503  0  1.018374  0
H  H56  1  0.02058635  0.74344262  0.32142813  1  0.07084  0  0.091902  0.147853  0  1.02639  0
H  H57  1  0.52059090  0.25655714  0.67857394  1  0.070715  0  0.091881  0.147822  0  1.026405  0
H  H58  1  0.77058559  0.67857396  0.74343980  1  0.070775  0  0.091892  0.147794  0  1.026431  0
H  H59  1  0.27059006  0.32142662  0.25655595  1  0.070778  0  0.091884  0.147856  0  1.026404  0
C  C60  1  0.04286288  0.75984928  0.81219155  1  0.398847  0  0.053165  0.102247  0  3.92249  0
C  C61  1  0.54286209  0.24014647  0.18780893  1  0.398748  0  0.053173  0.102263  0  3.922519  0
C  C62  1  0.79286297  0.18780886  0.75985104  1  0.398771  0  0.053142  0.102196  0  3.922514  0
C  C63  1  0.29286041  0.81219733  0.24014953  1  0.398786  0  0.053157  0.102207  0  3.922441  0
C  C64  1  0.08376757  0.80408660  0.71536707  1  -0.018651  0  -0.082425  -0.172792  0  3.911656  0
C  C65  1  0.58376480  0.19591076  0.28462861  1  -0.018737  0  -0.082459  -0.172757  0  3.91167  0
C  C66  1  0.83376467  0.28462994  0.80408711  1  -0.018692  0  -0.082432  -0.17272  0  3.911628  0
C  C67  1  0.33376712  0.71536903  0.19591267  1  -0.019323  0  -0.082481  -0.172747  0  3.911483  0
C  C68  1  0.20021802  0.76517804  0.66465955  1  -0.032231  0  0.010319  0.138205  0  3.949376  0
C  C69  1  0.70021630  0.23481852  0.33533858  1  -0.032219  0  0.010279  0.138253  0  3.949282  0
C  C70  1  0.95021513  0.33533965  0.76517937  1  -0.032209  0  0.010288  0.138264  0  3.949216  0
C  C71  1  0.45021860  0.66466575  0.23482367  1  -0.0319  0  0.010373  0.138298  0  3.949443  0
C  C72  1  0.27101654  0.68251407  0.71512562  1  -0.045661  0  -0.085653  -0.188346  0  3.957315  0
C  C73  1  0.77101480  0.31748089  0.28487093  1  -0.04567  0  -0.085584  -0.188308  0  3.957332  0
C  C74  1  0.02101377  0.28487274  0.68251486  1  -0.045626  0  -0.085593  -0.188296  0  3.957258  0
C  C75  1  0.52101815  0.71513023  0.31748240  1  -0.045391  0  -0.085656  -0.188449  0  3.957441  0
C  C76  1  0.22481099  0.64279343  0.81261321  1  0.457255  0  0.042338  0.085931  0  3.953924  0
C  C77  1  0.72481223  0.35720554  0.18738814  1  0.457305  0  0.042225  0.085843  0  3.953746  0
C  C78  1  0.97481004  0.18738618  0.64279165  1  0.457242  0  0.042262  0.08579  0  3.953886  0
C  C79  1  0.47481158  0.81261923  0.35720899  1  0.456945  0  0.042322  0.085846  0  3.95374  0
C  C80  1  0.24697012  0.81119219  0.55900457  1  0.29593  0  -0.063367  -0.089332  0  3.925504  0
C  C81  1  0.74696644  0.18880517  0.44099278  1  0.295943  0  -0.063417  -0.089481  0  3.925562  0
C  C82  1  0.99696728  0.44099363  0.81119390  1  0.29593  0  -0.063397  -0.089404  0  3.925466  0
C  C83  1  0.49696870  0.55900857  0.18880915  1  0.295929  0  -0.063338  -0.089309  0  3.925456  0
C  C84  1  0.35372509  0.97349907  0.63669772  1  0.285571  0  0.001062  0.05264  0  3.841405  0
C  C85  1  0.85372438  0.02649911  0.36329966  1  0.285583  0  0.001039  0.052626  0  3.841409  0
C  C86  1  0.10372343  0.36329865  0.97349933  1  0.285589  0  0.001013  0.05263  0  3.841394  0
C  C87  1  0.60372662  0.63669951  0.02650278  1  0.285728  0  0.001111  0.052698  0  3.841422  0
C  C88  1  0.28794960  0.05746911  0.70897332  1  -0.032511  0  -0.242294  -0.408549  0  3.904732  0
C  C89  1  0.78794893  0.94252906  0.29102484  1  -0.032555  0  -0.242294  -0.40848  0  3.904533  0
C  C90  1  0.03794769  0.29102444  0.05747043  1  -0.032551  0  -0.242281  -0.408503  0  3.904547  0
C  C91  1  0.53795042  0.70897372  0.94253085  1  -0.03251  0  -0.242313  -0.408572  0  3.904772  0
C  C92  1  0.47863042  0.02001498  0.57938616  1  1.572209  0  0.216487  0.579664  0  4.119251  0
C  C93  1  0.97862983  0.97998561  0.42061448  1  1.572248  0  0.216431  0.579588  0  4.11912  0
C  C94  1  0.22862955  0.42061357  0.02001489  1  1.572259  0  0.216419  0.579538  0  4.119154  0
C  C95  1  0.72863128  0.57938620  0.97998806  1  1.572235  0  0.216384  0.579527  0  4.119111  0
C  C96  1  0.97545852  0.62757175  0.19583252  1  1.561203  0  0.194224  0.671096  0  4.156174  0
C  C97  1  0.47545624  0.37243125  0.80416812  1  1.561198  0  0.194185  0.671007  0  4.156413  0
C  C98  1  0.72545794  0.80416991  0.62757202  1  1.561566  0  0.194199  0.670957  0  4.15638  0
C  C99  1  0.22545438  0.19583387  0.37242853  1  1.561314  0  0.194261  0.671043  0  4.156343  0
C  C100  1  0.95199611  0.67637488  0.30552240  1  -0.059633  0  -0.247785  -0.514112  0  3.903931  0
C  C101  1  0.45199881  0.32362411  0.69447743  1  -0.059606  0  -0.247741  -0.513989  0  3.903939  0
C  C102  1  0.70199449  0.69447966  0.67637265  1  -0.05982  0  -0.247805  -0.514011  0  3.90408  0
C  C103  1  0.20199697  0.30552252  0.32362228  1  -0.05948  0  -0.247791  -0.514127  0  3.903933  0
N  N104  1  0.25545233  0.92925675  0.55885957  1  -1.125027  0  -0.482502  -0.355008  0  3.501864  0
N  N105  1  0.75545167  0.07074062  0.44114019  1  -1.12502  0  -0.482448  -0.355011  0  3.501931  0
N  N106  1  0.00545170  0.44113966  0.92925863  1  -1.125012  0  -0.482456  -0.355009  0  3.501919  0
N  N107  1  0.50545289  0.55886010  0.07074504  1  -1.125111  0  -0.482535  -0.355067  0  3.501964  0
N  N108  1  0.11255618  0.68050405  0.86065385  1  -1.264377  0  -0.331674  -0.237344  0  3.557081  0
N  N109  1  0.61255132  0.31949250  0.13934505  1  -1.264329  0  -0.331619  -0.237292  0  3.5567  0
N  N110  1  0.86255219  0.13934574  0.68050548  1  -1.264371  0  -0.331624  -0.237264  0  3.556934  0
N  N111  1  0.36255472  0.86065805  0.31949432  1  -1.263961  0  -0.331647  -0.237261  0  3.556884  0
O  O112  1  0.57728808  0.04552347  0.63872215  1  -1.196433  0  -0.322493  -0.561075  0  2.298738  0
O  O113  1  0.07729065  0.95447629  0.36127513  1  -1.196467  0  -0.32241  -0.560996  0  2.298525  0
O  O114  1  0.32729023  0.36127463  0.04552415  1  -1.196475  0  -0.32243  -0.561007  0  2.29857  0
O  O115  1  0.82729094  0.63872274  0.95447804  1  -1.196453  0  -0.32244  -0.560997  0  2.298582  0
O  O116  1  0.47602996  0.02961831  0.47749730  1  -1.171432  0  -0.308837  -0.543228  0  2.323717  0
O  O117  1  0.97603045  0.97038148  0.52250013  1  -1.171411  0  -0.308856  -0.543206  0  2.323712  0
O  O118  1  0.22603014  0.52249974  0.02961848  1  -1.171393  0  -0.3088  -0.543137  0  2.323713  0
O  O119  1  0.72603186  0.47749843  0.97038367  1  -1.171415  0  -0.308798  -0.543149  0  2.323681  0
O  O120  1  0.02950796  0.68870830  0.12364078  1  -1.166815  0  -0.342315  -0.564321  0  2.224912  0
O  O121  1  0.52951061  0.31129146  0.87636050  1  -1.166713  0  -0.342347  -0.564396  0  2.224993  0
O  O122  1  0.77950625  0.87636059  0.68870896  1  -1.166901  0  -0.342315  -0.564293  0  2.224916  0
O  O123  1  0.27950769  0.12364239  0.31129080  1  -1.166821  0  -0.34233  -0.564323  0  2.225013  0
O  O124  1  0.94026989  0.53235194  0.17727253  1  -1.209985  0  -0.341784  -0.594519  0  2.125686  0
O  O125  1  0.44026865  0.46764625  0.82272569  1  -1.210157  0  -0.341705  -0.594364  0  2.125854  0
O  O126  1  0.69027132  0.82272882  0.53235035  1  -1.210099  0  -0.341738  -0.5944  0  2.125711  0
O  O127  1  0.19026781  0.17727656  0.46764617  1  -1.210125  0  -0.341825  -0.59448  0  2.125769  0
