# generated using pymatgen
data_ZnH20C22S2N12(OF)6
_symmetry_space_group_name_H-M   'P 1'
_cell_length_a   12.39084943
_cell_length_b   15.78618128
_cell_length_c   15.78616153
_cell_angle_alpha   120.00023099
_cell_angle_beta   89.99983273
_cell_angle_gamma   90.00013576
_symmetry_Int_Tables_number   1
_chemical_formula_structural   ZnH20C22S2N12(OF)6
_chemical_formula_sum   'Zn3 H60 C66 S6 N36 O18 F18'
_cell_volume   2674.14115791
_cell_formula_units_Z   3
loop_
 _symmetry_equiv_pos_site_id
 _symmetry_equiv_pos_as_xyz
  1  'x, y, z'
loop_
 _atom_site_type_symbol
 _atom_site_label
 _atom_site_symmetry_multiplicity
 _atom_site_fract_x
 _atom_site_fract_y
 _atom_site_fract_z
 _atom_site_occupancy
 _atom_site_pbe_bader_charge
 _atom_site_pbe_bader_spin_density
 _atom_site_pbe_cm5_charge
 _atom_site_pbe_ddec_charge
 _atom_site_pbe_ddec_spin_density
 _atom_site_pbe_ddec_sum_bond_order
 _atom_site_pbe_magmom
Zn  Zn0  1  0.83333438  0.57836327  0.00000083  1  1.287151  0  0.710248  0.744303  0  2.278486  0
Zn  Zn1  1  0.49999947  0.42163665  0.42163704  1  1.285344  0  0.710267  0.744328  0  2.278503  0
Zn  Zn2  1  0.16666627  0.00000052  0.57836278  1  1.287118  0  0.710236  0.74429  0  2.278578  0
H  H3  1  0.83246966  0.55819037  0.18442464  1  0.164054  0  0.120311  0.118643  0  1.011062  0
H  H4  1  0.02436285  0.42053257  0.93517327  1  0.126587  0  0.120676  0.111766  0  1.037172  0
H  H5  1  0.22833558  0.18987395  0.94420063  1  0.068651  0  0.11175  0.129521  0  1.001623  0
H  H6  1  0.15423744  0.22546482  0.05448976  1  0.068187  0  0.105353  0.124144  0  0.979083  0
H  H7  1  0.23534422  0.31226897  0.04344317  1  0.086161  0  0.105508  0.131098  0  0.996911  0
H  H8  1  0.20071215  0.13088969  0.79928411  1  0.121141  0  0.11456  0.108019  0  1.057834  0
H  H9  1  0.93326102  0.05003760  0.61639261  1  0.103324  0  0.115346  0.100723  0  1.062129  0
H  H10  1  0.69937938  0.06443584  0.72468468  1  0.029979  0  0.100202  0.111264  0  1.012114  0
H  H11  1  0.76886712  0.05651231  0.62189178  1  0.058242  0  0.109245  0.134958  0  0.997328  0
H  H12  1  0.65483058  0.13488168  0.67163120  1  0.109834  0  0.101902  0.13276  0  1.02267  0
H  H13  1  0.49913217  0.62623367  0.44181199  1  0.133842  0  0.120295  0.118668  0  1.010995  0
H  H14  1  0.69102900  0.51464060  0.57946742  1  0.128493  0  0.120676  0.111776  0  1.037116  0
H  H15  1  0.89500204  0.75432639  0.81012395  1  0.059332  0  0.11177  0.129529  0  1.001642  0
H  H16  1  0.82090560  0.82902539  0.77453389  1  0.072524  0  0.105356  0.124157  0  0.979088  0
H  H17  1  0.90201143  0.73117414  0.68773046  1  0.093885  0  0.105524  0.131123  0  0.996861  0
H  H18  1  0.86738141  0.66839276  0.86910624  1  0.106973  0  0.114557  0.108014  0  1.057854  0
H  H19  1  0.59992810  0.56635746  0.94996251  1  0.099518  0  0.115358  0.100793  0  1.06208  0
H  H20  1  0.36604600  0.66025090  0.93556548  1  0.041533  0  0.100197  0.111251  0  1.012145  0
H  H21  1  0.43553502  0.56538116  0.94348803  1  0.059803  0  0.109241  0.134959  0  0.997303  0
H  H22  1  0.32149774  0.53675054  0.86511955  1  0.115348  0  0.101915  0.132761  0  1.022698  0
H  H23  1  0.16579950  0.81557679  0.37376641  1  0.152297  0  0.120309  0.118637  0  1.011031  0
H  H24  1  0.35769057  0.06483101  0.48536168  1  0.155906  0  0.120719  0.111851  0  1.037129  0
H  H25  1  0.56166976  0.05579687  0.24567436  1  0.058462  0  0.111738  0.129503  0  1.001641  0
H  H26  1  0.48757059  0.94550817  0.17097552  1  0.078657  0  0.105348  0.124161  0  0.979109  0
H  H27  1  0.56867866  0.95655466  0.26882606  1  0.08669  0  0.10551  0.131135  0  0.996815  0
H  H28  1  0.53404621  0.20071391  0.33160568  1  0.11075  0  0.114562  0.108003  0  1.057822  0
H  H29  1  0.26659409  0.38360620  0.43364479  1  0.106985  0  0.115347  0.100751  0  1.062141  0
H  H30  1  0.03271263  0.27531356  0.33974976  1  0.033547  0  0.100196  0.111258  0  1.012134  0
H  H31  1  0.10220180  0.37810576  0.43461728  1  0.067148  0  0.109251  0.134966  0  0.997329  0
H  H32  1  0.98816353  0.32836901  0.46325039  1  0.115056  0  0.101917  0.132777  0  1.022642  0
H  H33  1  0.16752932  0.18442563  0.55819060  1  0.16406  0  0.120303  0.118656  0  1.011037  0
H  H34  1  0.97563753  0.93517218  0.42053196  1  0.126581  0  0.120677  0.111754  0  1.037168  0
H  H35  1  0.77166649  0.94420106  0.18987394  1  0.068668  0  0.111758  0.12953  0  1.001638  0
H  H36  1  0.84576412  0.05448967  0.22546504  1  0.068176  0  0.105349  0.124163  0  0.979052  0
H  H37  1  0.76465651  0.04344266  0.31226738  1  0.086388  0  0.105508  0.131124  0  0.996892  0
H  H38  1  0.79928676  0.79928389  0.13089178  1  0.121147  0  0.114569  0.108035  0  1.057822  0
H  H39  1  0.06674122  0.61639441  0.05003856  1  0.103366  0  0.115352  0.100741  0  1.062114  0
H  H40  1  0.30061959  0.72468694  0.06443591  1  0.029939  0  0.10019  0.111233  0  1.012155  0
H  H41  1  0.23113349  0.62189360  0.05651184  1  0.05827  0  0.109252  0.134943  0  0.99733  0
H  H42  1  0.34517080  0.67163141  0.13487899  1  0.109856  0  0.101921  0.132772  0  1.022662  0
H  H43  1  0.50086347  0.44180857  0.62623122  1  0.134001  0  0.120315  0.118678  0  1.010968  0
H  H44  1  0.30897066  0.57946903  0.51464027  1  0.128487  0  0.120695  0.1118  0  1.037165  0
H  H45  1  0.10499666  0.81012373  0.75432681  1  0.059264  0  0.111763  0.129526  0  1.001645  0
H  H46  1  0.17909469  0.77453312  0.82902531  1  0.072527  0  0.105347  0.124131  0  0.97912  0
H  H47  1  0.09798650  0.68773006  0.73117500  1  0.093543  0  0.105497  0.131097  0  0.996869  0
H  H48  1  0.13261810  0.86910493  0.66839135  1  0.106933  0  0.114556  0.108009  0  1.057822  0
H  H49  1  0.40007142  0.94996087  0.56635570  1  0.099438  0  0.115334  0.100736  0  1.062151  0
H  H50  1  0.63395188  0.93556374  0.66025056  1  0.041526  0  0.100196  0.111256  0  1.012122  0
H  H51  1  0.56446531  0.94348723  0.56538096  1  0.059823  0  0.109253  0.134967  0  0.997305  0
H  H52  1  0.67850101  0.86511807  0.53675105  1  0.115362  0  0.101923  0.132787  0  1.022657  0
H  H53  1  0.83419771  0.37376811  0.81557591  1  0.152261  0  0.120304  0.118689  0  1.010876  0
H  H54  1  0.64231089  0.48536137  0.06483269  1  0.155891  0  0.120741  0.111884  0  1.037132  0
H  H55  1  0.43833260  0.24567226  0.05579728  1  0.058469  0  0.111764  0.12952  0  1.001656  0
H  H56  1  0.51243230  0.17097298  0.94550884  1  0.078627  0  0.105347  0.124181  0  0.97902  0
H  H57  1  0.43132418  0.26882277  0.95655467  1  0.086957  0  0.105512  0.131136  0  0.996839  0
H  H58  1  0.46595608  0.33160454  0.20071475  1  0.110768  0  0.114561  0.108024  0  1.057828  0
H  H59  1  0.73340487  0.43364851  0.38360849  1  0.106952  0  0.115357  0.100778  0  1.062053  0
H  H60  1  0.96728639  0.33974928  0.27531220  1  0.034109  0  0.100196  0.111252  0  1.012138  0
H  H61  1  0.89779958  0.43461703  0.37810553  1  0.06716  0  0.109261  0.134971  0  0.997327  0
H  H62  1  0.01183705  0.46324879  0.32836816  1  0.115059  0  0.101926  0.132798  0  1.022649  0
C  C63  1  0.91972906  0.42938996  0.16295007  1  0.960161  0  0.232547  0.300932  0  4.043821  0
C  C64  1  0.88874021  0.50002638  0.13914963  1  0.491143  0  0.045427  -0.046481  0  3.904045  0
C  C65  1  0.99401723  0.42365930  0.00124730  1  0.551261  0  0.048738  -0.038662  0  3.894905  0
C  C66  1  0.02467434  0.35406335  0.02709902  1  0.953322  0  0.236636  0.302434  0  4.030243  0
C  C67  1  0.18233169  0.24889815  0.00333069  1  0.271201  0  -0.129847  -0.257195  0  3.896399  0
C  C68  1  0.05201532  0.21398140  0.86901154  1  0.942982  0  0.23497  0.312722  0  4.064781  0
C  C69  1  0.11496100  0.14107456  0.79256940  1  0.558118  0  0.01907  -0.093547  0  3.90419  0
C  C70  1  0.96557351  0.09685131  0.68916374  1  0.512952  0  0.019724  -0.091966  0  3.918801  0
C  C71  1  0.90392960  0.16997442  0.76612571  1  0.995621  0  0.234703  0.320495  0  4.059627  0
C  C72  1  0.72598785  0.10579528  0.68953311  1  0.293979  0  -0.137952  -0.265688  0  3.89983  0
C  C73  1  0.04846978  0.43344421  0.70937932  1  1.648324  0  0.287933  0.511462  0  4.067659  0
C  C74  1  0.58639407  0.73356051  0.57061161  1  0.946777  0  0.232578  0.300897  0  4.043894  0
C  C75  1  0.55540506  0.63912193  0.49997480  1  0.534773  0  0.045384  -0.046525  0  3.903985  0
C  C76  1  0.66068171  0.57758823  0.57634065  1  0.572095  0  0.048748  -0.03864  0  3.894867  0
C  C77  1  0.69134064  0.67303611  0.64593648  1  0.932806  0  0.236697  0.302577  0  4.03009  0
C  C78  1  0.84899965  0.75443253  0.75110016  1  0.269655  0  -0.129887  -0.257244  0  3.896385  0
C  C79  1  0.71868230  0.65503035  0.78601806  1  0.975997  0  0.235016  0.312742  0  4.064705  0
C  C80  1  0.78162942  0.65149431  0.85892271  1  0.530218  0  0.019073  -0.093538  0  3.904166  0
C  C81  1  0.63224078  0.59231352  0.90314751  1  0.510922  0  0.0197  -0.092081  0  3.918752  0
C  C82  1  0.57059704  0.59615104  0.83002500  1  0.997659  0  0.23473  0.32058  0  4.059498  0
C  C83  1  0.39265511  0.58373968  0.89420607  1  0.269689  0  -0.137944  -0.265662  0  3.899816  0
C  C84  1  0.71513436  0.27593921  0.56655812  1  1.654697  0  0.287895  0.511467  0  4.067267  0
C  C85  1  0.25306171  0.83705150  0.26644139  1  0.961216  0  0.232607  0.300953  0  4.043876  0
C  C86  1  0.22207096  0.86085324  0.36087909  1  0.517123  0  0.04541  -0.046451  0  3.903974  0
C  C87  1  0.32734470  0.99875627  0.42241446  1  0.525633  0  0.048624  -0.038875  0  3.89497  0
C  C88  1  0.35800618  0.97290164  0.32696620  1  0.948525  0  0.23672  0.302686  0  4.03008  0
C  C89  1  0.51566384  0.99666748  0.24556724  1  0.271842  0  -0.129866  -0.257283  0  3.896397  0
C  C90  1  0.38534925  0.13098784  0.34497100  1  0.970276  0  0.235031  0.312752  0  4.06464  0
C  C91  1  0.44829500  0.20742927  0.34850605  1  0.52346  0  0.019092  -0.093461  0  3.904021  0
C  C92  1  0.29890577  0.31083520  0.40768730  1  0.510797  0  0.019671  -0.092092  0  3.918767  0
C  C93  1  0.23726340  0.23387276  0.40384848  1  1.003385  0  0.234748  0.320611  0  4.05948  0
C  C94  1  0.05932170  0.31046610  0.41625993  1  0.27684  0  -0.137967  -0.265691  0  3.899811  0
C  C95  1  0.38179697  0.29062009  0.72406051  1  1.648141  0  0.288032  0.51142  0  4.06766  0
C  C96  1  0.08027159  0.16294939  0.42938912  1  0.96018  0  0.232594  0.300986  0  4.043841  0
C  C97  1  0.11125961  0.13914904  0.50002567  1  0.491157  0  0.045412  -0.046552  0  3.904025  0
C  C98  1  0.00598347  0.00124692  0.42365862  1  0.551277  0  0.048764  -0.038624  0  3.89486  0
C  C99  1  0.97532558  0.02709875  0.35406275  1  0.953283  0  0.236646  0.30246  0  4.030221  0
C  C100  1  0.81766988  0.00332972  0.24889820  1  0.271207  0  -0.129881  -0.257296  0  3.896481  0
C  C101  1  0.94798435  0.86901158  0.21398314  1  0.942337  0  0.235035  0.312818  0  4.06478  0
C  C102  1  0.88503872  0.79256979  0.14107727  1  0.558754  0  0.019049  -0.093553  0  3.904102  0
C  C103  1  0.03442707  0.68916510  0.09685268  1  0.512926  0  0.019684  -0.092063  0  3.918799  0
C  C104  1  0.09607012  0.76612635  0.16997518  1  0.995618  0  0.234738  0.320657  0  4.059362  0
C  C105  1  0.27401273  0.68953448  0.10579519  1  0.293963  0  -0.137957  -0.265609  0  3.899799  0
C  C106  1  0.95153471  0.70937936  0.43344308  1  1.647859  0  0.287966  0.511355  0  4.067718  0
C  C107  1  0.41360472  0.57061037  0.73355970  1  0.946937  0  0.232534  0.300926  0  4.043966  0
C  C108  1  0.44459136  0.49997385  0.63912201  1  0.534644  0  0.045393  -0.046525  0  3.904064  0
C  C109  1  0.33931632  0.57633967  0.57758682  1  0.572061  0  0.048761  -0.038741  0  3.894924  0
C  C110  1  0.30865814  0.64593474  0.67303555  1  0.932831  0  0.236712  0.302688  0  4.030111  0
C  C111  1  0.15099987  0.75109975  0.75443198  1  0.269854  0  -0.129879  -0.257233  0  3.896426  0
C  C112  1  0.28131563  0.78601581  0.65502865  1  0.976026  0  0.234994  0.312675  0  4.064704  0
C  C113  1  0.21837010  0.85892047  0.65149121  1  0.530648  0  0.019101  -0.093467  0  3.90405  0
C  C114  1  0.36775875  0.90314599  0.59231185  1  0.511093  0  0.01969  -0.092063  0  3.918751  0
C  C115  1  0.42940170  0.83002373  0.59615178  1  0.9976  0  0.234769  0.32064  0  4.059519  0
C  C116  1  0.60734442  0.89420498  0.58373990  1  0.269694  0  -0.137957  -0.265681  0  3.899802  0
C  C117  1  0.28486620  0.56655883  0.27593923  1  1.654642  0  0.287931  0.511293  0  4.067665  0
C  C118  1  0.74693876  0.26644133  0.83705024  1  0.961206  0  0.232552  0.300843  0  4.044039  0
C  C119  1  0.77792786  0.36087888  0.86085193  1  0.51715  0  0.045389  -0.046391  0  3.903759  0
C  C120  1  0.67265565  0.42241420  0.99875655  1  0.525621  0  0.048597  -0.038881  0  3.895031  0
C  C121  1  0.64199422  0.32696573  0.97290233  1  0.948552  0  0.23672  0.302625  0  4.030113  0
C  C122  1  0.48433820  0.24556699  0.99666835  1  0.271829  0  -0.12991  -0.257335  0  3.896399  0
C  C123  1  0.61465144  0.34497171  0.13098903  1  0.97001  0  0.235046  0.312837  0  4.064681  0
C  C124  1  0.55170566  0.34850522  0.20742971  1  0.523376  0  0.019062  -0.093556  0  3.904081  0
C  C125  1  0.70109322  0.40768902  0.31083687  1  0.510815  0  0.019659  -0.092083  0  3.918787  0
C  C126  1  0.76273723  0.40384875  0.23387437  1  1.003384  0  0.234737  0.320547  0  4.059419  0
C  C127  1  0.94067890  0.41625963  0.31046575  1  0.276829  0  -0.137979  -0.265735  0  3.89982  0
C  C128  1  0.61819949  0.72406372  0.29062203  1  1.648134  0  0.287946  0.51139  0  4.06763  0
S  S129  1  0.04529961  0.53190352  0.84054461  1  3.253761  0  0.493219  0.990485  0  6.352557  0
S  S130  1  0.71196451  0.30863991  0.46809441  1  3.273616  0  0.493327  0.99079  0  6.351771  0
S  S131  1  0.37862837  0.15945752  0.69136150  1  3.267041  0  0.493347  0.99084  0  6.35188  0
S  S132  1  0.95470400  0.84054505  0.53190444  1  3.253276  0  0.493294  0.990714  0  6.35201  0
S  S133  1  0.28803608  0.46809530  0.30864007  1  3.273497  0  0.493326  0.990685  0  6.35197  0
S  S134  1  0.62136977  0.69136002  0.15945756  1  3.267034  0  0.493288  0.99072  0  6.351977  0
N  N135  1  0.98932154  0.35766747  0.10876570  1  -1.172301  0  -0.28779  -0.329914  0  3.205204  0
N  N136  1  0.92581449  0.49601462  0.05744038  1  -1.238409  0  -0.306281  -0.170465  0  3.546939  0
N  N137  1  0.09131360  0.27526634  0.96237771  1  -1.178561  0  -0.259563  -0.115171  0  3.626096  0
N  N138  1  0.94837280  0.22689595  0.85398079  1  -1.225168  0  -0.316334  -0.400494  0  3.331424  0
N  N139  1  0.06960341  0.08573780  0.70442436  1  -1.246821  0  -0.3153  -0.156066  0  3.640364  0
N  N140  1  0.79618078  0.18627165  0.75539921  1  -1.174541  0  -0.269378  -0.136462  0  3.635259  0
N  N141  1  0.65598806  0.75109937  0.64233350  1  -1.168395  0  -0.287824  -0.329946  0  3.205169  0
N  N142  1  0.59247826  0.56142514  0.50398667  1  -1.237669  0  -0.306243  -0.170487  0  3.546941  0
N  N143  1  0.75798001  0.68711191  0.72473349  1  -1.190587  0  -0.259632  -0.115221  0  3.62611  0
N  N144  1  0.61504048  0.62708493  0.77310359  1  -1.224805  0  -0.316366  -0.400519  0  3.331346  0
N  N145  1  0.73627079  0.61868749  0.91426085  1  -1.226448  0  -0.3153  -0.156015  0  3.64025  0
N  N146  1  0.46284655  0.56912975  0.81372854  1  -1.165932  0  -0.269376  -0.136506  0  3.635206  0
N  N147  1  0.32265592  0.89123522  0.24890367  1  -1.171617  0  -0.287812  -0.329969  0  3.205248  0
N  N148  1  0.25914184  0.94256220  0.43857600  1  -1.244699  0  -0.306243  -0.17043  0  3.546971  0
N  N149  1  0.42464672  0.03762203  0.31288993  1  -1.179953  0  -0.259585  -0.115221  0  3.626118  0
N  N150  1  0.28170580  0.14601841  0.37291496  1  -1.230911  0  -0.316392  -0.400574  0  3.331452  0
N  N151  1  0.40293660  0.29557388  0.38131198  1  -1.23074  0  -0.315297  -0.156062  0  3.640263  0
N  N152  1  0.12951289  0.24459950  0.43087017  1  -1.171077  0  -0.26944  -0.136644  0  3.635314  0
N  N153  1  0.01067916  0.10876446  0.35766596  1  -1.172315  0  -0.28782  -0.329935  0  3.205196  0
N  N154  1  0.07418536  0.05744021  0.49601499  1  -1.238419  0  -0.306274  -0.170405  0  3.546856  0
N  N155  1  0.90868683  0.96237712  0.27526613  1  -1.178576  0  -0.259595  -0.115203  0  3.626275  0
N  N156  1  0.05162687  0.85398124  0.22689812  1  -1.2252  0  -0.316377  -0.400629  0  3.331385  0
N  N157  1  0.93039797  0.70442430  0.08573848  1  -1.246782  0  -0.31527  -0.156045  0  3.640322  0
N  N158  1  0.20382056  0.75540020  0.18627204  1  -1.174517  0  -0.269432  -0.136657  0  3.635241  0
N  N159  1  0.34400908  0.64233128  0.75109693  1  -1.168481  0  -0.287811  -0.330012  0  3.205301  0
N  N160  1  0.40751738  0.50398404  0.56142420  1  -1.237678  0  -0.306317  -0.170451  0  3.546918  0
N  N161  1  0.24201874  0.72473202  0.68711097  1  -1.190637  0  -0.259589  -0.115187  0  3.626126  0
N  N162  1  0.38495827  0.77310166  0.62708278  1  -1.224867  0  -0.316354  -0.400553  0  3.331432  0
N  N163  1  0.26372710  0.91425901  0.61868627  1  -1.22684  0  -0.31535  -0.156126  0  3.640258  0
N  N164  1  0.53715140  0.81372923  0.56913094  1  -1.165871  0  -0.269416  -0.136569  0  3.635354  0
N  N165  1  0.67734454  0.24890371  0.89123409  1  -1.171575  0  -0.287812  -0.329944  0  3.20539  0
N  N166  1  0.74085611  0.43857601  0.94256198  1  -1.24468  0  -0.306201  -0.170342  0  3.546753  0
N  N167  1  0.57535482  0.31288900  0.03762220  1  -1.179958  0  -0.259592  -0.11523  0  3.626223  0
N  N168  1  0.71829326  0.37291696  0.14601945  1  -1.230615  0  -0.316353  -0.40056  0  3.331367  0
N  N169  1  0.59706402  0.38131341  0.29557595  1  -1.230722  0  -0.315294  -0.156059  0  3.640355  0
N  N170  1  0.87048693  0.43087109  0.24460032  1  -1.171072  0  -0.26942  -0.136546  0  3.635132  0
O  O171  1  0.13803890  0.51135218  0.88377668  1  -1.3103  0  -0.327623  -0.541804  0  2.238463  0
O  O172  1  0.94067397  0.51094263  0.87188645  1  -1.334292  0  -0.338211  -0.584618  0  2.435496  0
O  O173  1  0.04670966  0.62246957  0.83796335  1  -1.305789  0  -0.330879  -0.543954  0  2.222889  0
O  O174  1  0.80470478  0.37242845  0.48864318  1  -1.313282  0  -0.327663  -0.541802  0  2.238072  0
O  O175  1  0.60733734  0.36094167  0.48905830  1  -1.335955  0  -0.338241  -0.584566  0  2.43522  0
O  O176  1  0.71337687  0.21549206  0.37753147  1  -1.321155  0  -0.330917  -0.54402  0  2.2228  0
O  O177  1  0.47137025  0.11622251  0.62757075  1  -1.316783  0  -0.327674  -0.541921  0  2.238109  0
O  O178  1  0.27400201  0.12811504  0.63905834  1  -1.337782  0  -0.33823  -0.584667  0  2.43531  0
O  O179  1  0.38004376  0.16203868  0.78450507  1  -1.308601  0  -0.330959  -0.544137  0  2.222847  0
O  O180  1  0.86196227  0.88377727  0.51135034  1  -1.310245  0  -0.327663  -0.541877  0  2.238198  0
O  O181  1  0.05932882  0.87188731  0.51094252  1  -1.333858  0  -0.338233  -0.584701  0  2.435513  0
O  O182  1  0.95329230  0.83796297  0.62246902  1  -1.30579  0  -0.330894  -0.544045  0  2.222803  0
O  O183  1  0.19529578  0.48864540  0.37243000  1  -1.313164  0  -0.327678  -0.541894  0  2.238134  0
O  O184  1  0.39266403  0.48905779  0.36094195  1  -1.335984  0  -0.338255  -0.584662  0  2.435403  0
O  O185  1  0.28662217  0.37753270  0.21549313  1  -1.321122  0  -0.330888  -0.544001  0  2.222822  0
O  O186  1  0.52862954  0.62757175  0.11622274  1  -1.316819  0  -0.327673  -0.541914  0  2.238243  0
O  O187  1  0.72599696  0.63905742  0.12811703  1  -1.337773  0  -0.338232  -0.584664  0  2.43537  0
O  O188  1  0.61995676  0.78450617  0.16203845  1  -1.308578  0  -0.330886  -0.544041  0  2.222737  0
F  F189  1  0.96493813  0.44280737  0.65935084  1  -0.611657  0  -0.093103  -0.172639  0  1.365145  0
F  F190  1  0.14196790  0.43768333  0.66654796  1  -0.614497  0  -0.100973  -0.18488  0  1.336128  0
F  F191  1  0.04208188  0.34348684  0.70108971  1  -0.606632  0  -0.099686  -0.183436  0  1.340745  0
F  F192  1  0.63160167  0.21654455  0.55719119  1  -0.611244  0  -0.093131  -0.172515  0  1.365168  0
F  F193  1  0.80863071  0.22887195  0.56232588  1  -0.61433  0  -0.10095  -0.184663  0  1.336016  0
F  F194  1  0.70873846  0.35760856  0.65651428  1  -0.614005  0  -0.09966  -0.184622  0  1.342437  0
F  F195  1  0.29826836  0.34065038  0.78345807  1  -0.609053  0  -0.09315  -0.172668  0  1.365162  0
F  F196  1  0.47529578  0.33345392  0.77112209  1  -0.613239  0  -0.100995  -0.184806  0  1.336037  0
F  F197  1  0.37540048  0.29890431  0.64239018  1  -0.611964  0  -0.099684  -0.183447  0  1.340736  0
F  F198  1  0.03506637  0.65935037  0.44280644  1  -0.611301  0  -0.09315  -0.172655  0  1.36524  0
F  F199  1  0.85803903  0.66654541  0.43767739  1  -0.614343  0  -0.100948  -0.184816  0  1.336125  0
F  F200  1  0.95792667  0.70109332  0.34348700  1  -0.606669  0  -0.099691  -0.183436  0  1.340771  0
F  F201  1  0.36839891  0.55719219  0.21654408  1  -0.611252  0  -0.093133  -0.172639  0  1.365177  0
F  F202  1  0.19136906  0.56232523  0.22887204  1  -0.614266  0  -0.100952  -0.184807  0  1.336035  0
F  F203  1  0.29126204  0.65651527  0.35760827  1  -0.614017  0  -0.099674  -0.183413  0  1.340792  0
F  F204  1  0.70172968  0.78345709  0.34065261  1  -0.609024  0  -0.093122  -0.17268  0  1.365168  0
F  F205  1  0.52470146  0.77112886  0.33345364  1  -0.613326  0  -0.100949  -0.184824  0  1.336058  0
F  F206  1  0.62459117  0.64239316  0.29890669  1  -0.611902  0  -0.099692  -0.183442  0  1.340788  0
