# generated using pymatgen
data_Ba3Li6H26C36(N7O13)2
_symmetry_space_group_name_H-M   'P 1'
_cell_length_a   9.27901305
_cell_length_b   10.90932411
_cell_length_c   28.58989136
_cell_angle_alpha   89.99985280
_cell_angle_beta   90.00029500
_cell_angle_gamma   90.00013720
_symmetry_Int_Tables_number   1
_chemical_formula_structural   Ba3Li6H26C36(N7O13)2
_chemical_formula_sum   'Ba6 Li12 H52 C72 N28 O52'
_cell_volume   2894.09068236
_cell_formula_units_Z   2
loop_
 _symmetry_equiv_pos_site_id
 _symmetry_equiv_pos_as_xyz
  1  'x, y, z'
loop_
 _atom_site_type_symbol
 _atom_site_label
 _atom_site_symmetry_multiplicity
 _atom_site_fract_x
 _atom_site_fract_y
 _atom_site_fract_z
 _atom_site_occupancy
 _atom_site_pbe_bader_charge
 _atom_site_pbe_bader_spin_density
 _atom_site_pbe_cm5_charge
 _atom_site_pbe_ddec_charge
 _atom_site_pbe_ddec_spin_density
 _atom_site_pbe_ddec_sum_bond_order
 _atom_site_pbe_magmom
Ba  Ba0  1  0.03225394  0.14087985  0.44663369  1  1.685663  0  1.007249  1.428743  0  1.616633  0
Ba  Ba1  1  0.03225472  0.85912197  0.55336652  1  1.685687  0  1.00726  1.428726  0  1.616593  0
Ba  Ba2  1  0.96774649  0.64087736  0.05336691  1  1.685638  0  1.007238  1.428742  0  1.616546  0
Ba  Ba3  1  0.96774564  0.35912087  0.94663312  1  1.685644  0  1.007235  1.428715  0  1.616603  0
Ba  Ba4  1  0.81951209  0.50000079  0.49999989  1  1.679356  0  1.012912  1.429694  0  1.646602  0
Ba  Ba5  1  0.18048902  0.00000202  0.00000050  1  1.679413  0  1.012902  1.4297  0  1.646538  0
Li  Li6  1  0.85155902  0.40800818  0.16182939  1  0.87605  0  0.499267  0.789267  0  0.524851  0
Li  Li7  1  0.85156357  0.59199072  0.83816975  1  0.87606  0  0.499272  0.789242  0  0.52489  0
Li  Li8  1  0.14843570  0.90800852  0.33817130  1  0.876052  0  0.499269  0.789267  0  0.524858  0
Li  Li9  1  0.14843927  0.09199079  0.66182911  1  0.876046  0  0.499259  0.789256  0  0.524878  0
Li  Li10  1  0.94907228  0.41991568  0.38882753  1  0.864635  0  0.537079  0.827032  0  0.5205  0
Li  Li11  1  0.94907643  0.58008251  0.61117212  1  0.864663  0  0.537071  0.827018  0  0.520498  0
Li  Li12  1  0.05092677  0.91991551  0.11117350  1  0.864647  0  0.537077  0.827056  0  0.520463  0
Li  Li13  1  0.05092206  0.08008360  0.88882745  1  0.864644  0  0.537083  0.827039  0  0.520498  0
Li  Li14  1  0.09140108  0.72496012  0.43875585  1  0.859  0  0.528162  0.809064  0  0.518745  0
Li  Li15  1  0.09140141  0.27503907  0.56124482  1  0.859  0  0.528157  0.809081  0  0.518726  0
Li  Li16  1  0.90860067  0.22496241  0.06124502  1  0.858999  0  0.528169  0.809088  0  0.518707  0
Li  Li17  1  0.90859870  0.77503753  0.93875491  1  0.859004  0  0.528166  0.809086  0  0.518716  0
H  H18  1  0.93862205  0.38249481  0.28899085  1  0.493654  0  0.350783  0.268955  0  0.931675  0
H  H19  1  0.93862358  0.61750244  0.71100878  1  0.493619  0  0.350757  0.268908  0  0.93171  0
H  H20  1  0.06137582  0.88249674  0.21100986  1  0.493658  0  0.350777  0.268935  0  0.93171  0
H  H21  1  0.06137718  0.11750239  0.78899145  1  0.493615  0  0.350766  0.268902  0  0.931704  0
H  H22  1  0.42570720  0.13029673  0.42027961  1  0.530149  0  0.332931  0.27286  0  0.974408  0
H  H23  1  0.42571166  0.86970314  0.57972022  1  0.530169  0  0.332977  0.272856  0  0.974376  0
H  H24  1  0.57428997  0.63029601  0.07972066  1  0.530159  0  0.332951  0.272884  0  0.974311  0
H  H25  1  0.57428980  0.36970416  0.92027872  1  0.53016  0  0.332946  0.272892  0  0.974315  0
H  H26  1  0.38462203  0.66526186  0.46409340  1  0.548914  0  0.327031  0.270929  0  0.987782  0
H  H27  1  0.38462214  0.33473518  0.53590706  1  0.548931  0  0.327056  0.270962  0  0.987763  0
H  H28  1  0.61537954  0.16526372  0.03590613  1  0.548915  0  0.327065  0.270957  0  0.987765  0
H  H29  1  0.61537923  0.83473745  0.96409296  1  0.548906  0  0.32707  0.270977  0  0.987795  0
H  H30  1  0.10403892  0.04581606  0.24285443  1  0.116897  0  0.121186  0.133743  0  1.037052  0
H  H31  1  0.10403458  0.95418224  0.75714485  1  0.116931  0  0.121211  0.133749  0  1.037074  0
H  H32  1  0.89596232  0.54581571  0.25714591  1  0.116908  0  0.121192  0.133748  0  1.037054  0
H  H33  1  0.89596281  0.45418328  0.74285365  1  0.116933  0  0.121179  0.133737  0  1.037064  0
H  H34  1  0.51447585  0.51228564  0.42680803  1  0.134562  0  0.120006  0.132803  0  1.05194  0
H  H35  1  0.51447805  0.48771350  0.57319125  1  0.134596  0  0.12001  0.132811  0  1.051979  0
H  H36  1  0.48552530  0.01228607  0.07319270  1  0.134572  0  0.12002  0.132825  0  1.05191  0
H  H37  1  0.48551943  0.98771392  0.92680652  1  0.134524  0  0.120024  0.132803  0  1.051936  0
H  H38  1  0.60807573  0.00028787  0.44306585  1  0.147567  0  0.117059  0.145778  0  1.039669  0
H  H39  1  0.60807912  0.99971054  0.55692658  1  0.147634  0  0.117046  0.145789  0  1.039706  0
H  H40  1  0.39192538  0.50028693  0.05693209  1  0.147596  0  0.117089  0.145825  0  1.039682  0
H  H41  1  0.39192163  0.49971287  0.94306872  1  0.147707  0  0.117099  0.145835  0  1.039646  0
H  H42  1  0.62516693  0.59513584  0.19449240  1  0.056251  0  0.120725  0.032222  0  0.989525  0
H  H43  1  0.62517366  0.40486444  0.80550846  1  0.056249  0  0.120679  0.032199  0  0.98954  0
H  H44  1  0.37483014  0.09513724  0.30551070  1  0.056121  0  0.120716  0.032234  0  0.989528  0
H  H45  1  0.37483329  0.90486528  0.69449219  1  0.056265  0  0.120738  0.032197  0  0.989554  0
H  H46  1  0.43474499  0.69775608  0.20794030  1  0.034306  0  0.110271  0.119829  0  0.990939  0
H  H47  1  0.43474907  0.30223923  0.79206024  1  0.034204  0  0.110266  0.119818  0  0.991069  0
H  H48  1  0.56525344  0.19776070  0.29206095  1  0.034234  0  0.110249  0.119799  0  0.991016  0
H  H49  1  0.56525328  0.80224496  0.70794016  1  0.034306  0  0.110267  0.119845  0  0.990946  0
H  H50  1  0.28880711  0.60930582  0.23077452  1  0.075341  0  0.103689  0.118486  0  0.98529  0
H  H51  1  0.28881215  0.39069468  0.76922613  1  0.075303  0  0.103652  0.118378  0  0.98534  0
H  H52  1  0.71118892  0.10930723  0.26922647  1  0.07531  0  0.103699  0.118471  0  0.985297  0
H  H53  1  0.71119368  0.89069506  0.73077453  1  0.075334  0  0.103683  0.118484  0  0.985297  0
H  H54  1  0.28480090  0.66044118  0.17116916  1  0.084527  0  0.109172  0.128125  0  1.014145  0
H  H55  1  0.28480458  0.33955749  0.82883148  1  0.084543  0  0.109151  0.128053  0  1.014185  0
H  H56  1  0.71519851  0.16044311  0.32883248  1  0.084483  0  0.109139  0.12804  0  1.014211  0
H  H57  1  0.71519679  0.83956285  0.67116853  1  0.084599  0  0.109142  0.128126  0  1.01412  0
H  H58  1  0.40484867  0.33873764  0.15805604  1  0.103805  0  0.114769  0.136578  0  0.98986  0
H  H59  1  0.40485562  0.66125852  0.84194480  1  0.103735  0  0.114763  0.13658  0  0.989834  0
H  H60  1  0.59515124  0.83873977  0.34194472  1  0.103804  0  0.114754  0.136567  0  0.989863  0
H  H61  1  0.59514741  0.16126594  0.65805783  1  0.103741  0  0.114742  0.136558  0  0.989858  0
H  H62  1  0.26394577  0.44348923  0.14225028  1  0.083404  0  0.119805  0.137452  0  0.982068  0
H  H63  1  0.26395269  0.55650573  0.85775172  1  0.083817  0  0.119831  0.137456  0  0.982009  0
H  H64  1  0.73605443  0.94349338  0.35775107  1  0.083346  0  0.119793  0.137422  0  0.982058  0
H  H65  1  0.73605113  0.05651629  0.64225207  1  0.083518  0  0.11983  0.137407  0  0.982103  0
H  H66  1  0.27045115  0.38228635  0.20016799  1  0.038423  0  0.101559  0.110715  0  0.993935  0
H  H67  1  0.27046055  0.61770863  0.79983297  1  0.038396  0  0.101572  0.110728  0  0.994023  0
H  H68  1  0.72954565  0.88229179  0.29983203  1  0.038495  0  0.101533  0.110697  0  0.994009  0
H  H69  1  0.72954452  0.11771695  0.70016970  1  0.038334  0  0.101536  0.110638  0  0.993897  0
C  C70  1  0.04284259  0.18082955  0.33413973  1  1.63374  0  0.226486  0.609191  0  4.269025  0
C  C71  1  0.04285043  0.81916954  0.66586051  1  1.633389  0  0.226425  0.609096  0  4.269198  0
C  C72  1  0.95715579  0.68082995  0.16586119  1  1.633707  0  0.226455  0.609151  0  4.269016  0
C  C73  1  0.95715520  0.31916918  0.83413883  1  1.633741  0  0.226461  0.609044  0  4.269103  0
C  C74  1  0.02775764  0.20476153  0.28333433  1  0.399591  0  0.095309  0.030596  0  3.986814  0
C  C75  1  0.02775976  0.79523661  0.71666553  1  0.399664  0  0.095324  0.030563  0  3.986924  0
C  C76  1  0.97224189  0.70476253  0.21666586  1  0.399591  0  0.095329  0.030567  0  3.986943  0
C  C77  1  0.97224150  0.29523571  0.78333418  1  0.399682  0  0.095357  0.030597  0  3.986918  0
C  C78  1  0.05346255  0.13497735  0.24365008  1  -0.068394  0  -0.092926  -0.239394  0  3.972537  0
C  C79  1  0.05345795  0.86502085  0.75634982  1  -0.068523  0  -0.092926  -0.2394  0  3.97258  0
C  C80  1  0.94653894  0.63497803  0.25635053  1  -0.068282  0  -0.092987  -0.239507  0  3.972642  0
C  C81  1  0.94654027  0.36502107  0.74364947  1  -0.068544  0  -0.092957  -0.239379  0  3.972633  0
C  C82  1  0.00198597  0.20610924  0.20605770  1  0.427244  0  0.093221  0.034707  0  4.030472  0
C  C83  1  0.00197961  0.79388886  0.79394142  1  0.427371  0  0.093257  0.03501  0  4.030137  0
C  C84  1  0.99800925  0.70611160  0.29394179  1  0.427123  0  0.093234  0.034855  0  4.030427  0
C  C85  1  0.99801410  0.29388852  0.70605794  1  0.427338  0  0.093211  0.034645  0  4.030399  0
C  C86  1  0.99177183  0.17428901  0.15534341  1  1.658476  0  0.234797  0.625226  0  4.237575  0
C  C87  1  0.99176205  0.82571293  0.84465491  1  1.658737  0  0.23478  0.625  0  4.237401  0
C  C88  1  0.00822439  0.67428993  0.34465681  1  1.658499  0  0.234798  0.625134  0  4.237636  0
C  C89  1  0.00822852  0.32571000  0.65534372  1  1.658489  0  0.234938  0.62544  0  4.237286  0
C  C90  1  0.19186942  0.47694942  0.44352872  1  1.615637  0  0.246689  0.621724  0  4.215921  0
C  C91  1  0.19187146  0.52305181  0.55647106  1  1.61559  0  0.246676  0.62169  0  4.215831  0
C  C92  1  0.80812980  0.97694750  0.05647121  1  1.615582  0  0.24664  0.621646  0  4.215971  0
C  C93  1  0.80812795  0.02305132  0.94352821  1  1.61582  0  0.246652  0.621633  0  4.21581  0
C  C94  1  0.31478100  0.39552291  0.43213987  1  0.457789  0  0.095384  0.028464  0  4.025211  0
C  C95  1  0.31478560  0.60447674  0.56785942  1  0.45777  0  0.09531  0.028391  0  4.025221  0
C  C96  1  0.68521799  0.89552158  0.06786013  1  0.457786  0  0.095362  0.028471  0  4.025241  0
C  C97  1  0.68521404  0.10447699  0.93213908  1  0.457622  0  0.095369  0.028451  0  4.025143  0
C  C98  1  0.46186991  0.42366323  0.42626063  1  -0.049121  0  -0.092336  -0.238131  0  3.950498  0
C  C99  1  0.46187561  0.57633855  0.57373821  1  -0.049084  0  -0.092287  -0.238126  0  3.950529  0
C  C100  1  0.53812916  0.92366155  0.07373970  1  -0.049092  0  -0.092344  -0.238178  0  3.950446  0
C  C101  1  0.53812503  0.07633671  0.92625857  1  -0.049092  0  -0.092363  -0.238141  0  3.950499  0
C  C102  1  0.52970019  0.31103948  0.41964092  1  0.379647  0  0.0893  0.022766  0  3.984365  0
C  C103  1  0.52970523  0.68896152  0.58035803  1  0.379402  0  0.089304  0.022751  0  3.984343  0
C  C104  1  0.47029856  0.81103854  0.08035952  1  0.37943  0  0.089352  0.022808  0  3.984314  0
C  C105  1  0.47029573  0.18896051  0.91963968  1  0.379419  0  0.089292  0.022705  0  3.984453  0
C  C106  1  0.68607128  0.28235592  0.41698103  1  1.635324  0  0.221822  0.578521  0  4.302298  0
C  C107  1  0.68607645  0.71764448  0.58301888  1  1.635499  0  0.221823  0.578573  0  4.302534  0
C  C108  1  0.31392631  0.78235648  0.08301908  1  1.635498  0  0.221776  0.578488  0  4.302599  0
C  C109  1  0.31392351  0.21764316  0.91698090  1  1.635502  0  0.221894  0.578707  0  4.302452  0
C  C110  1  0.83420883  0.82072384  0.46081247  1  1.557229  0  0.227227  0.589061  0  4.25494  0
C  C111  1  0.83421071  0.17927503  0.53918559  1  1.557013  0  0.227178  0.589  0  4.255052  0
C  C112  1  0.16579210  0.32072293  0.03918866  1  1.557118  0  0.227322  0.589093  0  4.255  0
C  C113  1  0.16579022  0.67927641  0.96081283  1  1.556987  0  0.227217  0.589031  0  4.255115  0
C  C114  1  0.67627066  0.80882469  0.45780499  1  0.427228  0  0.091761  0.031234  0  4.046727  0
C  C115  1  0.67627046  0.19117294  0.54219106  1  0.427411  0  0.091723  0.031244  0  4.046621  0
C  C116  1  0.32373240  0.30882317  0.04219510  1  0.427283  0  0.091718  0.031214  0  4.046752  0
C  C117  1  0.32372942  0.69117833  0.95780560  1  0.427377  0  0.091677  0.03114  0  4.04674  0
C  C118  1  0.57958480  0.90546947  0.44989997  1  0.023155  0  -0.088323  -0.218788  0  3.941931  0
C  C119  1  0.57958338  0.09452705  0.55009452  1  0.023063  0  -0.088354  -0.218858  0  3.942101  0
C  C120  1  0.42041637  0.40546992  0.05009863  1  0.023029  0  -0.088384  -0.218937  0  3.942135  0
C  C121  1  0.42041408  0.59453085  0.94990154  1  0.02272  0  -0.088388  -0.218911  0  3.942078  0
C  C122  1  0.44446479  0.85230929  0.45387296  1  0.333935  0  0.097186  0.035513  0  3.960678  0
C  C123  1  0.44446560  0.14768879  0.54612375  1  0.333705  0  0.097187  0.035487  0  3.960629  0
C  C124  1  0.55553732  0.35231096  0.04612499  1  0.333884  0  0.097185  0.035492  0  3.960671  0
C  C125  1  0.55553523  0.64769009  0.95387506  1  0.333954  0  0.097204  0.035535  0  3.960692  0
C  C126  1  0.30008743  0.90935301  0.45216067  1  1.648783  0  0.237995  0.600313  0  4.267602  0
C  C127  1  0.30008704  0.09064844  0.54783894  1  1.649129  0  0.238029  0.600361  0  4.267301  0
C  C128  1  0.69991591  0.40935222  0.04783897  1  1.649115  0  0.238001  0.600336  0  4.267448  0
C  C129  1  0.69991256  0.59064730  0.95216131  1  1.648762  0  0.237994  0.600342  0  4.267443  0
C  C130  1  0.57227964  0.50794710  0.18434161  1  1.346007  0  0.180893  0.316574  0  4.145593  0
C  C131  1  0.57228678  0.49205490  0.81565881  1  1.346099  0  0.180942  0.316559  0  4.14567  0
C  C132  1  0.42771611  0.00794395  0.31565948  1  1.346171  0  0.180868  0.316474  0  4.145787  0
C  C133  1  0.42771826  0.99205592  0.68434245  1  1.346135  0  0.18089  0.316653  0  4.145595  0
C  C134  1  0.35472446  0.62713570  0.19947189  1  0.262355  0  -0.129515  -0.280627  0  3.919608  0
C  C135  1  0.35472995  0.37286128  0.80052851  1  0.262486  0  -0.129429  -0.280431  0  3.919675  0
C  C136  1  0.64527270  0.12713951  0.30052943  1  0.262483  0  -0.129444  -0.280477  0  3.919607  0
C  C137  1  0.64527476  0.87286539  0.69947216  1  0.262331  0  -0.129502  -0.280689  0  3.919631  0
C  C138  1  0.33640301  0.41366243  0.17046767  1  0.261308  0  -0.126266  -0.266871  0  3.873857  0
C  C139  1  0.33640849  0.58633360  0.82953375  1  0.261091  0  -0.126303  -0.266903  0  3.873863  0
C  C140  1  0.66359711  0.91366387  0.32953336  1  0.261293  0  -0.126219  -0.266833  0  3.873898  0
C  C141  1  0.66359326  0.08634107  0.67046931  1  0.261351  0  -0.126236  -0.266718  0  3.873702  0
N  N142  1  0.96676379  0.31107252  0.26793487  1  -0.790284  0  -0.256311  -0.071731  0  3.744098  0
N  N143  1  0.96676477  0.68892662  0.73206411  1  -0.790267  0  -0.256324  -0.071731  0  3.74419  0
N  N144  1  0.03323497  0.81107241  0.23206522  1  -0.79029  0  -0.256297  -0.071689  0  3.744159  0
N  N145  1  0.03323726  0.18892666  0.76793570  1  -0.790348  0  -0.256301  -0.071665  0  3.74412  0
N  N146  1  0.94928096  0.31445966  0.22151740  1  -0.67715  0  -0.256373  -0.27358  0  3.263515  0
N  N147  1  0.94927836  0.68553852  0.77848155  1  -0.677278  0  -0.256328  -0.273596  0  3.263315  0
N  N148  1  0.05071565  0.81446112  0.27848304  1  -0.677193  0  -0.25636  -0.273583  0  3.263494  0
N  N149  1  0.05071828  0.18553799  0.72151791  1  -0.677167  0  -0.256348  -0.273529  0  3.263316  0
N  N150  1  0.29356841  0.27355201  0.42850716  1  -0.663282  0  -0.254965  -0.209365  0  3.286626  0
N  N151  1  0.29357234  0.72644759  0.57149174  1  -0.66335  0  -0.254883  -0.209328  0  3.286446  0
N  N152  1  0.70643024  0.77355069  0.07149261  1  -0.66339  0  -0.254992  -0.209474  0  3.286678  0
N  N153  1  0.70642764  0.22644792  0.92850628  1  -0.663284  0  -0.254911  -0.209394  0  3.286562  0
N  N154  1  0.42311223  0.22494054  0.42100954  1  -0.818806  0  -0.253323  -0.072874  0  3.705853  0
N  N155  1  0.42311642  0.77506025  0.57898888  1  -0.818697  0  -0.25345  -0.072811  0  3.705644  0
N  N156  1  0.57688628  0.72493891  0.07898993  1  -0.818713  0  -0.253343  -0.07277  0  3.705698  0
N  N157  1  0.57688370  0.27506036  0.92100909  1  -0.818729  0  -0.253375  -0.072818  0  3.705635  0
N  N158  1  0.60598184  0.70155030  0.46560004  1  -0.671053  0  -0.232334  -0.254557  0  3.225524  0
N  N159  1  0.60598075  0.29844902  0.53439798  1  -0.671158  0  -0.23235  -0.254586  0  3.225404  0
N  N160  1  0.39402199  0.20155081  0.03439910  1  -0.67102  0  -0.232307  -0.254524  0  3.225462  0
N  N161  1  0.39402052  0.79845083  0.96560032  1  -0.671153  0  -0.232273  -0.254473  0  3.225446  0
N  N162  1  0.46594866  0.73107629  0.46344845  1  -0.806148  0  -0.248012  -0.071276  0  3.691159  0
N  N163  1  0.46594859  0.26892275  0.53655039  1  -0.80623  0  -0.247954  -0.071181  0  3.691038  0
N  N164  1  0.53405418  0.23107798  0.03654996  1  -0.806131  0  -0.248002  -0.071194  0  3.691068  0
N  N165  1  0.53405367  0.76892394  0.96344899  1  -0.806125  0  -0.248017  -0.071289  0  3.691105  0
N  N166  1  0.42772117  0.51566512  0.18462830  1  -1.140978  0  -0.279181  0.026375  0  3.707646  0
N  N167  1  0.42772613  0.48433109  0.81537293  1  -1.141061  0  -0.27923  0.026406  0  3.707504  0
N  N168  1  0.57227783  0.01566777  0.31537278  1  -1.140913  0  -0.27919  0.026428  0  3.707544  0
N  N169  1  0.57227673  0.98433790  0.68462939  1  -1.141088  0  -0.279134  0.026426  0  3.707537  0
O  O170  1  0.07963310  0.07473681  0.34783626  1  -1.221162  0  -0.389633  -0.653204  0  2.167703  0
O  O171  1  0.07963887  0.92526144  0.65216299  1  -1.221216  0  -0.389589  -0.653157  0  2.16776  0
O  O172  1  0.92036391  0.57473722  0.15216476  1  -1.221134  0  -0.389595  -0.65315  0  2.167663  0
O  O173  1  0.92036491  0.42526091  0.84783554  1  -1.221141  0  -0.389618  -0.653131  0  2.167699  0
O  O174  1  0.01234400  0.27007144  0.36094214  1  -1.23343  0  -0.417677  -0.695807  0  2.268168  0
O  O175  1  0.01235008  0.72992942  0.63905770  1  -1.233026  0  -0.417657  -0.695734  0  2.268138  0
O  O176  1  0.98765464  0.77006933  0.13905799  1  -1.233369  0  -0.417668  -0.69578  0  2.26811  0
O  O177  1  0.98765206  0.22992894  0.86094242  1  -1.23339  0  -0.417676  -0.695728  0  2.268149  0
O  O178  1  0.03759360  0.06991773  0.14337550  1  -1.235629  0  -0.388375  -0.664397  0  2.118827  0
O  O179  1  0.03758538  0.93008410  0.85662368  1  -1.235564  0  -0.38839  -0.664351  0  2.118713  0
O  O180  1  0.96240124  0.56991960  0.35662482  1  -1.235629  0  -0.388366  -0.664348  0  2.118884  0
O  O181  1  0.96240763  0.43008045  0.64337520  1  -1.235603  0  -0.38847  -0.664508  0  2.118725  0
O  O182  1  0.93521507  0.25558005  0.12877239  1  -1.240153  0  -0.406585  -0.688392  0  2.118264  0
O  O183  1  0.93521195  0.74441994  0.87122618  1  -1.240442  0  -0.40661  -0.688382  0  2.118175  0
O  O184  1  0.06478137  0.75558091  0.37122740  1  -1.240145  0  -0.406571  -0.688375  0  2.118289  0
O  O185  1  0.06478485  0.24441914  0.62877287  1  -1.240181  0  -0.406608  -0.688465  0  2.118192  0
O  O186  1  0.06582903  0.42935055  0.44610787  1  -1.244139  0  -0.400477  -0.71589  0  2.278254  0
O  O187  1  0.06583009  0.57064859  0.55389065  1  -1.244108  0  -0.400476  -0.715894  0  2.27824  0
O  O188  1  0.93417005  0.92935074  0.05389245  1  -1.244125  0  -0.400458  -0.715887  0  2.278315  0
O  O189  1  0.93416838  0.07065200  0.94610787  1  -1.244158  0  -0.400501  -0.715894  0  2.278189  0
O  O190  1  0.21909667  0.58943027  0.45027268  1  -1.222535  0  -0.361646  -0.627514  0  2.231834  0
O  O191  1  0.21909936  0.41057193  0.54972855  1  -1.22217  0  -0.361625  -0.627484  0  2.231784  0
O  O192  1  0.78090146  0.08942780  0.04972937  1  -1.222474  0  -0.361593  -0.627457  0  2.231758  0
O  O193  1  0.78090114  0.91057096  0.95027104  1  -1.22219  0  -0.361579  -0.627433  0  2.231857  0
O  O194  1  0.72696770  0.17234182  0.41505597  1  -1.193589  0  -0.32129  -0.574889  0  2.145192  0
O  O195  1  0.72697429  0.82765774  0.58494576  1  -1.19366  0  -0.321306  -0.574964  0  2.145215  0
O  O196  1  0.27302742  0.67234504  0.08494566  1  -1.193588  0  -0.321295  -0.574885  0  2.145284  0
O  O197  1  0.27302814  0.32765727  0.91505426  1  -1.193607  0  -0.321342  -0.574982  0  2.145199  0
O  O198  1  0.76971718  0.37655982  0.41873447  1  -1.260583  0  -0.446547  -0.723099  0  2.253782  0
O  O199  1  0.76971774  0.62343800  0.58126593  1  -1.260588  0  -0.446514  -0.723063  0  2.253803  0
O  O200  1  0.23028499  0.87656481  0.08126695  1  -1.260598  0  -0.446494  -0.723083  0  2.253819  0
O  O201  1  0.23027980  0.12343742  0.91873360  1  -1.260665  0  -0.446546  -0.723153  0  2.253792  0
O  O202  1  0.90836755  0.72552274  0.47317569  1  -1.252031  0  -0.456809  -0.729858  0  2.281681  0
O  O203  1  0.90836841  0.27447720  0.52682424  1  -1.25207  0  -0.456819  -0.729876  0  2.281766  0
O  O204  1  0.09163204  0.22552452  0.02682448  1  -1.251898  0  -0.456841  -0.72987  0  2.281632  0
O  O205  1  0.09163386  0.77447743  0.97317548  1  -1.252035  0  -0.456824  -0.729856  0  2.281745  0
O  O206  1  0.88887314  0.92456445  0.45346056  1  -1.208363  0  -0.348073  -0.609149  0  2.241426  0
O  O207  1  0.88887592  0.07543545  0.54653723  1  -1.208475  0  -0.348  -0.609076  0  2.241551  0
O  O208  1  0.11113024  0.42456155  0.04654326  1  -1.208292  0  -0.348104  -0.609164  0  2.241505  0
O  O209  1  0.11112472  0.57543585  0.95346199  1  -1.208462  0  -0.348017  -0.609098  0  2.24153  0
O  O210  1  0.19556561  0.85234197  0.47121210  1  -1.248286  0  -0.421293  -0.709643  0  2.307516  0
O  O211  1  0.19556292  0.14765926  0.52878804  1  -1.248315  0  -0.421303  -0.709686  0  2.307458  0
O  O212  1  0.80443865  0.35234152  0.02878760  1  -1.248349  0  -0.421301  -0.709693  0  2.307474  0
O  O213  1  0.80443684  0.64765820  0.97121216  1  -1.248299  0  -0.421281  -0.709673  0  2.307478  0
O  O214  1  0.28986725  0.01276223  0.43237858  1  -1.2017  0  -0.330056  -0.591685  0  2.257482  0
O  O215  1  0.28986862  0.98723920  0.56762206  1  -1.201647  0  -0.330087  -0.591701  0  2.257343  0
O  O216  1  0.71013390  0.51276003  0.06762214  1  -1.201669  0  -0.330063  -0.591667  0  2.257372  0
O  O217  1  0.71013102  0.48723858  0.93237850  1  -1.20166  0  -0.330074  -0.59169  0  2.257378  0
O  O218  1  0.64401335  0.41507711  0.17398840  1  -1.193535  0  -0.366988  -0.547024  0  2.230508  0
O  O219  1  0.64401768  0.58492137  0.82601178  1  -1.193651  0  -0.366968  -0.547004  0  2.230705  0
O  O220  1  0.35598678  0.91507887  0.32601263  1  -1.193606  0  -0.366958  -0.546983  0  2.230713  0
O  O221  1  0.35598406  0.08492544  0.67398953  1  -1.193607  0  -0.367012  -0.547089  0  2.230527  0
