# generated using pymatgen
data_ZnH16C25NO6
_symmetry_space_group_name_H-M   'P 1'
_cell_length_a   13.35823041
_cell_length_b   13.39299588
_cell_length_c   16.49172188
_cell_angle_alpha   90.00031326
_cell_angle_beta   90.00028720
_cell_angle_gamma   116.62361623
_symmetry_Int_Tables_number   1
_chemical_formula_structural   ZnH16C25NO6
_chemical_formula_sum   'Zn4 H64 C100 N4 O24'
_cell_volume   2637.63938844
_cell_formula_units_Z   4
loop_
 _symmetry_equiv_pos_site_id
 _symmetry_equiv_pos_as_xyz
  1  'x, y, z'
loop_
 _atom_site_type_symbol
 _atom_site_label
 _atom_site_symmetry_multiplicity
 _atom_site_fract_x
 _atom_site_fract_y
 _atom_site_fract_z
 _atom_site_occupancy
 _atom_site_pbe_bader_charge
 _atom_site_pbe_bader_spin_density
 _atom_site_pbe_cm5_charge
 _atom_site_pbe_ddec_charge
 _atom_site_pbe_ddec_spin_density
 _atom_site_pbe_ddec_sum_bond_order
 _atom_site_pbe_magmom
Zn  Zn0  1  0.08969927  0.11104930  0.50197288  1  1.294665  0  0.670393  0.826585  0  2.402603  0
Zn  Zn1  1  0.91030144  0.38895022  0.00197218  1  1.294695  0  0.67042  0.826673  0  2.402498  0
Zn  Zn2  1  0.91030427  0.88894447  0.49802519  1  1.294817  0  0.670411  0.826706  0  2.402453  0
Zn  Zn3  1  0.08969632  0.61105705  0.99802832  1  1.294741  0  0.670405  0.826667  0  2.402497  0
H  H4  1  0.32798248  0.16430577  0.51631340  1  0.130478  0  0.127201  0.106583  0  0.974964  0
H  H5  1  0.51364133  0.32988867  0.51721944  1  0.067695  0  0.109317  0.10953  0  1.02069  0
H  H6  1  0.34086621  0.53272060  0.47771791  1  0.063886  0  0.113297  0.114401  0  1.001587  0
H  H7  1  0.16355778  0.35809851  0.47723814  1  0.118871  0  0.133778  0.110451  0  0.952856  0
H  H8  1  0.93516311  0.28366910  0.35014607  1  0.082144  0  0.102794  0.108557  0  1.002846  0
H  H9  1  0.84236879  0.33128277  0.23436002  1  0.046215  0  0.103022  0.106269  0  0.996411  0
H  H10  1  0.70076393  0.17975434  0.15038150  1  0.079972  0  0.100168  0.109488  0  1.035297  0
H  H11  1  0.74552627  0.93515100  0.29547364  1  0.06613  0  0.102656  0.119571  0  1.043681  0
H  H12  1  0.50937262  0.89511738  0.29245399  1  0.094918  0  0.10971  0.123702  0  1.004282  0
H  H13  1  0.41410638  0.69474678  0.33806654  1  0.062654  0  0.10763  0.120077  0  0.986439  0
H  H14  1  0.56512233  0.60302097  0.14004972  1  0.060156  0  0.110911  0.125126  0  0.981207  0
H  H15  1  0.66055115  0.80338207  0.09474641  1  0.075447  0  0.108398  0.120951  0  0.984242  0
H  H16  1  0.33746370  0.33173238  0.32724863  1  0.057473  0  0.100044  0.113499  0  1.018804  0
H  H17  1  0.14306021  0.19105927  0.29415738  1  0.084241  0  0.101638  0.11301  0  1.003496  0
H  H18  1  0.02918880  0.23987409  0.19457276  1  0.102192  0  0.100723  0.110343  0  1.021658  0
H  H19  1  0.29979058  0.56966662  0.16962879  1  0.074479  0  0.100961  0.120412  0  1.037355  0
H  H20  1  0.67202281  0.33569051  0.01631029  1  0.130602  0  0.127204  0.106604  0  0.97504  0
H  H21  1  0.48636397  0.17010762  0.01721727  1  0.068043  0  0.109339  0.109533  0  1.020747  0
H  H22  1  0.65913818  0.96727643  0.97771643  1  0.064202  0  0.113293  0.114377  0  1.001446  0
H  H23  1  0.83644718  0.14189744  0.97723653  1  0.118484  0  0.133767  0.110461  0  0.952752  0
H  H24  1  0.06484386  0.21633454  0.85015138  1  0.082205  0  0.102797  0.10858  0  1.002833  0
H  H25  1  0.15763688  0.16872284  0.73436367  1  0.046292  0  0.103008  0.106251  0  0.996473  0
H  H26  1  0.29923779  0.32025031  0.65038580  1  0.079756  0  0.100165  0.109468  0  1.035342  0
H  H27  1  0.25447799  0.56485308  0.79548087  1  0.066016  0  0.10266  0.119582  0  1.04367  0
H  H28  1  0.49062678  0.60488756  0.79245264  1  0.094621  0  0.109742  0.123811  0  1.004269  0
H  H29  1  0.58589391  0.80525786  0.83806707  1  0.062635  0  0.107604  0.120018  0  0.986495  0
H  H30  1  0.43487834  0.89698548  0.64005126  1  0.060139  0  0.110877  0.125149  0  0.981191  0
H  H31  1  0.33944040  0.69662143  0.59474971  1  0.075421  0  0.108392  0.120881  0  0.984335  0
H  H32  1  0.66253700  0.16826769  0.82724887  1  0.057474  0  0.100034  0.113481  0  1.018795  0
H  H33  1  0.85694162  0.30894207  0.79415782  1  0.084052  0  0.101621  0.112982  0  1.003465  0
H  H34  1  0.97080588  0.26012279  0.69456919  1  0.102125  0  0.1007  0.110307  0  1.021775  0
H  H35  1  0.70020510  0.93033185  0.66962853  1  0.074451  0  0.100949  0.120436  0  1.03749  0
H  H36  1  0.67202250  0.83568462  0.48368710  1  0.130718  0  0.127205  0.106642  0  0.975128  0
H  H37  1  0.48636365  0.67010172  0.48277438  1  0.068194  0  0.109349  0.109502  0  1.020812  0
H  H38  1  0.65913919  0.46727399  0.52228865  1  0.064271  0  0.11329  0.114356  0  1.001478  0
H  H39  1  0.83644650  0.64189525  0.52277085  1  0.118501  0  0.13376  0.110455  0  0.952809  0
H  H40  1  0.06484460  0.71633050  0.64985321  1  0.08217  0  0.102814  0.108545  0  1.002899  0
H  H41  1  0.15764383  0.66872264  0.76564108  1  0.045965  0  0.103033  0.106291  0  0.996554  0
H  H42  1  0.29924466  0.82025532  0.84961960  1  0.079656  0  0.100168  0.109485  0  1.03524  0
H  H43  1  0.25447624  0.06485034  0.70452260  1  0.066114  0  0.10264  0.119535  0  1.043697  0
H  H44  1  0.49063366  0.10488727  0.70755257  1  0.094529  0  0.109756  0.123817  0  1.004193  0
H  H45  1  0.58589016  0.30525296  0.66192971  1  0.062684  0  0.107631  0.120034  0  0.986491  0
H  H46  1  0.43487917  0.39698794  0.85994714  1  0.06012  0  0.110877  0.125131  0  0.981204  0
H  H47  1  0.33945559  0.19662846  0.90525651  1  0.075492  0  0.108413  0.120917  0  0.984344  0
H  H48  1  0.66252808  0.66827328  0.67274580  1  0.057344  0  0.100017  0.113403  0  1.018989  0
H  H49  1  0.85693782  0.80894044  0.70583462  1  0.084177  0  0.101651  0.113063  0  1.003537  0
H  H50  1  0.97080055  0.76011649  0.80542167  1  0.102192  0  0.100715  0.110373  0  1.02175  0
H  H51  1  0.70018660  0.43033334  0.83036806  1  0.074462  0  0.100919  0.120408  0  1.037488  0
H  H52  1  0.32797939  0.66431503  0.98368172  1  0.130561  0  0.127204  0.10665  0  0.975102  0
H  H53  1  0.51363895  0.82989623  0.98277534  1  0.067911  0  0.109324  0.109516  0  1.02077  0
H  H54  1  0.34086134  0.03272326  0.02228831  1  0.064185  0  0.113305  0.114395  0  1.001508  0
H  H55  1  0.16355606  0.85810221  0.02276881  1  0.118574  0  0.133757  0.110491  0  0.952768  0
H  H56  1  0.93515500  0.78367188  0.14985882  1  0.082088  0  0.102825  0.108608  0  1.002864  0
H  H57  1  0.84236194  0.83128022  0.26564895  1  0.04596  0  0.10301  0.106285  0  0.996506  0
H  H58  1  0.70075911  0.67974857  0.34962500  1  0.079819  0  0.100175  0.109463  0  1.035287  0
H  H59  1  0.74552608  0.43515328  0.20452690  1  0.066182  0  0.102681  0.119609  0  1.043677  0
H  H60  1  0.50936942  0.39511470  0.20755088  1  0.0945  0  0.10973  0.123799  0  1.004223  0
H  H61  1  0.41410380  0.19474605  0.16193100  1  0.062619  0  0.107614  0.120027  0  0.98642  0
H  H62  1  0.56512418  0.10301586  0.35994620  1  0.060045  0  0.110881  0.125102  0  0.981131  0
H  H63  1  0.66055055  0.30337753  0.40525442  1  0.075449  0  0.108407  0.120993  0  0.984232  0
H  H64  1  0.33746464  0.83172358  0.17274738  1  0.057411  0  0.100036  0.113451  0  1.018911  0
H  H65  1  0.14306304  0.69105252  0.20583964  1  0.084126  0  0.101632  0.113046  0  1.003602  0
H  H66  1  0.02919434  0.73987354  0.30542282  1  0.102167  0  0.100676  0.110284  0  1.021723  0
H  H67  1  0.29979958  0.06966443  0.33036651  1  0.074459  0  0.10092  0.120337  0  1.037478  0
C  C68  1  0.33578632  0.24818930  0.50763470  1  0.458032  0  0.057974  0.098435  0  3.922376  0
C  C69  1  0.43912229  0.34192554  0.50842157  1  -0.017472  0  -0.074426  -0.166298  0  3.941048  0
C  C70  1  0.44573922  0.44893756  0.49865814  1  0.038846  0  0.024451  0.115119  0  3.933784  0
C  C71  1  0.34398343  0.45375353  0.48649487  1  0.061261  0  -0.068326  -0.150461  0  3.936337  0
C  C72  1  0.24363870  0.35646510  0.48637803  1  0.471135  0  0.065494  0.104057  0  3.919576  0
C  C73  1  0.90139310  0.07472962  0.39594791  1  1.582666  0  0.214033  0.591395  0  4.168793  0
C  C74  1  0.84446837  0.10651514  0.32955091  1  -0.050579  0  -0.021218  -0.011116  0  3.997075  0
C  C75  1  0.87229386  0.21846079  0.31303081  1  -0.071219  0  -0.09395  -0.125148  0  3.996711  0
C  C76  1  0.82062325  0.24447001  0.24847171  1  0.023333  0  -0.086425  -0.049843  0  4.013178  0
C  C77  1  0.74220430  0.16023796  0.20025262  1  -0.017603  0  -0.100354  -0.181643  0  3.969805  0
C  C78  1  0.71563400  0.04889528  0.21679456  1  0.393337  0  0.078473  0.253914  0  4.058459  0
C  C79  1  0.76555807  0.02144082  0.28157377  1  0.056852  0  -0.108725  -0.244007  0  3.994251  0
C  C80  1  0.58959698  0.85925200  0.19122692  1  0.4116  0  0.077076  0.240845  0  4.058245  0
C  C81  1  0.52107125  0.83046331  0.25990845  1  0.021487  0  -0.094098  -0.170468  0  4.005332  0
C  C82  1  0.46865510  0.71961241  0.28509043  1  -0.042554  0  -0.095088  -0.172208  0  4.004669  0
C  C83  1  0.48503463  0.63874531  0.24160058  1  0.413717  0  0.07466  0.236145  0  4.069851  0
C  C84  1  0.55158331  0.66699430  0.17220596  1  0.04554  0  -0.092925  -0.168037  0  4.008765  0
C  C85  1  0.60458840  0.77826556  0.14699306  1  -0.019899  0  -0.098246  -0.181821  0  4.017766  0
C  C86  1  0.33018634  0.45804324  0.25034425  1  0.379763  0  0.0726  0.243855  0  4.077281  0
C  C87  1  0.28590133  0.35167216  0.28546397  1  0.004708  0  -0.10697  -0.199464  0  4.008045  0
C  C88  1  0.17756647  0.27322295  0.26570579  1  -0.072873  0  -0.092282  -0.060516  0  4.013599  0
C  C89  1  0.11371938  0.30027992  0.21089155  1  -0.076724  0  -0.096237  -0.121003  0  3.984162  0
C  C90  1  0.15815230  0.40731097  0.17688815  1  0.022292  0  -0.022201  -0.009416  0  3.988268  0
C  C91  1  0.26685558  0.48702466  0.19688586  1  0.020416  0  -0.112602  -0.243773  0  3.992517  0
C  C92  1  0.09172881  0.43832492  0.11740734  1  1.573289  0  0.212783  0.589687  0  4.164712  0
C  C93  1  0.66421820  0.25181193  0.00763300  1  0.458085  0  0.05796  0.098391  0  3.922147  0
C  C94  1  0.56088255  0.15807149  0.00842025  1  -0.017645  0  -0.074366  -0.166224  0  3.940882  0
C  C95  1  0.55426520  0.05105529  0.99865741  1  0.038582  0  0.024408  0.115055  0  3.933925  0
C  C96  1  0.65601749  0.04623838  0.98649514  1  0.061018  0  -0.068284  -0.150322  0  3.936048  0
C  C97  1  0.75636599  0.14353012  0.98637732  1  0.471536  0  0.065473  0.103957  0  3.919187  0
C  C98  1  0.09861510  0.42527119  0.89595065  1  1.582357  0  0.213897  0.591273  0  4.169111  0
C  C99  1  0.15554023  0.39348907  0.82955738  1  -0.050634  0  -0.021248  -0.011227  0  3.997311  0
C  C100  1  0.12771528  0.28154153  0.81303606  1  -0.070818  0  -0.093919  -0.125091  0  3.996795  0
C  C101  1  0.17938405  0.25553408  0.74847341  1  0.023322  0  -0.086415  -0.049926  0  4.013424  0
C  C102  1  0.25779945  0.33976391  0.70025927  1  -0.017671  0  -0.100366  -0.18153  0  3.96995  0
C  C103  1  0.28436698  0.45110851  0.71679938  1  0.393658  0  0.07849  0.253924  0  4.058574  0
C  C104  1  0.23444699  0.47856285  0.78158275  1  0.056449  0  -0.108738  -0.243999  0  3.994288  0
C  C105  1  0.41039455  0.64075182  0.69122844  1  0.411338  0  0.077035  0.240897  0  4.058264  0
C  C106  1  0.47892662  0.66953874  0.75990613  1  0.022053  0  -0.094149  -0.170665  0  4.005357  0
C  C107  1  0.53134269  0.78038910  0.78509245  1  -0.043019  0  -0.095027  -0.172048  0  4.004654  0
C  C108  1  0.51496493  0.86125902  0.74160351  1  0.414288  0  0.074685  0.236054  0  4.070149  0
C  C109  1  0.44841624  0.83301255  0.67221031  1  0.045337  0  -0.092947  -0.168073  0  4.008578  0
C  C110  1  0.39540559  0.72173769  0.64699488  1  -0.019743  0  -0.098174  -0.181695  0  4.017747  0
C  C111  1  0.66981126  0.04195763  0.75034153  1  0.379339  0  0.072552  0.243698  0  4.077441  0
C  C112  1  0.71409929  0.14832993  0.78546372  1  0.004625  0  -0.106887  -0.199244  0  4.007929  0
C  C113  1  0.82243203  0.22677641  0.76570329  1  -0.072579  0  -0.092355  -0.060644  0  4.013775  0
C  C114  1  0.88627815  0.19972132  0.71088980  1  -0.076649  0  -0.09615  -0.120881  0  3.984212  0
C  C115  1  0.84184481  0.09268818  0.67688514  1  0.022339  0  -0.022261  -0.009489  0  3.988221  0
C  C116  1  0.73313987  0.01297223  0.69688326  1  0.020808  0  -0.112541  -0.243752  0  3.992685  0
C  C117  1  0.90826953  0.06167770  0.61740627  1  1.573318  0  0.212673  0.589667  0  4.164748  0
C  C118  1  0.66422024  0.75180779  0.49236701  1  0.457967  0  0.057928  0.098231  0  3.922441  0
C  C119  1  0.56088454  0.65806399  0.49157710  1  -0.017712  0  -0.074298  -0.166083  0  3.940962  0
C  C120  1  0.55426757  0.55104861  0.50134357  1  0.001194  0  0.024388  0.115087  0  3.934034  0
C  C121  1  0.65601858  0.54623690  0.51350805  1  0.060859  0  -0.068293  -0.150326  0  3.936275  0
C  C122  1  0.75636480  0.64352531  0.51362974  1  0.47146  0  0.065456  0.104017  0  3.919192  0
C  C123  1  0.09861155  0.92526330  0.60405016  1  1.582772  0  0.214047  0.59146  0  4.168656  0
C  C124  1  0.15553785  0.89348448  0.67044715  1  -0.050599  0  -0.021206  -0.011142  0  3.996895  0
C  C125  1  0.12771606  0.78153710  0.68696847  1  -0.070808  0  -0.093983  -0.125002  0  3.996653  0
C  C126  1  0.17938560  0.75553209  0.75153000  1  0.023436  0  -0.08644  -0.050097  0  4.013559  0
C  C127  1  0.25780458  0.83976582  0.79974544  1  -0.017389  0  -0.100358  -0.181474  0  3.969647  0
C  C128  1  0.28437116  0.95110855  0.78320290  1  0.393346  0  0.078457  0.253819  0  4.058343  0
C  C129  1  0.23444891  0.97856046  0.71842187  1  0.056495  0  -0.108751  -0.243972  0  3.994197  0
C  C130  1  0.41040263  0.14075442  0.80877357  1  0.411541  0  0.077092  0.240767  0  4.05845  0
C  C131  1  0.47892756  0.16953975  0.74009326  1  0.022119  0  -0.094149  -0.170588  0  4.005412  0
C  C132  1  0.53133885  0.28038819  0.71490764  1  -0.042857  0  -0.095102  -0.172115  0  4.004782  0
C  C133  1  0.51495864  0.36126034  0.75839142  1  0.414547  0  0.074717  0.236026  0  4.070164  0
C  C134  1  0.44841968  0.33301459  0.82779150  1  0.044781  0  -0.092991  -0.16812  0  4.0089  0
C  C135  1  0.39541386  0.22174502  0.85300561  1  -0.019941  0  -0.098299  -0.181772  0  4.017937  0
C  C136  1  0.66980126  0.54195660  0.74965018  1  0.379428  0  0.072604  0.243842  0  4.077095  0
C  C137  1  0.71409226  0.64832929  0.71452864  1  0.00464  0  -0.1068  -0.199063  0  4.008004  0
C  C138  1  0.82242635  0.72677683  0.73428743  1  -0.072375  0  -0.092355  -0.060841  0  4.013602  0
C  C139  1  0.88627154  0.69971736  0.78910348  1  -0.076967  0  -0.096315  -0.121129  0  3.984074  0
C  C140  1  0.84183416  0.59268636  0.82311173  1  0.022477  0  -0.022358  -0.009454  0  3.988373  0
C  C141  1  0.73313166  0.51297602  0.80311403  1  0.020419  0  -0.112514  -0.243796  0  3.992575  0
C  C142  1  0.90826446  0.56168073  0.88259619  1  1.5732  0  0.212785  0.589785  0  4.164971  0
C  C143  1  0.33578098  0.74819029  0.99236325  1  0.458032  0  0.057967  0.098258  0  3.922367  0
C  C144  1  0.43911739  0.84193240  0.99157296  1  -0.017514  0  -0.074277  -0.166089  0  3.940783  0
C  C145  1  0.44573851  0.94895191  0.00134065  1  0.001187  0  0.024394  0.115072  0  3.933881  0
C  C146  1  0.34398392  0.95376381  0.01350353  1  0.061055  0  -0.068298  -0.150319  0  3.936104  0
C  C147  1  0.24363766  0.85647204  0.01362560  1  0.471462  0  0.065471  0.103911  0  3.919264  0
C  C148  1  0.90138600  0.57473520  0.10405591  1  1.582716  0  0.214012  0.591417  0  4.16855  0
C  C149  1  0.84446159  0.60651564  0.17045160  1  -0.050613  0  -0.021268  -0.011032  0  3.996882  0
C  C150  1  0.87228318  0.71846238  0.18697413  1  -0.070844  0  -0.093993  -0.125216  0  3.996682  0
C  C151  1  0.82061441  0.74446983  0.25153618  1  0.023005  0  -0.086426  -0.049961  0  4.013405  0
C  C152  1  0.74219597  0.66023500  0.29974911  1  -0.017168  0  -0.100321  -0.181511  0  3.969898  0
C  C153  1  0.71562886  0.54889459  0.28320536  1  0.393347  0  0.078471  0.253868  0  4.058312  0
C  C154  1  0.76555259  0.52144188  0.21842502  1  0.05648  0  -0.108774  -0.244096  0  3.994066  0
C  C155  1  0.58959790  0.35924880  0.30877448  1  0.411621  0  0.077144  0.24091  0  4.058365  0
C  C156  1  0.52107215  0.33046097  0.24009376  1  0.021758  0  -0.094135  -0.1706  0  4.005382  0
C  C157  1  0.46865719  0.21960975  0.21490986  1  -0.042632  0  -0.095081  -0.172093  0  4.004706  0
C  C158  1  0.48503531  0.13873899  0.25839396  1  0.414714  0  0.074714  0.236048  0  4.070179  0
C  C159  1  0.55158258  0.16699051  0.32779139  1  0.044977  0  -0.09297  -0.167985  0  4.00864  0
C  C160  1  0.60458869  0.27826038  0.35300622  1  -0.019955  0  -0.098267  -0.181924  0  4.017773  0
C  C161  1  0.33018935  0.95803953  0.24964987  1  0.37974  0  0.072586  0.24389  0  4.077148  0
C  C162  1  0.28590167  0.85166639  0.21453071  1  0.004589  0  -0.106897  -0.199298  0  4.008087  0
C  C163  1  0.17756740  0.77321656  0.23428811  1  -0.072899  0  -0.092305  -0.060711  0  4.013583  0
C  C164  1  0.11372394  0.80027583  0.28910402  1  -0.076573  0  -0.09618  -0.120844  0  3.984039  0
C  C165  1  0.15815613  0.90730646  0.32310869  1  0.022289  0  -0.022312  -0.00969  0  3.988448  0
C  C166  1  0.26685920  0.98702159  0.30311238  1  0.020564  0  -0.112566  -0.243641  0  3.992511  0
C  C167  1  0.09173143  0.93831862  0.38259240  1  1.573389  0  0.212815  0.589876  0  4.16463  0
N  N168  1  0.23901514  0.25507243  0.49763193  1  -1.240258  0  -0.318725  -0.204313  0  3.52197  0
N  N169  1  0.76098896  0.24492461  0.99762926  1  -1.240377  0  -0.318762  -0.204327  0  3.521668  0
N  N170  1  0.76098797  0.74491714  0.50237342  1  -1.240223  0  -0.318719  -0.204326  0  3.521803  0
N  N171  1  0.23901507  0.75507839  0.00236759  1  -1.240231  0  -0.318768  -0.204328  0  3.52188  0
O  O172  1  0.99276061  0.15080671  0.42354392  1  -1.171529  0  -0.314205  -0.542052  0  2.322324  0
O  O173  1  0.85428671  0.97273519  0.41835378  1  -1.182062  0  -0.319892  -0.561465  0  2.349162  0
O  O174  1  0.64184900  0.96891489  0.16412943  1  -1.105784  0  -0.16179  -0.232469  0  2.586537  0
O  O175  1  0.43988535  0.52992656  0.27109323  1  -1.101625  0  -0.165238  -0.23489  0  2.576512  0
O  O176  1  0.13600982  0.53955664  0.09311850  1  -1.17933  0  -0.321541  -0.563397  0  2.350704  0
O  O177  1  0.99704103  0.36188575  0.09522756  1  -1.17179  0  -0.314736  -0.538263  0  2.327618  0
O  O178  1  0.00724978  0.34919525  0.92354960  1  -1.171497  0  -0.314111  -0.541946  0  2.322418  0
O  O179  1  0.14571072  0.52726541  0.91835797  1  -1.181841  0  -0.319847  -0.561414  0  2.349233  0
O  O180  1  0.35814333  0.53108775  0.66413207  1  -1.105636  0  -0.1618  -0.232548  0  2.586629  0
O  O181  1  0.56011674  0.97007473  0.77109379  1  -1.101705  0  -0.165204  -0.234788  0  2.576889  0
O  O182  1  0.86399290  0.96044839  0.59311539  1  -1.179342  0  -0.321487  -0.563435  0  2.350658  0
O  O183  1  0.00295706  0.13811660  0.59522682  1  -1.171827  0  -0.314692  -0.538197  0  2.327642  0
O  O184  1  0.00723995  0.84918710  0.57645778  1  -1.171575  0  -0.314171  -0.54204  0  2.322306  0
O  O185  1  0.14571649  0.02726111  0.58164065  1  -1.182228  0  -0.319908  -0.561537  0  2.349084  0
O  O186  1  0.35815510  0.03109315  0.83587227  1  -1.105395  0  -0.161732  -0.232379  0  2.586504  0
O  O187  1  0.56010670  0.47007155  0.72889938  1  -1.101635  0  -0.165143  -0.23465  0  2.576627  0
O  O188  1  0.86398606  0.46044982  0.90688260  1  -1.179316  0  -0.321531  -0.563483  0  2.3508  0
O  O189  1  0.00294261  0.63812337  0.90477657  1  -1.171643  0  -0.314698  -0.53826  0  2.327754  0
O  O190  1  0.99276210  0.65081018  0.07646545  1  -1.171404  0  -0.314099  -0.542016  0  2.322219  0
O  O191  1  0.85428478  0.47274021  0.08164434  1  -1.182225  0  -0.319934  -0.56157  0  2.349106  0
O  O192  1  0.64184647  0.46890870  0.33587388  1  -1.105475  0  -0.161806  -0.232475  0  2.586545  0
O  O193  1  0.43988614  0.02992576  0.22890004  1  -1.101782  0  -0.165204  -0.23484  0  2.576701  0
O  O194  1  0.13601066  0.03954706  0.40688207  1  -1.179368  0  -0.321473  -0.563422  0  2.350685  0
O  O195  1  0.99705056  0.86187628  0.40477064  1  -1.171732  0  -0.314803  -0.538341  0  2.327672  0
