# generated using pymatgen
data_CuH3C5SBrN3
_symmetry_space_group_name_H-M   'P 1'
_cell_length_a   3.73681499
_cell_length_b   5.67251460
_cell_length_c   18.12377042
_cell_angle_alpha   89.99924872
_cell_angle_beta   90.00078668
_cell_angle_gamma   104.43404533
_symmetry_Int_Tables_number   1
_chemical_formula_structural   CuH3C5SBrN3
_chemical_formula_sum   'Cu2 H6 C10 S2 Br2 N6'
_cell_volume   372.04574805
_cell_formula_units_Z   2
loop_
 _symmetry_equiv_pos_site_id
 _symmetry_equiv_pos_as_xyz
  1  'x, y, z'
loop_
 _atom_site_type_symbol
 _atom_site_label
 _atom_site_symmetry_multiplicity
 _atom_site_fract_x
 _atom_site_fract_y
 _atom_site_fract_z
 _atom_site_occupancy
 _atom_site_pbe_bader_spin_density
 _atom_site_pbe_cm5_charge
 _atom_site_pbe_ddec_charge
 _atom_site_pbe_ddec_spin_density
 _atom_site_pbe_ddec_sum_bond_order
 _atom_site_pbe_magmom
Cu  Cu0  1  0.70592260  0.75486303  0.66002921  1  0  0.474132  0.35983  0  2.715848  0
Cu  Cu1  1  0.29412254  0.24513497  0.16001372  1  0  0.474122  0.359693  0  2.71611  0
H  H2  1  0.40760730  0.28121180  0.58520265  1  0  0.123202  0.078289  0  1.018426  0
H  H3  1  0.59237685  0.71877114  0.08519317  1  0  0.123299  0.07825  0  1.018561  0
H  H4  1  0.84182098  0.98362522  0.50513947  1  0  0.115324  0.094721  0  1.048252  0
H  H5  1  0.15814256  0.01637562  0.00513624  1  0  0.11533  0.094745  0  1.048188  0
H  H6  1  0.23630623  0.40717737  0.36349194  1  0  0.099262  0.079886  0  1.04992  0
H  H7  1  0.76369377  0.59283948  0.86348453  1  0  0.099227  0.079841  0  1.050079  0
C  C8  1  0.97771910  0.30083231  0.69310941  1  0  0.139371  0.26192  0  4.242861  0
C  C9  1  0.02230802  0.69922411  0.19310463  1  0  0.139541  0.262166  0  4.241533  0
C  C10  1  0.44519837  0.40778440  0.53898190  1  0  0.16507  0.215671  0  3.94567  0
C  C11  1  0.55479431  0.59220795  0.03897178  1  0  0.16501  0.21575  0  3.946396  0
C  C12  1  0.68572407  0.79632794  0.49568264  1  0  0.050069  0.073343  0  3.886687  0
C  C13  1  0.31425550  0.20366692  0.99567756  1  0  0.050065  0.073351  0  3.886559  0
C  C14  1  0.35508608  0.47624103  0.41673957  1  0  0.048937  0.0644  0  3.959937  0
C  C15  1  0.64491387  0.52375438  0.91673295  1  0  0.049057  0.064611  0  3.960178  0
C  C16  1  0.55331569  0.71815500  0.42563768  1  0  -0.014985  0.011638  0  3.958352  0
C  C17  1  0.44671581  0.28185155  0.92563081  1  0  -0.01511  0.011452  0  3.958694  0
S  S18  1  0.13901433  0.58555202  0.71911448  1  0  -0.191641  -0.312079  0  3.251712  0
S  S19  1  0.86095047  0.41440503  0.21911743  1  0  -0.191705  -0.312285  0  3.24992  0
Br  Br20  1  0.63548158  0.93475318  0.34499557  1  0  0.086348  0.01971  0  1.764745  0
Br  Br21  1  0.36446677  0.06521744  0.84499797  1  0  0.086339  0.019657  0  1.764827  0
N  N22  1  0.85624708  0.09655609  0.67464402  1  0  -0.436018  -0.443297  0  3.464493  0
N  N23  1  0.14377357  0.90346614  0.17463951  1  0  -0.436106  -0.44327  0  3.464918  0
N  N24  1  0.62751558  0.64045887  0.55322708  1  0  -0.349443  -0.233882  0  3.593671  0
N  N25  1  0.37250843  0.35955677  0.05322288  1  0  -0.34949  -0.233824  0  3.594014  0
N  N26  1  0.30504831  0.32162251  0.47402194  1  0  -0.309615  -0.270104  0  3.351253  0
N  N27  1  0.69497687  0.67836699  0.97401669  1  0  -0.309592  -0.270186  0  3.351472  0
