# generated using pymatgen
data_Zn4H32C46N2O13
_symmetry_space_group_name_H-M   'P 1'
_cell_length_a   13.63647111
_cell_length_b   13.63647374
_cell_length_c   24.28536797
_cell_angle_alpha   89.99997114
_cell_angle_beta   89.99996377
_cell_angle_gamma   90.00005514
_symmetry_Int_Tables_number   1
_chemical_formula_structural   Zn4H32C46N2O13
_chemical_formula_sum   'Zn8 H64 C92 N4 O26'
_cell_volume   4515.94626130
_cell_formula_units_Z   2
loop_
 _symmetry_equiv_pos_site_id
 _symmetry_equiv_pos_as_xyz
  1  'x, y, z'
loop_
 _atom_site_type_symbol
 _atom_site_label
 _atom_site_symmetry_multiplicity
 _atom_site_fract_x
 _atom_site_fract_y
 _atom_site_fract_z
 _atom_site_occupancy
 _atom_site_pbe_bader_charge
 _atom_site_pbe_bader_spin_density
 _atom_site_pbe_cm5_charge
 _atom_site_pbe_ddec_charge
 _atom_site_pbe_ddec_spin_density
 _atom_site_pbe_ddec_sum_bond_order
 _atom_site_pbe_magmom
Zn  Zn0  1  0.36773338  0.26007072  0.79602860  1  1.31623  0  0.668598  0.964184  0  2.379773  0
Zn  Zn1  1  0.13226703  0.23992904  0.79602824  1  1.316308  0  0.668583  0.964175  0  2.379785  0
Zn  Zn2  1  0.73992922  0.86773335  0.29602820  1  1.316233  0  0.668576  0.964176  0  2.379791  0
Zn  Zn3  1  0.76007068  0.63226706  0.29602823  1  1.316311  0  0.668589  0.964192  0  2.379781  0
Zn  Zn4  1  0.63226719  0.73992904  0.20397157  1  1.31624  0  0.668572  0.964148  0  2.379795  0
Zn  Zn5  1  0.86773281  0.76007072  0.20397153  1  1.316231  0  0.668586  0.964191  0  2.379765  0
Zn  Zn6  1  0.26007062  0.13226714  0.70397156  1  1.316236  0  0.668574  0.964185  0  2.379778  0
Zn  Zn7  1  0.23992916  0.36773270  0.70397153  1  1.316233  0  0.66858  0.964195  0  2.379765  0
H  H8  1  0.41638559  0.86850446  0.72954115  1  0.090777  0  0.108255  0.114014  0  0.990409  0
H  H9  1  0.08361463  0.63149581  0.72954124  1  0.09078  0  0.108251  0.114012  0  0.990372  0
H  H10  1  0.13149548  0.91638643  0.22954177  1  0.090805  0  0.108254  0.114029  0  0.990362  0
H  H11  1  0.36850458  0.58361356  0.22954218  1  0.090817  0  0.108256  0.114018  0  0.990368  0
H  H12  1  0.58361424  0.13149603  0.27045903  1  0.090778  0  0.108263  0.114011  0  0.990408  0
H  H13  1  0.91638520  0.36850394  0.27045894  1  0.090778  0  0.108249  0.113997  0  0.990381  0
H  H14  1  0.86850436  0.08361480  0.77045882  1  0.090777  0  0.108247  0.114005  0  0.99038  0
H  H15  1  0.63149599  0.41638546  0.77045882  1  0.090779  0  0.108249  0.114006  0  0.990377  0
H  H16  1  0.51859597  0.72605491  0.75937475  1  0.064054  0  0.099385  0.103103  0  1.017833  0
H  H17  1  0.98140341  0.77394508  0.75937466  1  0.064033  0  0.099385  0.103096  0  1.017816  0
H  H18  1  0.27394464  0.01859647  0.25937465  1  0.064044  0  0.099376  0.103106  0  1.017791  0
H  H19  1  0.22605490  0.48140377  0.25937459  1  0.064034  0  0.099368  0.103075  0  1.017819  0
H  H20  1  0.48140387  0.27394558  0.24062501  1  0.064031  0  0.099387  0.103104  0  1.017836  0
H  H21  1  0.01859643  0.22605468  0.24062510  1  0.064036  0  0.099373  0.103089  0  1.017792  0
H  H22  1  0.72605520  0.98140403  0.74062553  1  0.064055  0  0.099377  0.103101  0  1.017781  0
H  H23  1  0.77394493  0.51859672  0.74062559  1  0.064054  0  0.099388  0.103102  0  1.017824  0
H  H24  1  0.67269671  0.91351616  0.87291220  1  0.054839  0  0.105319  0.10967  0  1.007397  0
H  H25  1  0.82730327  0.58648374  0.87291222  1  0.054836  0  0.105322  0.109676  0  1.007394  0
H  H26  1  0.08648339  0.17269628  0.37291216  1  0.054838  0  0.105321  0.109688  0  1.007399  0
H  H27  1  0.41351602  0.32730312  0.37291208  1  0.054827  0  0.105319  0.109671  0  1.007418  0
H  H28  1  0.32730312  0.08648360  0.12708757  1  0.054835  0  0.105318  0.109671  0  1.0074  0
H  H29  1  0.17269657  0.41351675  0.12708755  1  0.054831  0  0.105327  0.109679  0  1.007404  0
H  H30  1  0.91351645  0.82730348  0.62708760  1  0.054841  0  0.105323  0.109668  0  1.007391  0
H  H31  1  0.58648382  0.67269664  0.62708768  1  0.054836  0  0.105322  0.109667  0  1.007397  0
H  H32  1  0.57090239  0.05542332  0.84214649  1  0.099905  0  0.109076  0.115005  0  0.991558  0
H  H33  1  0.92909788  0.44457688  0.84214637  1  0.099906  0  0.109077  0.115017  0  0.991543  0
H  H34  1  0.94457633  0.07090206  0.34214658  1  0.099903  0  0.109084  0.115019  0  0.991515  0
H  H35  1  0.55542304  0.42909712  0.34214660  1  0.099911  0  0.109086  0.115015  0  0.991518  0
H  H36  1  0.42909818  0.94457718  0.15785328  1  0.09991  0  0.109077  0.115036  0  0.991514  0
H  H37  1  0.07090195  0.55542288  0.15785340  1  0.09991  0  0.109092  0.115032  0  0.99151  0
H  H38  1  0.05542351  0.92909770  0.65785359  1  0.099901  0  0.109077  0.115022  0  0.991518  0
H  H39  1  0.44457753  0.57090191  0.65785357  1  0.099915  0  0.109086  0.115045  0  0.991534  0
H  H40  1  0.61874863  0.67194049  0.85981217  1  0.052293  0  0.116822  0.1033  0  0.968992  0
H  H41  1  0.88125064  0.82806015  0.85981169  1  0.052333  0  0.116826  0.103302  0  0.968985  0
H  H42  1  0.32805980  0.11874844  0.35981206  1  0.052298  0  0.116843  0.103339  0  0.968967  0
H  H43  1  0.17193963  0.38125024  0.35981205  1  0.05232  0  0.116802  0.10328  0  0.968982  0
H  H44  1  0.38125121  0.32806001  0.14018800  1  0.052527  0  0.116822  0.103302  0  0.968989  0
H  H45  1  0.11874920  0.17194034  0.14018807  1  0.052302  0  0.116825  0.103303  0  0.968988  0
H  H46  1  0.67194003  0.88125132  0.64018812  1  0.052299  0  0.11682  0.103295  0  0.968996  0
H  H47  1  0.82806021  0.61874952  0.64018772  1  0.052327  0  0.116801  0.103297  0  0.968979  0
H  H48  1  0.68780906  0.68259873  0.79955983  1  0.075343  0  0.107482  0.089445  0  1.005573  0
H  H49  1  0.81219028  0.81740123  0.79955979  1  0.075336  0  0.10749  0.089432  0  1.005592  0
H  H50  1  0.31740169  0.18780957  0.29956013  1  0.075343  0  0.107494  0.08945  0  1.005595  0
H  H51  1  0.18259781  0.31218990  0.29956014  1  0.075339  0  0.10749  0.089402  0  1.005621  0
H  H52  1  0.31219078  0.31740176  0.20043993  1  0.075349  0  0.10749  0.089449  0  1.00556  0
H  H53  1  0.18780956  0.18259853  0.20043998  1  0.075344  0  0.107499  0.089451  0  1.005579  0
H  H54  1  0.68259815  0.81219092  0.70044005  1  0.07534  0  0.107496  0.089445  0  1.005582  0
H  H55  1  0.81740203  0.68780986  0.70043963  1  0.075344  0  0.107492  0.089419  0  1.005624  0
H  H56  1  0.59133024  0.73834397  0.93354751  1  0.050447  0  0.101254  0.109167  0  1.019699  0
H  H57  1  0.90866968  0.76165587  0.93354746  1  0.050434  0  0.101248  0.109167  0  1.01967  0
H  H58  1  0.26165620  0.09133073  0.43354742  1  0.050458  0  0.101239  0.109161  0  1.019668  0
H  H59  1  0.23834387  0.40866935  0.43354738  1  0.050457  0  0.101236  0.109158  0  1.019673  0
H  H60  1  0.40866960  0.26165579  0.06645266  1  0.050451  0  0.101251  0.109174  0  1.019665  0
H  H61  1  0.09133089  0.23834389  0.06645272  1  0.050459  0  0.101238  0.10916  0  1.019671  0
H  H62  1  0.73834363  0.90866903  0.56645235  1  0.050459  0  0.101262  0.109177  0  1.019686  0
H  H63  1  0.76165596  0.59133040  0.56645280  1  0.050448  0  0.101248  0.10917  0  1.019669  0
H  H64  1  0.59356006  0.73446067  0.03477135  1  0.09593  0  0.105996  0.110522  0  0.991535  0
H  H65  1  0.90643941  0.76553924  0.03477129  1  0.095936  0  0.105999  0.110526  0  0.99154  0
H  H66  1  0.26553912  0.09356073  0.53477133  1  0.095936  0  0.106  0.110533  0  0.991542  0
H  H67  1  0.23446085  0.40643999  0.53477129  1  0.095931  0  0.105995  0.110527  0  0.991539  0
H  H68  1  0.40643978  0.26553909  0.96522883  1  0.095932  0  0.105996  0.110519  0  0.991535  0
H  H69  1  0.09356043  0.23446125  0.96522848  1  0.095928  0  0.105989  0.110516  0  0.991542  0
H  H70  1  0.73446072  0.90643976  0.46522843  1  0.095976  0  0.105994  0.110521  0  0.99153  0
H  H71  1  0.76553899  0.59356050  0.46522888  1  0.095941  0  0.105999  0.110524  0  0.991539  0
C  C72  1  0.42692456  0.05606054  0.76667556  1  1.582302  0  0.22465  0.602496  0  4.175582  0
C  C73  1  0.07307514  0.44393924  0.76667556  1  1.582279  0  0.224663  0.602507  0  4.175558  0
C  C74  1  0.94393952  0.92692398  0.26667550  1  1.582322  0  0.224671  0.60253  0  4.175507  0
C  C75  1  0.55606114  0.57307572  0.26667562  1  1.582296  0  0.224727  0.602596  0  4.175552  0
C  C76  1  0.57307601  0.94393848  0.23332421  1  1.582315  0  0.224654  0.602469  0  4.17559  0
C  C77  1  0.92692470  0.55606125  0.23332420  1  1.582318  0  0.224646  0.602462  0  4.175616  0
C  C78  1  0.05606105  0.07307577  0.73332467  1  1.582312  0  0.22464  0.602472  0  4.175652  0
C  C79  1  0.44393943  0.42692404  0.73332455  1  1.582321  0  0.224652  0.60247  0  4.175623  0
C  C80  1  0.48829351  0.97059978  0.78372972  1  -0.065724  0  -0.023468  -0.053587  0  3.99487  0
C  C81  1  0.01170665  0.52940045  0.78372986  1  -0.065678  0  -0.023479  -0.053566  0  3.994798  0
C  C82  1  0.02940015  0.98829351  0.28373037  1  -0.065733  0  -0.023417  -0.053511  0  3.994891  0
C  C83  1  0.47059984  0.51170643  0.28373077  1  -0.065693  0  -0.023481  -0.053574  0  3.994824  0
C  C84  1  0.51170706  0.02939998  0.21627005  1  -0.065715  0  -0.023442  -0.053453  0  3.994771  0
C  C85  1  0.98829318  0.47060005  0.21627031  1  -0.065726  0  -0.023456  -0.053517  0  3.994838  0
C  C86  1  0.97060042  0.01170625  0.71627022  1  -0.065713  0  -0.02347  -0.053575  0  3.994794  0
C  C87  1  0.52939999  0.48829332  0.71627023  1  -0.065714  0  -0.023489  -0.053549  0  3.994775  0
C  C88  1  0.47317227  0.87748847  0.76067882  1  -0.057252  0  -0.08099  -0.081861  0  3.979287  0
C  C89  1  0.02682719  0.62251178  0.76067893  1  -0.057247  0  -0.080962  -0.081835  0  3.979207  0
C  C90  1  0.12251149  0.97317235  0.26067985  1  -0.057252  0  -0.08099  -0.08188  0  3.979294  0
C  C91  1  0.37748853  0.52682688  0.26067987  1  -0.057242  0  -0.080994  -0.081846  0  3.979174  0
C  C92  1  0.52682757  0.12251129  0.23932095  1  -0.057246  0  -0.081013  -0.081874  0  3.979303  0
C  C93  1  0.97317264  0.37748871  0.23932083  1  -0.057247  0  -0.080972  -0.081832  0  3.979316  0
C  C94  1  0.87748835  0.02682741  0.73932115  1  -0.057248  0  -0.08096  -0.081823  0  3.979277  0
C  C95  1  0.62251204  0.47317288  0.73932113  1  -0.057251  0  -0.08096  -0.081824  0  3.979206  0
C  C96  1  0.53002197  0.79829719  0.77772735  1  -0.036143  0  -0.096022  -0.148159  0  3.993981  0
C  C97  1  0.96997739  0.70170279  0.77772729  1  -0.03612  0  -0.096025  -0.148167  0  3.993968  0
C  C98  1  0.20170234  0.03002240  0.27772769  1  -0.036122  0  -0.096042  -0.148216  0  3.993998  0
C  C99  1  0.29829719  0.46997709  0.27772761  1  -0.036115  0  -0.096047  -0.148223  0  3.994031  0
C  C100  1  0.46997787  0.20170256  0.22227282  1  -0.036097  0  -0.096023  -0.148191  0  3.99401  0
C  C101  1  0.03002245  0.29829771  0.22227289  1  -0.036103  0  -0.096025  -0.148182  0  3.993957  0
C  C102  1  0.79829750  0.96997810  0.72227290  1  -0.036131  0  -0.096041  -0.148207  0  3.993979  0
C  C103  1  0.70170265  0.53002267  0.72227298  1  -0.036078  0  -0.096037  -0.148195  0  3.994026  0
C  C104  1  0.60242265  0.81072418  0.81818709  1  0.014139  0  -0.009065  0.094514  0  3.969455  0
C  C105  1  0.89757666  0.68927577  0.81818706  1  0.014137  0  -0.009057  0.094529  0  3.969463  0
C  C106  1  0.18927611  0.10242305  0.31818702  1  0.014131  0  -0.009073  0.094545  0  3.969466  0
C  C107  1  0.31072336  0.39757713  0.31818696  1  0.014132  0  -0.009077  0.094524  0  3.969394  0
C  C108  1  0.39757719  0.18927631  0.18181267  1  0.014128  0  -0.009068  0.094526  0  3.969458  0
C  C109  1  0.10242317  0.31072399  0.18181271  1  0.014129  0  -0.00906  0.094553  0  3.96941  0
C  C110  1  0.81072373  0.89757744  0.68181275  1  0.014128  0  -0.009044  0.094567  0  3.969389  0
C  C111  1  0.68927647  0.60242336  0.68181281  1  0.014081  0  -0.009065  0.094519  0  3.969497  0
C  C112  1  0.61686043  0.90363016  0.84127547  1  -0.058104  0  -0.095128  -0.147343  0  3.999872  0
C  C113  1  0.88313885  0.59636903  0.84127505  1  -0.05811  0  -0.095136  -0.147355  0  3.999904  0
C  C114  1  0.09636937  0.11686075  0.34127542  1  -0.058108  0  -0.095138  -0.147393  0  3.999926  0
C  C115  1  0.40363081  0.38313868  0.34127574  1  -0.058096  0  -0.095093  -0.14733  0  3.999771  0
C  C116  1  0.38313940  0.09636960  0.15872471  1  -0.058105  0  -0.095099  -0.147288  0  3.999911  0
C  C117  1  0.11686098  0.40363073  0.15872471  1  -0.058108  0  -0.095141  -0.147379  0  3.999928  0
C  C118  1  0.90363047  0.88313974  0.65872476  1  -0.058095  0  -0.095109  -0.147304  0  3.999821  0
C  C119  1  0.59636976  0.61686108  0.65872485  1  -0.058096  0  -0.09509  -0.147257  0  3.999829  0
C  C120  1  0.56039719  0.98299376  0.82421416  1  -0.034088  0  -0.080184  -0.080091  0  3.983387  0
C  C121  1  0.93960211  0.51700618  0.82421416  1  -0.0341  0  -0.0802  -0.080138  0  3.983426  0
C  C122  1  0.01700645  0.06039744  0.32421414  1  -0.0341  0  -0.080188  -0.080094  0  3.983391  0
C  C123  1  0.48299376  0.43960274  0.32421400  1  -0.034113  0  -0.080176  -0.080072  0  3.983386  0
C  C124  1  0.43960264  0.01700673  0.17578560  1  -0.034093  0  -0.080235  -0.080261  0  3.983465  0
C  C125  1  0.06039772  0.48299358  0.17578602  1  -0.034093  0  -0.080199  -0.080141  0  3.983393  0
C  C126  1  0.98299412  0.93960232  0.67578604  1  -0.0341  0  -0.080209  -0.080155  0  3.983363  0
C  C127  1  0.51700608  0.56039775  0.67578617  1  -0.034092  0  -0.080224  -0.080233  0  3.98344  0
C  C128  1  0.66393411  0.72391583  0.83619670  1  0.32326  0  -0.050632  -0.113445  0  3.956135  0
C  C129  1  0.83606591  0.77608409  0.83619625  1  0.323229  0  -0.050641  -0.11342  0  3.956104  0
C  C130  1  0.27608378  0.16393459  0.33619660  1  0.323267  0  -0.050635  -0.11349  0  3.956144  0
C  C131  1  0.22391567  0.33606484  0.33619700  1  0.323239  0  -0.050575  -0.113325  0  3.956049  0
C  C132  1  0.33606573  0.27608393  0.16380306  1  0.323025  0  -0.050634  -0.113448  0  3.956111  0
C  C133  1  0.16393392  0.22391640  0.16380351  1  0.323256  0  -0.050646  -0.11345  0  3.956113  0
C  C134  1  0.72391606  0.83606590  0.66380357  1  0.323257  0  -0.050649  -0.113453  0  3.956131  0
C  C135  1  0.77608416  0.66393492  0.66380318  1  0.323228  0  -0.050608  -0.113414  0  3.956153  0
C  C136  1  0.74999960  0.75000029  0.92478418  1  0.386586  0  0.102521  0.192241  0  4.062062  0
C  C137  1  0.25000004  0.25000004  0.42478451  1  0.386575  0  0.102526  0.192206  0  4.062064  0
C  C138  1  0.25000024  0.25000020  0.07521558  1  0.386575  0  0.102515  0.192217  0  4.062079  0
C  C139  1  0.74999979  0.75000045  0.57521567  1  0.386592  0  0.102528  0.192257  0  4.062042  0
C  C140  1  0.66137914  0.74163224  0.95496369  1  0.019539  0  -0.113336  -0.214786  0  4.017443  0
C  C141  1  0.83862075  0.75836759  0.95496366  1  0.019562  0  -0.113319  -0.214757  0  4.017384  0
C  C142  1  0.25836799  0.16137962  0.45496401  1  0.01954  0  -0.113296  -0.214714  0  4.017389  0
C  C143  1  0.24163207  0.33862044  0.45496399  1  0.019539  0  -0.113298  -0.214723  0  4.017401  0
C  C144  1  0.33862070  0.25836752  0.04503607  1  0.019546  0  -0.113322  -0.214771  0  4.017387  0
C  C145  1  0.16137982  0.24163217  0.04503611  1  0.01955  0  -0.113299  -0.214725  0  4.017368  0
C  C146  1  0.74163185  0.83862087  0.54503576  1  0.019537  0  -0.113336  -0.214784  0  4.017417  0
C  C147  1  0.75836777  0.66137931  0.54503619  1  0.019544  0  -0.113325  -0.214778  0  4.017394  0
C  C148  1  0.66210713  0.74074313  0.01201977  1  -0.084246  0  -0.084176  -0.063279  0  4.0151  0
C  C149  1  0.83789309  0.75925680  0.01201974  1  -0.084255  0  -0.084185  -0.063304  0  4.015111  0
C  C150  1  0.25925675  0.16210705  0.51201976  1  -0.084263  0  -0.084197  -0.063351  0  4.015141  0
C  C151  1  0.24074324  0.33789296  0.51201974  1  -0.084257  0  -0.084189  -0.063335  0  4.015133  0
C  C152  1  0.33789271  0.25925663  0.98797999  1  -0.084251  0  -0.084184  -0.063273  0  4.015104  0
C  C153  1  0.16210675  0.24074296  0.98798003  1  -0.084257  0  -0.084199  -0.063312  0  4.015141  0
C  C154  1  0.74074309  0.83789271  0.48798000  1  -0.084305  0  -0.084194  -0.063287  0  4.015125  0
C  C155  1  0.75925659  0.66210680  0.48798044  1  -0.084263  0  -0.084192  -0.063284  0  4.01512  0
C  C156  1  0.75000009  0.74999995  0.04166353  1  -0.007147  0  -0.044042  -0.090067  0  4.033808  0
C  C157  1  0.24999998  0.24999999  0.54166353  1  -0.007148  0  -0.044043  -0.090033  0  4.033801  0
C  C158  1  0.24999974  0.24999981  0.95833623  1  -0.007149  0  -0.044107  -0.090139  0  4.033999  0
C  C159  1  0.74999986  0.74999977  0.45833624  1  -0.007144  0  -0.044108  -0.090141  0  4.034011  0
C  C160  1  0.75000006  0.74999993  0.10247628  1  1.538362  0  0.21812  0.604443  0  4.177395  0
C  C161  1  0.24999994  0.24999997  0.60247628  1  1.538365  0  0.218087  0.604383  0  4.177442  0
C  C162  1  0.25000051  0.24999983  0.89752348  1  1.538365  0  0.218127  0.604317  0  4.177501  0
C  C163  1  0.74999989  0.74999979  0.39752349  1  1.538364  0  0.218148  0.604334  0  4.177523  0
N  N164  1  0.74999963  0.74999958  0.86800926  1  -1.240294  0  -0.29425  -0.092994  0  3.691404  0
N  N165  1  0.24999934  0.25000007  0.36800958  1  -1.240312  0  -0.294306  -0.093016  0  3.691408  0
N  N166  1  0.25000021  0.25000018  0.13199051  1  -1.240294  0  -0.294251  -0.092988  0  3.691408  0
N  N167  1  0.75000049  0.75000042  0.63199060  1  -1.240302  0  -0.294256  -0.092997  0  3.691425  0
O  O168  1  0.44420179  0.13732862  0.79079500  1  -1.180969  0  -0.317044  -0.552335  0  2.345774  0
O  O169  1  0.05579789  0.36267114  0.79079504  1  -1.180975  0  -0.317055  -0.552353  0  2.345771  0
O  O170  1  0.86267069  0.94420186  0.29079498  1  -1.18098  0  -0.317091  -0.552419  0  2.345709  0
O  O171  1  0.63732995  0.55579929  0.29079466  1  -1.180993  0  -0.317092  -0.552412  0  2.345759  0
O  O172  1  0.55579952  0.86267114  0.20920517  1  -1.180991  0  -0.317051  -0.552312  0  2.345769  0
O  O173  1  0.94420195  0.63732861  0.20920514  1  -1.180984  0  -0.317057  -0.55235  0  2.345798  0
O  O174  1  0.13732915  0.05579863  0.70920520  1  -1.180985  0  -0.317111  -0.552413  0  2.345747  0
O  O175  1  0.36267062  0.44420120  0.70920510  1  -1.180977  0  -0.317108  -0.552408  0  2.345728  0
O  O176  1  0.36200016  0.04095472  0.72961210  1  -1.171389  0  -0.317584  -0.546884  0  2.322299  0
O  O177  1  0.13799959  0.45904510  0.72961208  1  -1.171391  0  -0.317584  -0.546879  0  2.322281  0
O  O178  1  0.95904533  0.86200033  0.22961204  1  -1.171404  0  -0.317577  -0.54686  0  2.322306  0
O  O179  1  0.54095465  0.63799941  0.22961256  1  -1.1714  0  -0.3176  -0.546903  0  2.322431  0
O  O180  1  0.63799968  0.95904504  0.27038767  1  -1.171398  0  -0.317571  -0.546874  0  2.322305  0
O  O181  1  0.86200025  0.54095466  0.27038768  1  -1.171397  0  -0.317581  -0.546864  0  2.322289  0
O  O182  1  0.04095451  0.13799943  0.77038772  1  -1.171406  0  -0.317521  -0.546794  0  2.322422  0
O  O183  1  0.45904519  0.36200035  0.77038762  1  -1.171413  0  -0.317522  -0.54679  0  2.322394  0
O  O184  1  0.66952467  0.72679593  0.12664847  1  -1.180081  0  -0.326936  -0.563506  0  2.336534  0
O  O185  1  0.83047542  0.77320390  0.12664843  1  -1.180082  0  -0.326936  -0.563515  0  2.336537  0
O  O186  1  0.27320458  0.16952462  0.62664845  1  -1.180081  0  -0.326921  -0.563482  0  2.336563  0
O  O187  1  0.22679602  0.33047603  0.62664844  1  -1.180086  0  -0.326924  -0.56349  0  2.33655  0
O  O188  1  0.33047517  0.27320456  0.87335130  1  -1.180094  0  -0.326925  -0.563416  0  2.33655  0
O  O189  1  0.16952442  0.22679586  0.87335133  1  -1.180161  0  -0.3269  -0.563425  0  2.336523  0
O  O190  1  0.72679599  0.83047514  0.37335131  1  -1.180077  0  -0.326932  -0.563444  0  2.336564  0
O  O191  1  0.77320455  0.66952447  0.37335133  1  -1.180172  0  -0.326912  -0.563423  0  2.336526  0
O  O192  1  0.24999986  0.24999990  0.75000009  1  -1.239279  0  -0.57372  -1.027862  0  2.537221  0
O  O193  1  0.74999998  0.74999986  0.25000009  1  -1.239284  0  -0.573714  -1.027831  0  2.537198  0
