# generated using pymatgen
data_Al2H15C20N4O10F
_symmetry_space_group_name_H-M   'P 1'
_cell_length_a   6.63780607
_cell_length_b   11.22562787
_cell_length_c   10.90808020
_cell_angle_alpha   76.33775841
_cell_angle_beta   75.31810902
_cell_angle_gamma   70.07115328
_symmetry_Int_Tables_number   1
_chemical_formula_structural   Al2H15C20N4O10F
_chemical_formula_sum   'Al2 H15 C20 N4 O10 F1'
_cell_volume   729.07817469
_cell_formula_units_Z   1
loop_
 _symmetry_equiv_pos_site_id
 _symmetry_equiv_pos_as_xyz
  1  'x, y, z'
loop_
 _atom_site_type_symbol
 _atom_site_label
 _atom_site_symmetry_multiplicity
 _atom_site_fract_x
 _atom_site_fract_y
 _atom_site_fract_z
 _atom_site_occupancy
 _atom_site_pbe_bader_charge
 _atom_site_pbe_bader_spin_density
 _atom_site_pbe_cm5_charge
 _atom_site_pbe_ddec_charge
 _atom_site_pbe_ddec_spin_density
 _atom_site_pbe_ddec_sum_bond_order
 _atom_site_pbe_magmom
Al  Al0  1  0.49627445  0.49865160  0.50558174  1  2.500676  0  0.386786  1.637325  0  2.595153  0
Al  Al1  1  0.99802158  0.49859642  0.50321752  1  2.499794  0  0.391951  1.626418  0  2.583161  0
H  H2  1  0.31411418  0.33429340  0.55426999  1  0.612227  0  0.341125  0.413903  0  0.894187  0
H  H3  1  0.67845879  0.66260861  0.44877154  1  0.624561  0  0.334692  0.400691  0  0.914493  0
H  H4  1  0.13674989  0.46918386  0.10575901  1  0.124426  0  0.108602  0.115636  0  1.010013  0
H  H5  1  0.71167128  0.54879518  0.13496461  1  0.13392  0  0.120732  0.151033  0  0.983773  0
H  H6  1  0.29193645  0.45166106  0.87335528  1  0.127493  0  0.113146  0.126682  0  1.00345  0
H  H7  1  0.24740443  0.24122978  0.32122970  1  0.068311  0  0.100102  0.118314  0  1.032788  0
H  H8  1  0.45409382  0.76970018  0.34637514  1  0.054205  0  0.104028  0.113866  0  1.063481  0
H  H9  1  0.72789828  0.78198851  0.61804299  1  0.447938  0  0.300358  0.29966  0  0.974265  0
H  H10  1  0.53915876  0.92665342  0.62049616  1  0.446268  0  0.304853  0.297158  0  0.946246  0
H  H11  1  0.57796738  0.21297874  0.64995410  1  0.451922  0  0.305639  0.29491  0  0.969583  0
H  H12  1  0.55688869  0.06429169  0.71371833  1  0.437147  0  0.301676  0.28808  0  0.957935  0
H  H13  1  0.56998535  0.23571267  0.16173958  1  0.416322  0  0.290828  0.282298  0  0.980738  0
H  H14  1  0.71144982  0.10187303  0.09739115  1  0.433586  0  0.296839  0.281114  0  0.967223  0
H  H15  1  0.79653302  0.77917506  0.21872448  1  0.44956  0  0.301554  0.299315  0  0.941632  0
H  H16  1  0.87586141  0.91042066  0.19613704  1  0.430105  0  0.30037  0.290808  0  0.953003  0
C  C17  1  0.87727052  0.27484708  0.48412970  1  1.526937  0  0.270701  0.673565  0  4.062088  0
C  C18  1  0.66960897  0.47654946  0.73507498  1  1.590012  0  0.264329  0.648402  0  4.111839  0
C  C19  1  0.12316680  0.72533525  0.51409023  1  1.52377  0  0.272181  0.682278  0  4.042058  0
C  C20  1  0.32797432  0.52211876  0.27269694  1  1.563954  0  0.264925  0.628711  0  4.108742  0
C  C21  1  0.58841929  0.48716693  0.87399463  1  0.091172  0  -0.018552  -0.153214  0  3.954611  0
C  C22  1  0.41420351  0.51070733  0.13404070  1  -0.057966  0  -0.008674  -0.010116  0  3.984048  0
C  C23  1  0.70299963  0.51545530  0.94997330  1  0.399647  0  0.112391  0.284341  0  4.039212  0
C  C24  1  0.29574018  0.48221746  0.06098147  1  -0.001868  0  -0.088389  -0.1233  0  3.994224  0
C  C25  1  0.61926998  0.52721917  0.07802407  1  0.076648  0  -0.088882  -0.22285  0  3.96075  0
C  C26  1  0.38255941  0.47125665  0.93272260  1  -0.110749  0  -0.073668  -0.062926  0  3.962703  0
C  C27  1  0.94442242  0.13474243  0.48575367  1  0.018172  0  -0.032598  -0.213447  0  3.961303  0
C  C28  1  0.15125502  0.07034369  0.41488051  1  0.00375  0  -0.020774  0.058201  0  4.062997  0
C  C29  1  0.79690786  0.06832838  0.55706348  1  0.378888  0  0.093255  0.187991  0  4.038895  0
C  C30  1  0.29416825  0.13697671  0.33172214  1  0.01992  0  -0.120227  -0.264449  0  3.983214  0
C  C31  1  0.49082101  0.07430584  0.26066889  1  0.367658  0  0.078374  0.200435  0  4.098942  0
C  C32  1  0.05777390  0.86715742  0.49813981  1  0.040956  0  -0.034608  -0.220442  0  3.960378  0
C  C33  1  0.84996127  0.93326706  0.55808165  1  0.460038  0  0.092008  0.188631  0  4.052807  0
C  C34  1  0.21039993  0.93386240  0.42288151  1  -0.038421  0  -0.023295  0.055333  0  4.06255  0
C  C35  1  0.41148185  0.87188841  0.34827057  1  -0.012399  0  -0.127431  -0.290456  0  4.01713  0
C  C36  1  0.55348125  0.93767979  0.27154870  1  0.373732  0  0.076385  0.199287  0  4.100053  0
N  N37  1  0.69448832  0.87401868  0.63108951  1  -1.222474  0  -0.602981  -0.61114  0  3.288366  0
N  N38  1  0.59720745  0.12449394  0.63217085  1  -1.219939  0  -0.595261  -0.599582  0  3.30901  0
N  N39  1  0.63450307  0.13860612  0.17977733  1  -1.205598  0  -0.60226  -0.603956  0  3.301916  0
N  N40  1  0.75101705  0.87677684  0.19662009  1  -1.228188  0  -0.606053  -0.618472  0  3.267598  0
O  O41  1  0.68228182  0.33709565  0.46782260  1  -1.274089  0  -0.239571  -0.601402  0  2.358924  0
O  O42  1  0.85361838  0.49346407  0.68158181  1  -1.246851  0  -0.232297  -0.577893  0  2.352875  0
O  O43  1  0.98913598  0.67189052  0.50037319  1  -1.276224  0  -0.238656  -0.61105  0  2.35102  0
O  O44  1  0.45075388  0.54585900  0.33048470  1  -1.258334  0  -0.237702  -0.59416  0  2.383373  0
O  O45  1  0.31118232  0.66238466  0.54073917  1  -1.271922  0  -0.238812  -0.597606  0  2.343115  0
O  O46  1  0.14083580  0.50722622  0.32237703  1  -1.251321  0  -0.236043  -0.581765  0  2.332614  0
O  O47  1  0.00933118  0.32648152  0.50191854  1  -1.267829  0  -0.2333  -0.595017  0  2.35397  0
O  O48  1  0.54430383  0.45104015  0.67990233  1  -1.264322  0  -0.242161  -0.604227  0  2.355694  0
O  O49  1  0.26681597  0.42653528  0.55439163  1  -1.417858  0  -0.450384  -0.978907  0  2.17736  0
O  O50  1  0.72825547  0.56994870  0.45220527  1  -1.437122  0  -0.453636  -0.984517  0  2.21022  0
F  F51  1  0.90200609  0.53278742  0.90054925  1  -0.630245  0  -0.081616  -0.123492  0  1.392189  0
