# generated using pymatgen
data_FeH8C6S2(N5O)2
_symmetry_space_group_name_H-M   'P 1'
_cell_length_a   5.47516417
_cell_length_b   11.00332890
_cell_length_c   11.62226850
_cell_angle_alpha   96.79602357
_cell_angle_beta   90.00601507
_cell_angle_gamma   104.39913613
_symmetry_Int_Tables_number   1
_chemical_formula_structural   FeH8C6S2(N5O)2
_chemical_formula_sum   'Fe2 H16 C12 S4 N20 O4'
_cell_volume   673.10631904
_cell_formula_units_Z   2
loop_
 _symmetry_equiv_pos_site_id
 _symmetry_equiv_pos_as_xyz
  1  'x, y, z'
loop_
 _atom_site_type_symbol
 _atom_site_label
 _atom_site_symmetry_multiplicity
 _atom_site_fract_x
 _atom_site_fract_y
 _atom_site_fract_z
 _atom_site_occupancy
 _atom_site_pbe_cm5_charge
 _atom_site_pbe_ddec_charge
 _atom_site_pbe_ddec_spin_density
 _atom_site_pbe_ddec_sum_bond_order
 _atom_site_pbe_magmom
Fe  Fe0  1  0.50000279  0.50000076  0.49999965  1  0.754299  0.678852  -0.002059  3.381703  -0.003
Fe  Fe1  1  0.99999744  0.49999978  0.99999954  1  0.752913  0.674757  -0.001406  3.385911  -0.002
H  H2  1  0.67447102  0.44396345  0.28093157  1  0.306218  0.37027  0.000594  0.952312  0.001
H  H3  1  0.23031667  0.55602046  0.21902662  1  0.306331  0.370722  0.000558  0.951642  0.001
H  H4  1  0.32553179  0.55603615  0.71906922  1  0.306189  0.370216  0.000594  0.952369  0.001
H  H5  1  0.76968067  0.44397916  0.78097245  1  0.306319  0.370707  0.000558  0.95166  0.001
H  H6  1  0.90185891  0.53651538  0.35963534  1  0.302843  0.362707  -0.000425  0.980076  -0.001
H  H7  1  0.36510249  0.46337735  0.14046517  1  0.302824  0.3631  -0.000401  0.980857  -0.001
H  H8  1  0.09814342  0.46348327  0.64036533  1  0.302855  0.362714  -0.000425  0.980083  -0.001
H  H9  1  0.63489072  0.53662132  0.85953379  1  0.302815  0.363078  -0.000401  0.980841  -0.001
H  H10  1  0.34640362  0.19160646  0.43271808  1  0.142594  0.11634  -6e-06  1.046974  0.0
H  H11  1  0.15508528  0.80837485  0.06730285  1  0.142885  0.117026  -6e-06  1.046331  0.0
H  H12  1  0.65359967  0.80839412  0.56728025  1  0.142601  0.116368  -6e-06  1.046912  0.0
H  H13  1  0.84491521  0.19162376  0.93270040  1  0.14288  0.117022  -6e-06  1.046232  0.0
H  H14  1  0.92339369  0.20183874  0.68063083  1  0.130537  0.111887  -1e-05  1.053634  0.0
H  H15  1  0.72138749  0.79819817  0.81916307  1  0.130158  0.1114  -1.1e-05  1.054082  0.0
H  H16  1  0.07660729  0.79816087  0.31936910  1  0.130528  0.111859  -1e-05  1.053597  0.0
H  H17  1  0.27860668  0.20180241  0.18083525  1  0.130156  0.111389  -1.1e-05  1.054108  0.0
C  C18  1  0.49725262  0.22824158  0.49705362  1  0.164724  0.054174  0.000309  3.863232  0.0
C  C19  1  0.26925208  0.77174157  0.00292425  1  0.163689  0.052069  0.000306  3.8619  0.0
C  C20  1  0.50274515  0.77175524  0.50294253  1  0.164747  0.054129  0.000309  3.86341  0.0
C  C21  1  0.73074841  0.22825704  0.99707899  1  0.163754  0.052136  0.000306  3.861835  0.0
C  C22  1  0.92585635  0.69655496  0.63865172  1  0.133379  0.245369  0.00022  4.302187  0.0
C  C23  1  0.22928330  0.30349001  0.86146826  1  0.133008  0.243903  0.000173  4.300242  0.0
C  C24  1  0.07414239  0.30344747  0.36134942  1  0.133469  0.245416  0.00022  4.302122  0.0
C  C25  1  0.77071450  0.69651054  0.13853264  1  0.132927  0.243819  0.000173  4.300251  0.0
C  C26  1  0.79313801  0.23368276  0.62727904  1  0.178089  0.090418  -0.000158  3.871736  0.0
C  C27  1  0.55935598  0.76635402  0.87254971  1  0.177802  0.090543  -0.000156  3.87077  0.0
C  C28  1  0.20686250  0.76631590  0.37272077  1  0.178096  0.090474  -0.000158  3.87174  0.0
C  C29  1  0.44063540  0.23364466  0.12744924  1  0.177775  0.090554  -0.000156  3.870709  0.0
S  S30  1  0.11174927  0.82284330  0.70686261  1  -0.187862  -0.349831  0.000211  2.359872  0.0
S  S31  1  0.28925190  0.17731423  0.79320341  1  -0.187258  -0.349205  0.000154  2.360049  0.0
S  S32  1  0.88825176  0.17716006  0.29313950  1  -0.187846  -0.349825  0.000211  2.359891  0.0
S  S33  1  0.71074638  0.82268727  0.20679675  1  -0.187221  -0.349154  0.000154  2.360051  0.0
N  N34  1  0.77956848  0.60846770  0.58770157  1  -0.425211  -0.437592  -0.000177  3.444765  0.0
N  N35  1  0.17101154  0.39156721  0.91240432  1  -0.425282  -0.435498  -0.000145  3.443533  0.0
N  N36  1  0.22043709  0.39153379  0.41229946  1  -0.425343  -0.437699  -0.000177  3.444757  0.0
N  N37  1  0.82898397  0.60843240  0.08759561  1  -0.425248  -0.435453  -0.000145  3.443527  0.0
N  N38  1  0.58458526  0.02624622  0.53870092  1  -0.035734  -0.062631  0.00012  3.208172  0.0
N  N39  1  0.55818448  0.97379248  0.96121319  1  -0.035536  -0.062669  8.6e-05  3.204242  0.0
N  N40  1  0.41541526  0.97375246  0.46129718  1  -0.035692  -0.062614  0.00012  3.208017  0.0
N  N41  1  0.44181102  0.02620713  0.03878674  1  -0.035552  -0.062685  8.6e-05  3.204243  0.0
N  N42  1  0.61725151  0.15403518  0.55136245  1  -0.113225  0.112491  -1.1e-05  3.841147  0.0
N  N43  1  0.46324891  0.84598352  0.94853128  1  -0.112367  0.114272  -5e-06  3.834931  0.0
N  N44  1  0.38275266  0.84596350  0.44863651  1  -0.113246  0.11246  -1.1e-05  3.84116  0.0
N  N45  1  0.53675206  0.15401606  0.05147037  1  -0.112393  0.114211  -5e-06  3.834928  0.0
N  N46  1  0.59689994  0.34761738  0.53863802  1  -0.232238  -0.09782  0.000223  3.528299  0.0
N  N47  1  0.24955869  0.65240232  0.96131365  1  -0.231691  -0.096727  0.000207  3.528192  0.0
N  N48  1  0.40310152  0.65238319  0.46136116  1  -0.23224  -0.097784  0.000223  3.528435  0.0
N  N49  1  0.75044046  0.34759727  0.03868800  1  -0.231717  -0.09671  0.000207  3.528182  0.0
N  N50  1  0.78432351  0.35085270  0.62103378  1  -0.20218  -0.18303  -0.000113  3.258902  0.0
N  N51  1  0.43352108  0.64918497  0.87882614  1  -0.202193  -0.183756  -8.9e-05  3.260662  0.0
N  N52  1  0.21567517  0.64914596  0.37896603  1  -0.202165  -0.183021  -0.000113  3.258899  0.0
N  N53  1  0.56647308  0.35081561  0.12117219  1  -0.202151  -0.183735  -8.9e-05  3.260571  0.0
O  O54  1  0.71637215  0.51303498  0.34517506  1  -0.539063  -0.672119  0.00015  2.238743  0.0
O  O55  1  0.20307509  0.48686980  0.15486233  1  -0.538872  -0.67264  0.000134  2.24  0.0
O  O56  1  0.28363113  0.48696557  0.65482499  1  -0.539032  -0.672064  0.00015  2.238814  0.0
O  O57  1  0.79692042  0.51312982  0.84513674  1  -0.538847  -0.672588  0.000134  2.239942  0.0
