# generated using pymatgen
data_Zn2H3C24N6Cl6O8F7
_symmetry_space_group_name_H-M   'P 1'
_cell_length_a   9.96537740
_cell_length_b   11.21709666
_cell_length_c   19.23330927
_cell_angle_alpha   92.99191884
_cell_angle_beta   94.81967899
_cell_angle_gamma   83.21937992
_symmetry_Int_Tables_number   1
_chemical_formula_structural   Zn2H3C24N6Cl6O8F7
_chemical_formula_sum   'Zn2 H3 C24 N6 Cl6 O8 F7'
_cell_volume   2125.42015515
_cell_formula_units_Z   1
loop_
 _symmetry_equiv_pos_site_id
 _symmetry_equiv_pos_as_xyz
  1  'x, y, z'
loop_
 _atom_site_type_symbol
 _atom_site_label
 _atom_site_symmetry_multiplicity
 _atom_site_fract_x
 _atom_site_fract_y
 _atom_site_fract_z
 _atom_site_occupancy
 _atom_site_pbe_bader_charge
 _atom_site_pbe_bader_spin_density
 _atom_site_pbe_cm5_charge
 _atom_site_pbe_ddec_charge
 _atom_site_pbe_ddec_spin_density
 _atom_site_pbe_ddec_sum_bond_order
 _atom_site_pbe_magmom
Zn  Zn0  1  0.36386699  0.51005661  0.49106239  1  1.293958  0  0.676315  0.825928  0  2.417833  0
Zn  Zn1  1  0.64261226  0.48974962  0.50577297  1  1.294672  0  0.67004  0.854993  0  2.39938  0
H  H2  1  0.43029439  0.09923428  0.45896328  1  0.118081  0  0.111743  0.146228  0  0.991067  0
H  H3  1  0.16253921  0.33681298  0.51121213  1  0.228762  0  0.165293  0.175669  0  0.921737  0
H  H4  1  0.32753704  0.48140627  0.13310533  1  0.1494  0  0.123264  0.151806  0  0.97979  0
C  C5  1  0.49244508  0.72962115  0.50984293  1  1.638276  0  0.208697  0.600146  0  4.184102  0
C  C6  1  0.51129614  0.56843152  0.14292487  1  0.044015  0  -0.005408  -0.045309  0  4.026759  0
C  C7  1  0.60565736  0.05475991  0.52339614  1  0.02586  0  0.017131  0.098773  0  4.070528  0
C  C8  1  0.49085817  0.50449464  0.63265657  1  1.632005  0  0.212218  0.616763  0  4.178703  0
C  C9  1  0.51361105  0.13491143  0.49055240  1  0.105446  0  -0.095292  -0.274331  0  3.865628  0
C  C10  1  0.59848445  0.92455651  0.51572582  1  0.473897  0  0.100788  0.195498  0  4.023956  0
C  C11  1  0.49000180  0.86344847  0.52090358  1  0.220235  0  -0.002429  -0.101169  0  3.923794  0
C  C12  1  0.09325490  0.41635182  0.49626685  1  0.666118  0  0.101674  -0.006966  0  3.865532  0
C  C13  1  0.94522965  0.41216690  0.48924070  1  0.836623  0  0.185987  0.260943  0  4.040148  0
C  C14  1  0.50841060  0.26751855  0.49357406  1  1.575245  0  0.211214  0.663166  0  4.140291  0
C  C15  1  0.51212494  0.50992757  0.36502880  1  1.647172  0  0.219909  0.639735  0  4.151444  0
C  C16  1  0.48540463  0.52006664  0.71086390  1  -0.015639  0  -0.010925  -0.081851  0  3.929736  0
C  C17  1  0.39902073  0.61465642  0.73940259  1  0.208347  0  0.003919  0.008056  0  4.060135  0
C  C18  1  0.39989206  0.63232619  0.81188632  1  0.48179  0  0.105355  0.221558  0  4.047298  0
C  C19  1  0.48548189  0.55878045  0.85741455  1  0.17536  0  -0.017421  -0.1862  0  4.042219  0
C  C20  1  0.56969608  0.46448340  0.82762387  1  0.492286  0  0.105272  0.219789  0  4.047223  0
C  C21  1  0.57024998  0.44368976  0.75545093  1  0.213978  0  0.003163  0.0091  0  4.066786  0
C  C22  1  0.50391186  0.58692896  0.06759620  1  0.975264  0  0.249119  0.271694  0  3.965889  0
C  C23  1  0.48970064  0.58033208  0.93382177  1  0.994305  0  0.246262  0.286128  0  3.985067  0
C  C24  1  0.40912086  0.51060663  0.16878987  1  0.07286  0  -0.090909  -0.235047  0  3.979708  0
C  C25  1  0.41187234  0.49148266  0.23931129  1  0.443585  0  0.105565  0.29046  0  4.061448  0
C  C26  1  0.51339948  0.52788348  0.28817489  1  0.056958  0  -0.020797  -0.215846  0  3.95178  0
C  C27  1  0.61423564  0.58526178  0.26163091  1  0.58131  0  0.103093  0.183728  0  4.057472  0
C  C28  1  0.61431471  0.60560755  0.19051916  1  0.529769  0  0.098962  0.140687  0  4.048713  0
N  N29  1  0.61044136  0.59823121  0.96783561  1  -0.507057  0  -0.151053  -0.140745  0  3.161663  0
N  N30  1  0.61806591  0.59963170  0.03674563  1  -0.5377  0  -0.146812  -0.127396  0  3.174475  0
N  N31  1  0.37866400  0.59651554  0.03340270  1  -0.576369  0  -0.150286  -0.13888  0  3.172668  0
N  N32  1  0.37176214  0.59066753  0.96453420  1  -0.48652  0  -0.149462  -0.13534  0  3.175107  0
N  N33  1  0.15442244  0.50411777  0.48091138  1  -0.511896  0  -0.155621  0.039206  0  3.285833  0
N  N34  1  0.85566511  0.47903275  0.52272595  1  -0.890057  0  -0.259708  -0.194221  0  3.34909  0
Cl  Cl35  1  0.29640034  0.71356749  0.68750223  1  -0.151145  0  0.004862  -0.030187  0  1.553515  0
Cl  Cl36  1  0.33761623  0.93898536  0.54274986  1  -0.173406  0  -0.001511  -0.034958  0  1.563989  0
Cl  Cl37  1  0.89668140  0.30405387  0.43079730  1  -0.039854  0  0.124892  0.075985  0  1.501305  0
Cl  Cl38  1  0.91226995  0.57997999  0.58388859  1  0.188018  0  0.171599  0.128545  0  1.49217  0
Cl  Cl39  1  0.67220550  0.32277584  0.72318109  1  -0.154469  0  -5e-06  -0.036834  0  1.530083  0
Cl  Cl40  1  0.74452164  0.09151669  0.57638007  1  -0.150164  0  0.001998  -0.038607  0  1.526841  0
O  O41  1  0.38148500  0.68676432  0.51516042  1  -1.135332  0  -0.315606  -0.531847  0  2.368033  0
O  O42  1  0.60474821  0.67065011  0.49612329  1  -1.148284  0  -0.314565  -0.529808  0  2.358978  0
O  O43  1  0.38399672  0.47901931  0.59731495  1  -1.151548  0  -0.318233  -0.54699  0  2.306444  0
O  O44  1  0.60229330  0.52121840  0.60968002  1  -1.146795  0  -0.309927  -0.53935  0  2.337522  0
O  O45  1  0.39277946  0.32428754  0.47533843  1  -1.159309  0  -0.321126  -0.554872  0  2.251  0
O  O46  1  0.61606610  0.31486990  0.51261656  1  -1.16064  0  -0.318161  -0.558863  0  2.39475  0
O  O47  1  0.39810034  0.53544577  0.39035586  1  -1.138897  0  -0.309863  -0.528842  0  2.309186  0
O  O48  1  0.62384041  0.47217859  0.39760122  1  -1.150983  0  -0.318423  -0.555219  0  2.328975  0
F  F49  1  0.71993507  0.86415996  0.50231121  1  -0.603545  0  -0.087529  -0.104304  0  1.415508  0
F  F50  1  0.06732157  0.60369664  0.45787798  1  -0.282114  0  -0.001958  -0.051904  0  1.220282  0
F  F51  1  0.32025919  0.72605195  0.83874428  1  -0.619875  0  -0.087636  -0.115505  0  1.382647  0
F  F52  1  0.64989452  0.38962779  0.87038044  1  -0.622798  0  -0.090068  -0.116107  0  1.370486  0
F  F53  1  0.31333571  0.43228966  0.26147566  1  -0.622263  0  -0.100821  -0.133032  0  1.323506  0
F  F54  1  0.71356734  0.62676399  0.30494706  1  -0.616677  0  -0.088975  -0.102108  0  1.362171  0
F  F55  1  0.71289923  0.66604960  0.17081278  1  -0.610257  0  -0.087805  -0.111948  0  1.392213  0
