# generated using pymatgen
data_ZnH12C17(OF)6
_symmetry_space_group_name_H-M   'P 1'
_cell_length_a   11.99608084
_cell_length_b   12.89905671
_cell_length_c   13.19429220
_cell_angle_alpha   94.91124589
_cell_angle_beta   89.99945001
_cell_angle_gamma   89.99999649
_symmetry_Int_Tables_number   1
_chemical_formula_structural   ZnH12C17(OF)6
_chemical_formula_sum   'Zn4 H48 C68 O24 F24'
_cell_volume   2034.16413082
_cell_formula_units_Z   4
loop_
 _symmetry_equiv_pos_site_id
 _symmetry_equiv_pos_as_xyz
  1  'x, y, z'
loop_
 _atom_site_type_symbol
 _atom_site_label
 _atom_site_symmetry_multiplicity
 _atom_site_fract_x
 _atom_site_fract_y
 _atom_site_fract_z
 _atom_site_occupancy
 _atom_site_pbe_bader_charge
 _atom_site_pbe_bader_spin_density
 _atom_site_pbe_cm5_charge
 _atom_site_pbe_ddec_charge
 _atom_site_pbe_ddec_spin_density
 _atom_site_pbe_ddec_sum_bond_order
 _atom_site_pbe_magmom
Zn  Zn0  1  0.08089610  0.02657396  0.53445474  1  1.331593  0  0.68434  0.987958  0  2.210856  0
Zn  Zn1  1  0.58089806  0.97341996  0.46554286  1  1.331648  0  0.684304  0.987862  0  2.210891  0
Zn  Zn2  1  0.59955135  0.45323494  0.52616276  1  1.332306  0  0.692887  1.00186  0  2.204329  0
Zn  Zn3  1  0.09954916  0.54676597  0.47383831  1  1.332262  0  0.692855  1.00184  0  2.204361  0
H  H4  1  0.89231409  0.95051162  0.59381593  1  0.605735  0  0.326665  0.411301  0  0.874421  0
H  H5  1  0.39231765  0.04948827  0.40618552  1  0.605669  0  0.326636  0.411313  0  0.874447  0
H  H6  1  0.87514995  0.95571029  0.47320003  1  0.665677  0  0.294391  0.408165  0  0.932442  0
H  H7  1  0.37515058  0.04429117  0.52680170  1  0.66567  0  0.294406  0.408152  0  0.932465  0
H  H8  1  0.08620686  0.24020395  0.55928047  1  0.667161  0  0.294992  0.415054  0  0.916226  0
H  H9  1  0.58620576  0.75979542  0.44071982  1  0.667191  0  0.295019  0.415066  0  0.9162  0
H  H10  1  0.95985884  0.19780527  0.56292870  1  0.632639  0  0.329944  0.418568  0  0.867237  0
H  H11  1  0.45985535  0.80219456  0.43707519  1  0.632527  0  0.329979  0.418552  0  0.867322  0
H  H12  1  0.34776233  0.01369083  0.07773961  1  0.086637  0  0.095448  0.106031  0  1.034072  0
H  H13  1  0.84776864  0.98630521  0.92225584  1  0.086605  0  0.095472  0.106082  0  1.033954  0
H  H14  1  0.23458705  0.05071539  0.23386063  1  0.093601  0  0.10777  0.116156  0  0.991395  0
H  H15  1  0.73459250  0.94927997  0.76613575  1  0.093575  0  0.10776  0.116139  0  0.991417  0
H  H16  1  0.30094991  0.74227946  0.31936659  1  0.107168  0  0.102752  0.108646  0  1.033673  0
H  H17  1  0.80093965  0.25771973  0.68062954  1  0.107568  0  0.102799  0.108694  0  1.033593  0
H  H18  1  0.41678604  0.70556451  0.16744115  1  0.100503  0  0.094488  0.098347  0  1.049572  0
H  H19  1  0.91677084  0.29443847  0.83255504  1  0.100469  0  0.094457  0.098374  0  1.049552  0
H  H20  1  0.55669307  0.95316712  0.85986324  1  0.084865  0  0.092603  0.097662  0  1.051878  0
H  H21  1  0.05669444  0.04683616  0.14013310  1  0.084859  0  0.092598  0.097621  0  1.051874  0
H  H22  1  0.45862352  0.01222345  0.71271376  1  0.079749  0  0.100942  0.106238  0  1.014743  0
H  H23  1  0.95862569  0.98778728  0.28728500  1  0.080383  0  0.100932  0.106318  0  1.014706  0
H  H24  1  0.15551900  0.87109931  0.80726855  1  0.117573  0  0.103498  0.116145  0  1.007566  0
H  H25  1  0.65552390  0.12891166  0.19273363  1  0.117499  0  0.103483  0.116115  0  1.007636  0
H  H26  1  0.25209557  0.81439143  0.95907738  1  0.07869  0  0.091858  0.099338  0  1.043301  0
H  H27  1  0.75209708  0.18561403  0.04092047  1  0.078666  0  0.091815  0.099325  0  1.043266  0
H  H28  1  0.41473472  0.53256852  0.60748978  1  0.635324  0  0.337337  0.424521  0  0.846873  0
H  H29  1  0.91473416  0.46743290  0.39251615  1  0.635413  0  0.337196  0.424402  0  0.847073  0
H  H30  1  0.39678283  0.52903579  0.48681951  1  0.680874  0  0.296352  0.409685  0  0.926378  0
H  H31  1  0.89678349  0.47095863  0.51318826  1  0.680756  0  0.296353  0.409632  0  0.926437  0
H  H32  1  0.61237805  0.24202352  0.52507728  1  0.68377  0  0.301507  0.421273  0  0.906501  0
H  H33  1  0.11238250  0.75797659  0.47492967  1  0.684109  0  0.301528  0.421337  0  0.906408  0
H  H34  1  0.48614600  0.28119076  0.52401405  1  0.651749  0  0.331553  0.415547  0  0.867174  0
H  H35  1  0.98614953  0.71881604  0.47599096  1  0.651777  0  0.331575  0.415572  0  0.867166  0
H  H36  1  0.84415194  0.49481819  0.07634003  1  0.082829  0  0.092964  0.103926  0  1.054039  0
H  H37  1  0.34414834  0.50517939  0.92366544  1  0.08261  0  0.092927  0.103938  0  1.054038  0
H  H38  1  0.72920112  0.45721776  0.22450215  1  0.112161  0  0.108037  0.117529  0  0.991931  0
H  H39  1  0.22919991  0.54278381  0.77550465  1  0.112088  0  0.108034  0.117534  0  0.9919  0
H  H40  1  0.77853653  0.77182550  0.35432946  1  0.120544  0  0.102726  0.113676  0  1.030405  0
H  H41  1  0.27853755  0.22817837  0.64567181  1  0.120859  0  0.102721  0.113626  0  1.030427  0
H  H42  1  0.89964433  0.80706650  0.21227827  1  0.083177  0  0.095699  0.10102  0  1.043194  0
H  H43  1  0.39964636  0.19293027  0.78772134  1  0.083149  0  0.095727  0.101034  0  1.043107  0
H  H44  1  0.06882441  0.52738300  0.89298061  1  0.109298  0  0.091517  0.09612  0  1.058419  0
H  H45  1  0.56882269  0.47261327  0.10702033  1  0.109341  0  0.091535  0.096177  0  1.058387  0
H  H46  1  0.98490945  0.45364482  0.73263242  1  0.094271  0  0.102475  0.105698  0  1.012809  0
H  H47  1  0.48490944  0.54635032  0.26737009  1  0.094185  0  0.102474  0.105731  0  1.012771  0
H  H48  1  0.67853398  0.61309757  0.80853514  1  0.1207  0  0.098135  0.111709  0  1.03057  0
H  H49  1  0.17852978  0.38689782  0.19147082  1  0.120541  0  0.098108  0.111695  0  1.030562  0
H  H50  1  0.75978382  0.68588529  0.97187364  1  0.104689  0  0.091048  0.098346  0  1.046914  0
H  H51  1  0.25978218  0.31411159  0.02812947  1  0.104673  0  0.091044  0.098342  0  1.046948  0
C  C52  1  0.33867488  0.95414474  0.13089956  1  -0.084433  0  -0.091043  -0.120858  0  3.949107  0
C  C53  1  0.83867849  0.04585365  0.86909693  1  0.042286  0  -0.09105  -0.120912  0  3.949102  0
C  C54  1  0.27470519  0.97511901  0.21839149  1  0.037786  0  -0.085945  -0.09053  0  3.961742  0
C  C55  1  0.77471223  0.02487554  0.78160296  1  -0.089099  0  -0.085895  -0.090424  0  3.961723  0
C  C56  1  0.26092033  0.89879389  0.28697571  1  -0.015616  0  -0.025076  -0.050671  0  4.000875  0
C  C57  1  0.76091725  0.10120222  0.71302278  1  -0.015301  0  -0.025177  -0.050834  0  4.001254  0
C  C58  1  0.19381624  0.91829244  0.38235080  1  1.525424  0  0.204728  0.566518  0  4.234095  0
C  C59  1  0.69381750  0.08169828  0.61764706  1  1.52495  0  0.204869  0.566777  0  4.234193  0
C  C60  1  0.31237308  0.80188595  0.26650820  1  -0.069532  0  -0.085338  -0.082287  0  3.97024  0
C  C61  1  0.81235977  0.19811323  0.73348858  1  -0.070632  0  -0.085357  -0.082315  0  3.9704  0
C  C62  1  0.37744646  0.78145433  0.17988024  1  -0.018895  0  -0.093211  -0.124759  0  3.964603  0
C  C63  1  0.87743557  0.21854792  0.82011244  1  -0.018503  0  -0.093165  -0.124783  0  3.964435  0
C  C64  1  0.39104709  0.85716842  0.11087339  1  -0.05219  0  -0.013061  0.088871  0  3.927034  0
C  C65  1  0.89104382  0.14283381  0.88912069  1  -0.051743  0  -0.013158  0.088846  0  3.926945  0
C  C66  1  0.46599124  0.84055533  0.01609633  1  0.048062  0  -0.012084  -0.272994  0  3.862117  0
C  C67  1  0.96599029  0.15945073  0.98389894  1  0.048045  0  -0.012084  -0.273185  0  3.862299  0
C  C68  1  0.57817689  0.89626525  0.04511037  1  1.744676  0  0.30378  0.676016  0  3.971501  0
C  C69  1  0.07817382  0.10373491  0.95488097  1  1.744069  0  0.303665  0.676107  0  3.971326  0
C  C70  1  0.49116435  0.72377891  0.98609489  1  1.70926  0  0.304876  0.67418  0  3.964732  0
C  C71  1  0.99116113  0.27622792  0.01389568  1  1.709095  0  0.304755  0.673983  0  3.964735  0
C  C72  1  0.41067422  0.88139332  0.92206362  1  -0.050542  0  -0.017819  0.084328  0  3.947818  0
C  C73  1  0.91067701  0.11861512  0.07793385  1  -0.050182  0  -0.017848  0.084453  0  3.947862  0
C  C74  1  0.46855767  0.93523555  0.85071409  1  0.012173  0  -0.099017  -0.138075  0  3.984047  0
C  C75  1  0.96855970  0.06477751  0.14928479  1  0.012297  0  -0.099062  -0.138057  0  3.984008  0
C  C76  1  0.41301080  0.96901439  0.76681749  1  -0.025807  0  -0.084156  -0.077845  0  3.956812  0
C  C77  1  0.91301362  0.03099249  0.23317907  1  -0.0266  0  -0.084088  -0.077966  0  3.956823  0
C  C78  1  0.29954883  0.94768932  0.75184004  1  -0.059989  0  -0.020011  -0.040277  0  3.980221  0
C  C79  1  0.79955065  0.05231688  0.24815594  1  -0.060524  0  -0.020064  -0.040201  0  3.98004  0
C  C80  1  0.23648951  0.99022213  0.66748364  1  1.546788  0  0.212166  0.586512  0  4.186692  0
C  C81  1  0.73649295  0.00978489  0.33251675  1  1.54717  0  0.212133  0.586337  0  4.186814  0
C  C82  1  0.24315338  0.88909043  0.82027444  1  0.035633  0  -0.082496  -0.072103  0  3.956054  0
C  C83  1  0.74315593  0.11091893  0.17972381  1  0.036214  0  -0.082388  -0.071923  0  3.95599  0
C  C84  1  0.29782079  0.85733517  0.90503604  1  -0.042889  0  -0.096744  -0.131412  0  3.974368  0
C  C85  1  0.79782339  0.14267181  0.09496078  1  -0.043216  0  -0.096749  -0.131565  0  3.974418  0
C  C86  1  0.83132409  0.55512720  0.13789416  1  -0.061423  0  -0.096389  -0.12876  0  3.972467  0
C  C87  1  0.33132281  0.44487351  0.86210865  1  -0.061189  0  -0.096406  -0.128855  0  3.972097  0
C  C88  1  0.76586728  0.53407013  0.22051040  1  -0.028384  0  -0.087095  -0.089583  0  3.967891  0
C  C89  1  0.26586437  0.46593142  0.77949230  1  -0.028416  0  -0.087112  -0.089684  0  3.967859  0
C  C90  1  0.74700153  0.61137450  0.30001399  1  -0.037248  0  -0.021251  -0.045033  0  3.99289  0
C  C91  1  0.24699863  0.38862473  0.69999095  1  -0.037147  0  -0.021138  -0.04475  0  3.992896  0
C  C92  1  0.68155217  0.58590442  0.39124784  1  1.548697  0  0.210956  0.576521  0  4.219046  0
C  C93  1  0.18155273  0.41409797  0.60876021  1  1.548539  0  0.210874  0.576544  0  4.219034  0
C  C94  1  0.79395939  0.71005970  0.29430959  1  -0.079964  0  -0.08518  -0.083278  0  3.944839  0
C  C95  1  0.29396061  0.28994494  0.70569161  1  -0.080341  0  -0.085251  -0.083346  0  3.945057  0
C  C96  1  0.86237133  0.73019468  0.21266909  1  0.020782  0  -0.095656  -0.129979  0  3.960213  0
C  C97  1  0.36237085  0.26980524  0.78733035  1  0.020755  0  -0.095639  -0.129899  0  3.960076  0
C  C98  1  0.88244330  0.65251797  0.13391443  1  -0.041383  0  -0.014377  0.089125  0  3.93646  0
C  C99  1  0.38244616  0.34747725  0.86608823  1  -0.041281  0  -0.014296  0.089148  0  3.935965  0
C  C100  1  0.96502740  0.66405980  0.04621880  1  0.057316  0  -0.012679  -0.276029  0  3.859715  0
C  C101  1  0.46503017  0.33593613  0.95378547  1  0.05724  0  -0.01269  -0.276029  0  3.859461  0
C  C102  1  0.98882777  0.77935447  0.02699929  1  1.703411  0  0.3037  0.675428  0  3.967179  0
C  C103  1  0.48883201  0.22064456  0.97300049  1  1.703279  0  0.303782  0.675658  0  3.966784  0
C  C104  1  0.07629447  0.61459108  0.07970877  1  1.741416  0  0.303779  0.679701  0  3.965587  0
C  C105  1  0.57629585  0.38540595  0.92029217  1  1.740724  0  0.303807  0.67969  0  3.965529  0
C  C106  1  0.91985958  0.61189730  0.94506083  1  -0.111494  0  -0.016046  0.088183  0  3.944414  0
C  C107  1  0.41986015  0.38810100  0.05494479  1  -0.111366  0  -0.016049  0.088238  0  3.944394  0
C  C108  1  0.98300390  0.54692803  0.87652356  1  -0.052343  0  -0.099631  -0.142405  0  3.984581  0
C  C109  1  0.48300374  0.45307022  0.12347772  1  -0.052397  0  -0.099766  -0.142642  0  3.984672  0
C  C110  1  0.93598152  0.50481768  0.78544943  1  -0.038335  0  -0.08181  -0.072858  0  3.951886  0
C  C111  1  0.43597957  0.49518061  0.21455453  1  -0.038299  0  -0.081777  -0.072806  0  3.951766  0
C  C112  1  0.82572981  0.52768354  0.76088880  1  -0.012514  0  -0.020176  -0.038726  0  3.969066  0
C  C113  1  0.32572760  0.47231406  0.23911531  1  -0.012051  0  -0.020146  -0.038784  0  3.969091  0
C  C114  1  0.77305228  0.48076020  0.66504019  1  1.57684  0  0.216331  0.593798  0  4.185312  0
C  C115  1  0.27304739  0.51923745  0.33496362  1  1.576577  0  0.216402  0.593885  0  4.18536  0
C  C116  1  0.76373087  0.59475660  0.82820077  1  -0.002803  0  -0.086204  -0.077553  0  3.964906  0
C  C117  1  0.26372688  0.40523871  0.17180520  1  -0.003057  0  -0.086167  -0.077429  0  3.964784  0
C  C118  1  0.80988463  0.63564803  0.91944550  1  -0.023629  0  -0.097691  -0.131158  0  3.970438  0
C  C119  1  0.30988160  0.36434881  0.08056020  1  -0.0235  0  -0.097691  -0.131245  0  3.970542  0
O  O120  1  0.19046149  0.84982548  0.44486542  1  -1.176012  0  -0.318296  -0.568894  0  2.216797  0
O  O121  1  0.69044923  0.15016602  0.55513405  1  -1.176  0  -0.318398  -0.569095  0  2.216888  0
O  O122  1  0.14480520  0.00789492  0.39683260  1  -1.152275  0  -0.328323  -0.570729  0  2.29017  0
O  O123  1  0.64481821  0.99209195  0.60316157  1  -1.152052  0  -0.32831  -0.570679  0  2.290201  0
O  O124  1  0.13197291  0.96964007  0.66085178  1  -1.149075  0  -0.319253  -0.54491  0  2.278588  0
O  O125  1  0.63197628  0.03036315  0.33914541  1  -1.149287  0  -0.319233  -0.544829  0  2.27871  0
O  O126  1  0.28374947  0.04789253  0.60672957  1  -1.208025  0  -0.320533  -0.588329  0  2.252799  0
O  O127  1  0.78375469  0.95211290  0.39326724  1  -1.207934  0  -0.320486  -0.588263  0  2.252913  0
O  O128  1  0.93227331  0.94977676  0.52961251  1  -1.23086  0  -0.564827  -0.76337  0  2.0987  0
O  O129  1  0.43227620  0.05022154  0.47038997  1  -1.230833  0  -0.564819  -0.763395  0  2.098739  0
O  O130  1  0.03725750  0.17647742  0.56750999  1  -1.254312  0  -0.565885  -0.774245  0  2.111466  0
O  O131  1  0.53725398  0.82352044  0.43248681  1  -1.254229  0  -0.565944  -0.774203  0  2.111556  0
O  O132  1  0.66838783  0.48739762  0.39990567  1  -1.144178  0  -0.327802  -0.575274  0  2.319141  0
O  O133  1  0.16838097  0.51260245  0.60010078  1  -1.144189  0  -0.327741  -0.575285  0  2.319092  0
O  O134  1  0.64484234  0.65564447  0.45540876  1  -1.190849  0  -0.317511  -0.561013  0  2.187293  0
O  O135  1  0.14484442  0.34436028  0.54459754  1  -1.190635  0  -0.317558  -0.561124  0  2.187271  0
O  O136  1  0.66796384  0.49862561  0.65572503  1  -1.148044  0  -0.324543  -0.5686  0  2.33527  0
O  O137  1  0.16795718  0.50137524  0.34427997  1  -1.148009  0  -0.324572  -0.568707  0  2.335445  0
O  O138  1  0.83019296  0.42595702  0.59985963  1  -1.211841  0  -0.32896  -0.585038  0  2.185142  0
O  O139  1  0.33019154  0.57403202  0.40014675  1  -1.211806  0  -0.328988  -0.58501  0  2.185086  0
O  O140  1  0.43745165  0.49560624  0.54352274  1  -1.264418  0  -0.560333  -0.763739  0  2.103281  0
O  O141  1  0.93744957  0.50439205  0.45648576  1  -1.264484  0  -0.560223  -0.763588  0  2.103394  0
O  O142  1  0.56176412  0.29985471  0.50634956  1  -1.273689  0  -0.560775  -0.754601  0  2.082832  0
O  O143  1  0.06176671  0.70014700  0.49365493  1  -1.273994  0  -0.560814  -0.754703  0  2.082698  0
F  F144  1  0.66141750  0.87223076  0.97601078  1  -0.619428  0  -0.09316  -0.203811  0  1.349123  0
F  F145  1  0.16141258  0.12776388  0.02398239  1  -0.619251  0  -0.093127  -0.203772  0  1.34905  0
F  F146  1  0.61672900  0.87106032  0.13646562  1  -0.620082  0  -0.092584  -0.192465  0  1.34926  0
F  F147  1  0.11673356  0.12894215  0.86352557  1  -0.619697  0  -0.092641  -0.192577  0  1.349182  0
F  F148  1  0.56463164  0.00106697  0.05128859  1  -0.641983  0  -0.082834  -0.193672  0  1.413025  0
F  F149  1  0.06462606  0.99893321  0.94869907  1  -0.641979  0  -0.082682  -0.193599  0  1.413008  0
F  F150  1  0.53792428  0.70977958  0.89199445  1  -0.612573  0  -0.088009  -0.1913  0  1.353681  0
F  F151  1  0.03792430  0.29022763  0.10799253  1  -0.612359  0  -0.087951  -0.191214  0  1.353716  0
F  F152  1  0.56244506  0.68107827  0.05156044  1  -0.619498  0  -0.088518  -0.1991  0  1.36147  0
F  F153  1  0.06243788  0.31892347  0.94842131  1  -0.619471  0  -0.08847  -0.198991  0  1.36137  0
F  F154  1  0.39574820  0.66649152  0.98284181  1  -0.61679  0  -0.080307  -0.187828  0  1.390187  0
F  F155  1  0.89574244  0.33351459  0.01715939  1  -0.616994  0  -0.080256  -0.187791  0  1.390234  0
F  F156  1  0.04180952  0.78533404  0.93644133  1  -0.616469  0  -0.087465  -0.190764  0  1.362071  0
F  F157  1  0.54180744  0.21466303  0.06355840  1  -0.616491  0  -0.087498  -0.190821  0  1.362024  0
F  F158  1  0.05453475  0.82974329  0.09987501  1  -0.623677  0  -0.09216  -0.20308  0  1.359519  0
F  F159  1  0.55453135  0.17025221  0.90012371  1  -0.623722  0  -0.092162  -0.203093  0  1.35942  0
F  F160  1  0.89265972  0.83481716  0.02297053  1  -0.616415  0  -0.084949  -0.192729  0  1.375554  0
F  F161  1  0.39265975  0.16518039  0.97703072  1  -0.616346  0  -0.084995  -0.192844  0  1.375321  0
F  F162  1  0.16393592  0.63297940  0.01735215  1  -0.621202  0  -0.09486  -0.206937  0  1.346018  0
F  F163  1  0.66393664  0.36701445  0.98264927  1  -0.620873  0  -0.09482  -0.206902  0  1.346077  0
F  F164  1  0.06548595  0.50979494  0.07953591  1  -0.639344  0  -0.085652  -0.195882  0  1.41067  0
F  F165  1  0.56548564  0.49020367  0.92046298  1  -0.639285  0  -0.085664  -0.195886  0  1.410605  0
F  F166  1  0.10658886  0.65110409  0.17522602  1  -0.610983  0  -0.094469  -0.196163  0  1.359713  0
F  F167  1  0.60659208  0.34889604  0.82477188  1  -0.610695  0  -0.094508  -0.196193  0  1.359711  0
