# generated using pymatgen
data_TbH16C24N3O8
_symmetry_space_group_name_H-M   'P 1'
_cell_length_a   9.32213341
_cell_length_b   11.28319462
_cell_length_c   12.53035623
_cell_angle_alpha   65.88484333
_cell_angle_beta   73.50732124
_cell_angle_gamma   86.24475254
_symmetry_Int_Tables_number   1
_chemical_formula_structural   TbH16C24N3O8
_chemical_formula_sum   'Tb2 H32 C48 N6 O16'
_cell_volume   1151.54411251
_cell_formula_units_Z   2
loop_
 _symmetry_equiv_pos_site_id
 _symmetry_equiv_pos_as_xyz
  1  'x, y, z'
loop_
 _atom_site_type_symbol
 _atom_site_label
 _atom_site_symmetry_multiplicity
 _atom_site_fract_x
 _atom_site_fract_y
 _atom_site_fract_z
 _atom_site_occupancy
 _atom_site_hle17_bader_spin_density
 _atom_site_hle17_ddec_charge
 _atom_site_hle17_ddec_spin_density
 _atom_site_hle17_ddec_sum_bond_order
 _atom_site_hle17_magmom
 _atom_site_hse06_10hf_bader_spin_density
 _atom_site_hse06_10hf_ddec_charge
 _atom_site_hse06_10hf_ddec_spin_density
 _atom_site_hse06_10hf_ddec_sum_bond_order
 _atom_site_hse06_10hf_magmom
 _atom_site_hse06_bader_spin_density
 _atom_site_hse06_ddec_charge
 _atom_site_hse06_ddec_spin_density
 _atom_site_hse06_ddec_sum_bond_order
 _atom_site_hse06_magmom
 _atom_site_pbe_bader_spin_density
 _atom_site_pbe_cm5_charge
 _atom_site_pbe_ddec_charge
 _atom_site_pbe_ddec_spin_density
 _atom_site_pbe_ddec_sum_bond_order
 _atom_site_pbe_magmom
Tb  Tb0  1  0.74641645  0.03298020  0.01264726  1  0  2.304121  0  1.626355  0  0  2.231223  0  1.961376  0  0  2.277462  0  1.918288  0  0  1.513801  2.124361  0  2.127227  0
Tb  Tb1  1  0.25358485  0.96702044  0.98735397  1  0  2.304104  0  1.626499  0  0  2.231222  0  1.961529  0  0  2.277463  0  1.918446  0  0  1.513773  2.124356  0  2.127412  0
H  H2  1  0.12841303  0.88073388  0.29470211  1  0  0.11694  0  0.980382  0  0  0.122882  0  1.047063  0  0  0.127302  0  1.043463  0  0  0.114065  0.119949  0  1.048962  0
H  H3  1  0.87158737  0.11926967  0.70529583  1  0  0.116879  0  0.980535  0  0  0.122842  0  1.047183  0  0  0.12726  0  1.043588  0  0  0.114032  0.119906  0  1.049082  0
H  H4  1  0.05141263  0.84985340  0.66192372  1  0  0.095021  0  0.982767  0  0  0.105325  0  1.043688  0  0  0.10715  0  1.044509  0  0  0.103661  0.104023  0  1.043203  0
H  H5  1  0.94858517  0.15014531  0.33807896  1  0  0.094971  0  0.982886  0  0  0.10534  0  1.043734  0  0  0.107164  0  1.044559  0  0  0.103662  0.104037  0  1.043248  0
H  H6  1  0.29893384  0.96255333  0.60270845  1  0  0.110287  0  0.931299  0  0  0.123348  0  0.98226  0  0  0.12661  0  0.981032  0  0  0.114483  0.120845  0  0.983786  0
H  H7  1  0.70106388  0.03744441  0.39729620  1  0  0.110322  0  0.931274  0  0  0.12339  0  0.982219  0  0  0.126653  0  0.980989  0  0  0.114495  0.120882  0  0.983742  0
H  H8  1  0.46669532  0.02770615  0.38779544  1  0  0.106725  0  0.944759  0  0  0.11678  0  1.004515  0  0  0.120074  0  1.001958  0  0  0.111721  0.113888  0  1.007636  0
H  H9  1  0.53330156  0.97229549  0.61221032  1  0  0.106685  0  0.944731  0  0  0.116776  0  1.004467  0  0  0.12007  0  1.00191  0  0  0.111726  0.113884  0  1.007593  0
H  H10  1  0.80765932  0.66989710  0.38725149  1  0  0.1187  0  0.960358  0  0  0.125526  0  1.025794  0  0  0.129219  0  1.022961  0  0  0.111621  0.122739  0  1.028022  0
H  H11  1  0.19235106  0.33008987  0.61275212  1  0  0.118612  0  0.960267  0  0  0.125411  0  1.025767  0  0  0.129086  0  1.022987  0  0  0.111575  0.122623  0  1.027996  0
H  H12  1  0.62101652  0.27676053  0.53202474  1  0  0.096089  0  0.970854  0  0  0.106049  0  1.031449  0  0  0.107688  0  1.032485  0  0  0.105291  0.104523  0  1.031402  0
H  H13  1  0.37896779  0.72323726  0.46798030  1  0  0.096117  0  0.970883  0  0  0.10603  0  1.031531  0  0  0.107671  0  1.032565  0  0  0.105258  0.104505  0  1.031481  0
H  H14  1  0.50466957  0.33929491  0.36181827  1  0  0.110378  0  0.940105  0  0  0.118558  0  1.000142  0  0  0.121752  0  0.999057  0  0  0.109662  0.116015  0  1.001711  0
H  H15  1  0.49532972  0.66070863  0.63817751  1  0  0.110355  0  0.940038  0  0  0.118551  0  1.000059  0  0  0.121746  0  0.998974  0  0  0.109646  0.116009  0  1.00163  0
H  H16  1  0.54270813  0.56589991  0.20365252  1  0  0.105572  0  0.944507  0  0  0.114301  0  1.007092  0  0  0.117566  0  1.004951  0  0  0.11053  0.111783  0  1.008919  0
H  H17  1  0.45730326  0.43410066  0.79634184  1  0  0.105575  0  0.944477  0  0  0.114285  0  1.007092  0  0  0.117539  0  1.004973  0  0  0.110494  0.11177  0  1.008915  0
H  H18  1  0.74581038  0.80303535  0.91014726  1  0  0.116278  0  0.978553  0  0  0.120649  0  1.04845  0  0  0.124628  0  1.045694  0  0  0.114766  0.117689  0  1.050457  0
H  H19  1  0.25419018  0.19697013  0.08984595  1  0  0.116206  0  0.978668  0  0  0.120576  0  1.04857  0  0  0.124565  0  1.0458  0  0  0.11471  0.117622  0  1.050568  0
H  H20  1  0.81839301  0.47111484  0.81569359  1  0  0.112311  0  0.954628  0  0  0.120927  0  1.016971  0  0  0.124554  0  1.013821  0  0  0.110972  0.117924  0  1.01983  0
H  H21  1  0.18161436  0.52889156  0.18429306  1  0  0.112376  0  0.95459  0  0  0.121015  0  1.016885  0  0  0.124647  0  1.013728  0  0  0.111013  0.118017  0  1.019745  0
H  H22  1  0.08517271  0.47933866  0.81366578  1  0  0.089569  0  0.968722  0  0  0.099395  0  1.028992  0  0  0.101184  0  1.030937  0  0  0.099449  0.097786  0  1.028326  0
H  H23  1  0.91482762  0.52066392  0.18633414  1  0  0.089564  0  0.968686  0  0  0.099394  0  1.028958  0  0  0.101184  0  1.030902  0  0  0.09944  0.097784  0  1.028295  0
H  H24  1  0.18176124  0.64948722  0.85986712  1  0  0.113277  0  0.942712  0  0  0.118912  0  1.010609  0  0  0.122521  0  1.007741  0  0  0.110245  0.11747  0  1.010668  0
H  H25  1  0.81823416  0.35050958  0.14014156  1  0  0.11323  0  0.942659  0  0  0.118854  0  1.010575  0  0  0.122462  0  1.007714  0  0  0.110199  0.117403  0  1.010623  0
H  H26  1  0.02941643  0.18153819  0.81628839  1  0  0.446282  0  0.851286  0  0  0.416259  0  0.912901  0  0  0.426963  0  0.897261  0  0  0.302801  0.40767  0  0.925276  0
H  H27  1  0.97058598  0.81846245  0.18371340  1  0  0.44632  0  0.851231  0  0  0.4163  0  0.912844  0  0  0.427002  0  0.897207  0  0  0.302834  0.407714  0  0.925213  0
H  H28  1  0.59506673  0.27387092  0.00485235  1  0  0.429821  0  0.858081  0  0  0.402696  0  0.916862  0  0  0.411252  0  0.904419  0  0  0.308405  0.396469  0  0.925662  0
H  H29  1  0.40493487  0.72613359  0.99514419  1  0  0.429854  0  0.858019  0  0  0.402738  0  0.91679  0  0  0.411292  0  0.904351  0  0  0.308436  0.396513  0  0.925589  0
H  H30  1  0.52905887  0.22938042  0.92159693  1  0  0.447508  0  0.845635  0  0  0.416842  0  0.909009  0  0  0.427784  0  0.892919  0  0  0.303802  0.408156  0  0.921573  0
H  H31  1  0.47094685  0.77061921  0.07840056  1  0  0.447414  0  0.845762  0  0  0.416739  0  0.909157  0  0  0.42768  0  0.893067  0  0  0.30374  0.408054  0  0.92172  0
H  H32  1  0.89430674  0.27155032  0.77723724  1  0  0.435615  0  0.860464  0  0  0.405001  0  0.924254  0  0  0.414977  0  0.909493  0  0  0.300444  0.397381  0  0.935446  0
H  H33  1  0.10569427  0.72844643  0.22276629  1  0  0.435627  0  0.860451  0  0  0.405051  0  0.924168  0  0  0.415025  0  0.909409  0  0  0.300474  0.397437  0  0.935347  0
C  C34  1  0.41093460  0.98838930  0.20453490  1  0  0.713414  0  3.875366  0  0  0.666357  0  4.171301  0  0  0.701314  0  4.16046  0  0  0.229619  0.641748  0  4.17322  0
C  C35  1  0.58907834  0.01161813  0.79546936  1  0  0.713288  0  3.875664  0  0  0.666177  0  4.171651  0  0  0.701139  0  4.160808  0  0  0.229508  0.641565  0  4.173584  0
C  C36  1  0.30786540  0.95643197  0.33021043  1  0  -0.075415  0  3.737199  0  0  -0.049726  0  3.96935  0  0  -0.059454  0  3.99276  0  0  -0.014487  -0.044149  0  3.95523  0
C  C37  1  0.69212807  0.04356870  0.66979162  1  0  -0.075479  0  3.73744  0  0  -0.049716  0  3.969551  0  0  -0.059448  0  3.992965  0  0  -0.014487  -0.044139  0  3.955434  0
C  C38  1  0.16586483  0.89719227  0.36258004  1  0  -0.08275  0  3.667089  0  0  -0.116132  0  3.908099  0  0  -0.114821  0  3.92647  0  0  -0.065186  -0.116421  0  3.895583  0
C  C39  1  0.83413324  0.10281034  0.63742353  1  0  -0.082701  0  3.667099  0  0  -0.116114  0  3.908073  0  0  -0.114811  0  3.926453  0  0  -0.065167  -0.116399  0  3.895557  0
C  C40  1  0.07489488  0.85677085  0.48303719  1  0  0.012142  0  3.892303  0  0  0.036972  0  4.12214  0  0  0.033187  0  4.144042  0  0  0.000475  0.039611  0  4.107076  0
C  C41  1  0.92510182  0.14322785  0.51696333  1  0  0.012278  0  3.892253  0  0  0.037107  0  4.122104  0  0  0.033328  0  4.144006  0  0  0.000551  0.039746  0  4.107042  0
C  C42  1  0.93201759  0.79184068  0.51813765  1  0  0.272613  0  3.744497  0  0  0.259987  0  4.011351  0  0  0.27023  0  4.031215  0  0  0.190463  0.252993  0  3.99789  0
C  C43  1  0.06798539  0.20815215  0.48186293  1  0  0.272552  0  3.744758  0  0  0.259913  0  4.011614  0  0  0.270151  0  4.031476  0  0  0.190379  0.25292  0  3.998155  0
C  C44  1  0.12392725  0.88004996  0.56940163  1  0  -0.069065  0  3.705708  0  0  -0.095285  0  3.952239  0  0  -0.09412  0  3.972161  0  0  -0.070828  -0.095871  0  3.938415  0
C  C45  1  0.87606957  0.11995069  0.43059973  1  0  -0.069139  0  3.705851  0  0  -0.095421  0  3.952385  0  0  -0.094256  0  3.972306  0  0  -0.070873  -0.096005  0  3.938557  0
C  C46  1  0.26373434  0.94270221  0.53545139  1  0  -0.067975  0  3.742281  0  0  -0.080045  0  3.997003  0  0  -0.084922  0  4.017748  0  0  -0.079395  -0.076918  0  3.983132  0
C  C47  1  0.73625815  0.05730041  0.46455094  1  0  -0.067984  0  3.742088  0  0  -0.080045  0  3.996846  0  0  -0.08492  0  4.017583  0  0  -0.07939  -0.076913  0  3.98297  0
C  C48  1  0.35620731  0.97978929  0.41652229  1  0  -0.037151  0  3.683111  0  0  -0.064542  0  3.930659  0  0  -0.061256  0  3.948434  0  0  -0.065676  -0.066551  0  3.920057  0
C  C49  1  0.64379068  0.02021235  0.58348245  1  0  -0.037043  0  3.683081  0  0  -0.064515  0  3.930662  0  0  -0.061225  0  3.948439  0  0  -0.065663  -0.066528  0  3.920064  0
C  C50  1  0.69901266  0.76878572  0.19178546  1  0  0.657141  0  3.898862  0  0  0.606517  0  4.194017  0  0  0.640483  0  4.186822  0  0  0.206845  0.58412  0  4.19209  0
C  C51  1  0.30099868  0.23121489  0.80821768  1  0  0.657089  0  3.898842  0  0  0.606456  0  4.193995  0  0  0.640424  0  4.186799  0  0  0.206789  0.58406  0  4.192065  0
C  C52  1  0.67813675  0.63185339  0.28505042  1  0  -0.075367  0  3.757744  0  0  -0.048486  0  3.992157  0  0  -0.058223  0  4.014749  0  0  -0.015373  -0.043001  0  3.9775  0
C  C53  1  0.32186980  0.36814234  0.71494834  1  0  -0.075295  0  3.757555  0  0  -0.048405  0  3.99197  0  0  -0.05813  0  4.014552  0  0  -0.015343  -0.042919  0  3.977313  0
C  C54  1  0.74431115  0.59733561  0.37998084  1  0  -0.068015  0  3.658733  0  0  -0.103767  0  3.901368  0  0  -0.101153  0  3.918591  0  0  -0.060972  -0.104398  0  3.88936  0
C  C55  1  0.25569518  0.40265721  0.62002064  1  0  -0.067841  0  3.658382  0  0  -0.103585  0  3.901045  0  0  -0.100985  0  3.918262  0  0  -0.06096  -0.104217  0  3.889035  0
C  C56  1  0.72398410  0.46899918  0.46833221  1  0  0.009937  0  3.88116  0  0  0.03457  0  4.113897  0  0  0.029748  0  4.136214  0  0  0.005423  0.036945  0  4.098856  0
C  C57  1  0.27601665  0.53099366  0.53166884  1  0  0.009913  0  3.880993  0  0  0.034576  0  4.113711  0  0  0.029765  0  4.136019  0  0  0.005478  0.036954  0  4.098669  0
C  C58  1  0.79045442  0.43192016  0.56584894  1  0  0.313384  0  3.719889  0  0  0.292948  0  3.988446  0  0  0.305032  0  4.007288  0  0  0.213567  0.284831  0  3.975666  0
C  C59  1  0.20954061  0.56807075  0.43415162  1  0  0.313349  0  3.720279  0  0  0.292914  0  3.988824  0  0  0.304995  0  4.007667  0  0  0.213547  0.284797  0  3.976044  0
C  C60  1  0.63729492  0.37569728  0.46208896  1  0  -0.058237  0  3.690426  0  0  -0.083108  0  3.93429  0  0  -0.082039  0  3.955912  0  0  -0.062521  -0.083303  0  3.919968  0
C  C61  1  0.36269827  0.62429949  0.53791380  1  0  -0.058337  0  3.690585  0  0  -0.083197  0  3.934467  0  0  -0.082129  0  3.95609  0  0  -0.062567  -0.08339  0  3.920142  0
C  C62  1  0.57255245  0.41090295  0.36673221  1  0  -0.064832  0  3.730147  0  0  -0.076644  0  3.984955  0  0  -0.082216  0  4.007136  0  0  -0.078948  -0.073571  0  3.970082  0
C  C63  1  0.42744439  0.58909769  0.63326596  1  0  -0.06471  0  3.730118  0  0  -0.076494  0  3.984896  0  0  -0.08207  0  4.007079  0  0  -0.07887  -0.073424  0  3.970025  0
C  C64  1  0.59293788  0.53835737  0.27842066  1  0  -0.032561  0  3.671416  0  0  -0.061217  0  3.920417  0  0  -0.058216  0  3.938813  0  0  -0.0661  -0.06241  0  3.907888  0
C  C65  1  0.40706901  0.46164323  0.72157781  1  0  -0.032682  0  3.671313  0  0  -0.061346  0  3.920351  0  0  -0.058344  0  3.938745  0  0  -0.06612  -0.062536  0  3.907822  0
C  C66  1  0.02663336  0.84015223  0.91286947  1  0  0.711815  0  3.877292  0  0  0.666477  0  4.16954  0  0  0.701855  0  4.158261  0  0  0.231924  0.641686  0  4.170902  0
C  C67  1  0.97334474  0.15985239  0.08713352  1  0  0.711616  0  3.877511  0  0  0.66654  0  4.169408  0  0  0.701918  0  4.158126  0  0  0.231997  0.641746  0  4.170774  0
C  C68  1  0.96913420  0.73628056  0.88739130  1  0  -0.078195  0  3.747926  0  0  -0.049971  0  3.97521  0  0  -0.060279  0  3.998029  0  0  -0.013596  -0.044089  0  3.962497  0
C  C69  1  0.03086831  0.26372103  0.11260613  1  0  -0.078234  0  3.748  0  0  -0.050187  0  3.97537  0  0  -0.0605  0  3.998195  0  0  -0.013658  -0.044299  0  3.962649  0
C  C70  1  0.81936357  0.73201505  0.88887426  1  0  -0.079206  0  3.664734  0  0  -0.113921  0  3.906659  0  0  -0.112209  0  3.925864  0  0  -0.066512  -0.115587  0  3.895673  0
C  C71  1  0.18063586  0.26799044  0.11112157  1  0  -0.079053  0  3.664707  0  0  -0.113709  0  3.906665  0  0  -0.111989  0  3.92586  0  0  -0.066371  -0.115378  0  3.895683  0
C  C72  1  0.76534897  0.63611218  0.86352298  1  0  0.015179  0  3.882794  0  0  0.039355  0  4.114461  0  0  0.034676  0  4.137228  0  0  0.002829  0.042145  0  4.09916  0
C  C73  1  0.23465458  0.36388844  0.13647460  1  0  0.015298  0  3.88273  0  0  0.039358  0  4.114578  0  0  0.034664  0  4.137347  0  0  0.002761  0.042144  0  4.099282  0
C  C74  1  0.61143998  0.63482995  0.86698154  1  0  0.293057  0  3.726901  0  0  0.277768  0  3.989627  0  0  0.288828  0  4.008107  0  0  0.206054  0.27029  0  3.977573  0
C  C75  1  0.38855410  0.36517846  0.13300874  1  0  0.292929  0  3.726394  0  0  0.27767  0  3.989178  0  0  0.288741  0  4.007657  0  0  0.205944  0.270187  0  3.97712  0
C  C76  1  0.86106570  0.54445536  0.83623409  1  0  -0.048758  0  3.660915  0  0  -0.075575  0  3.905416  0  0  -0.073254  0  3.922661  0  0  -0.060451  -0.076074  0  3.893261  0
C  C77  1  0.13893590  0.45554915  0.16376005  1  0  -0.049009  0  3.660665  0  0  -0.075807  0  3.905209  0  0  -0.073484  0  3.922452  0  0  -0.060545  -0.076312  0  3.893069  0
C  C78  1  0.01050411  0.54997281  0.83488143  1  0  -0.068244  0  3.745664  0  0  -0.078805  0  3.999054  0  0  -0.084756  0  4.022775  0  0  -0.084557  -0.075226  0  3.983754  0
C  C79  1  0.98949504  0.45002879  0.16511670  1  0  -0.068129  0  3.745503  0  0  -0.078697  0  3.998875  0  0  -0.084644  0  4.022597  0  0  -0.084488  -0.075117  0  3.983577  0
C  C80  1  0.06496023  0.64465290  0.86064309  1  0  -0.041025  0  3.684543  0  0  -0.06795  0  3.931612  0  0  -0.064739  0  3.950126  0  0  -0.065666  -0.070364  0  3.918961  0
C  C81  1  0.93503653  0.35534678  0.13935864  1  0  -0.040951  0  3.684438  0  0  -0.067827  0  3.931533  0  0  -0.064629  0  3.950062  0  0  -0.065642  -0.070229  0  3.918865  0
N  N82  1  0.81479173  0.73886579  0.54727545  1  0  -0.400907  0  2.577803  0  0  -0.378313  0  2.79566  0  0  -0.389639  0  2.809802  0  0  -0.302658  -0.37089  0  2.786867  0
N  N83  1  0.18520981  0.26112216  0.45272246  1  0  -0.400851  0  2.578038  0  0  -0.378234  0  2.79587  0  0  -0.389551  0  2.810011  0  0  -0.302577  -0.37081  0  2.787073  0
N  N84  1  0.84450832  0.39820438  0.64611748  1  0  -0.414977  0  2.661179  0  0  -0.379155  0  2.888716  0  0  -0.39309  0  2.899977  0  0  -0.286731  -0.369776  0  2.881264  0
N  N85  1  0.15548213  0.60178561  0.35389236  1  0  -0.414938  0  2.661588  0  0  -0.379147  0  2.889137  0  0  -0.393083  0  2.9004  0  0  -0.286715  -0.369772  0  2.881685  0
N  N86  1  0.48356538  0.63808341  0.87396541  1  0  -0.418359  0  2.594051  0  0  -0.3879  0  2.811081  0  0  -0.399126  0  2.822267  0  0  -0.299444  -0.379853  0  2.802864  0
N  N87  1  0.51645007  0.36192687  0.12602291  1  0  -0.418298  0  2.593293  0  0  -0.387804  0  2.810268  0  0  -0.399038  0  2.821458  0  0  -0.299296  -0.379754  0  2.802044  0
O  O88  1  0.54647261  0.02059933  0.18463952  1  0  -0.704738  0  2.037156  0  0  -0.66626  0  2.28234  0  0  -0.690516  0  2.2719  0  0  -0.377111  -0.640246  0  2.292004  0
O  O89  1  0.45351849  0.97939940  0.81536295  1  0  -0.704852  0  2.036667  0  0  -0.666359  0  2.281869  0  0  -0.690623  0  2.271423  0  0  -0.377203  -0.64034  0  2.291539  0
O  O90  1  0.35685268  0.97888689  0.12550425  1  0  -0.779498  0  2.11168  0  0  -0.742482  0  2.387128  0  0  -0.766374  0  2.371586  0  0  -0.423221  -0.711126  0  2.396738  0
O  O91  1  0.64313892  0.02111864  0.87449400  1  0  -0.779267  0  2.112323  0  0  -0.742236  0  2.387786  0  0  -0.766089  0  2.372164  0  0  -0.423068  -0.710864  0  2.397355  0
O  O92  1  0.79003005  0.84857793  0.19228658  1  0  -0.689957  0  2.027567  0  0  -0.639652  0  2.25459  0  0  -0.664685  0  2.244821  0  0  -0.354266  -0.614537  0  2.261585  0
O  O93  1  0.20996899  0.15142273  0.80771830  1  0  -0.68997  0  2.027365  0  0  -0.639636  0  2.254353  0  0  -0.664672  0  2.244596  0  0  -0.354231  -0.614514  0  2.261345  0
O  O94  1  0.62680204  0.80620886  0.11203183  1  0  -0.704273  0  2.06976  0  0  -0.653254  0  2.305461  0  0  -0.679467  0  2.297256  0  0  -0.345165  -0.62776  0  2.310544  0
O  O95  1  0.37320127  0.19378886  0.88797166  1  0  -0.704263  0  2.070005  0  0  -0.653242  0  2.305705  0  0  -0.679452  0  2.297499  0  0  -0.345148  -0.627748  0  2.31079  0
O  O96  1  0.93509571  0.91857160  0.94102170  1  0  -0.777859  0  2.105926  0  0  -0.739431  0  2.371482  0  0  -0.764316  0  2.358616  0  0  -0.40784  -0.707442  0  2.379061  0
O  O97  1  0.06490423  0.08142511  0.05897249  1  0  -0.777965  0  2.105183  0  0  -0.739631  0  2.370631  0  0  -0.76452  0  2.357768  0  0  -0.408011  -0.707637  0  2.378214  0
O  O98  1  0.16508389  0.84459929  0.90497774  1  0  -0.696301  0  1.995864  0  0  -0.65566  0  2.237566  0  0  -0.679936  0  2.225793  0  0  -0.391117  -0.629604  0  2.247765  0
O  O99  1  0.83492185  0.15540135  0.09502815  1  0  -0.696041  0  1.996787  0  0  -0.655465  0  2.238354  0  0  -0.679732  0  2.22658  0  0  -0.390994  -0.629416  0  2.248551  0
O  O100  1  0.62120119  0.23605110  0.94434328  1  0  -0.890752  0  1.844613  0  0  -0.850887  0  2.019439  0  0  -0.869147  0  1.989889  0  0  -0.627989  -0.829141  0  2.046518  0
O  O101  1  0.37880145  0.76395244  0.05565420  1  0  -0.8907  0  1.844662  0  0  -0.850832  0  2.019489  0  0  -0.86909  0  1.989945  0  0  -0.627966  -0.82908  0  2.04657  0
O  O102  1  0.91904432  0.19021695  0.83774950  1  0  -0.928754  0  1.890859  0  0  -0.887483  0  2.080843  0  0  -0.906122  0  2.049068  0  0  -0.647076  -0.864782  0  2.109685  0
O  O103  1  0.08096031  0.80978369  0.16225422  1  0  -0.928798  0  1.890842  0  0  -0.887548  0  2.080829  0  0  -0.906186  0  2.049057  0  0  -0.647138  -0.864844  0  2.109673  0
