# generated using pymatgen
data_ZnH6C11O6
_symmetry_space_group_name_H-M   'P 1'
_cell_length_a   8.91267261
_cell_length_b   13.61089098
_cell_length_c   16.96444040
_cell_angle_alpha   89.89331383
_cell_angle_beta   89.41318723
_cell_angle_gamma   87.06473737
_symmetry_Int_Tables_number   1
_chemical_formula_structural   ZnH6C11O6
_chemical_formula_sum   'Zn4 H24 C44 O24'
_cell_volume   2055.13674741
_cell_formula_units_Z   4
loop_
 _symmetry_equiv_pos_site_id
 _symmetry_equiv_pos_as_xyz
  1  'x, y, z'
loop_
 _atom_site_type_symbol
 _atom_site_label
 _atom_site_symmetry_multiplicity
 _atom_site_fract_x
 _atom_site_fract_y
 _atom_site_fract_z
 _atom_site_occupancy
 _atom_site_pbe_bader_charge
 _atom_site_pbe_bader_spin_density
 _atom_site_pbe_cm5_charge
 _atom_site_pbe_ddec_charge
 _atom_site_pbe_ddec_spin_density
 _atom_site_pbe_ddec_sum_bond_order
 _atom_site_pbe_magmom
Zn  Zn0  1  0.35303797  0.01329674  0.50483264  1  1.325944  0  0.748445  0.978236  0  2.079426  0
Zn  Zn1  1  0.65308407  0.99277285  0.49949828  1  1.331636  0  0.751089  0.990232  0  2.104266  0
Zn  Zn2  1  0.64838310  0.49948619  0.00151264  1  1.322005  0  0.734263  0.970555  0  2.13533  0
Zn  Zn3  1  0.34637094  0.50479612  0.00156671  1  1.319992  0  0.729993  0.959553  0  2.128061  0
H  H4  1  0.69771517  0.70919215  0.16168766  1  0.078194  0  0.110598  0.125385  0  0.992666  0
H  H5  1  0.12949549  0.65965083  0.25056654  1  0.043991  0  0.096486  0.106349  0  0.986276  0
H  H6  1  0.10136952  0.76711773  0.19112969  1  0.07784  0  0.102057  0.11925  0  0.974712  0
H  H7  1  0.13893732  0.87348822  0.30842218  1  0.06254  0  0.103453  0.124915  0  0.973438  0
H  H8  1  0.16396307  0.76735665  0.36905906  1  0.049806  0  0.095864  0.109149  0  0.983842  0
H  H9  1  0.71130460  0.27899943  0.85231808  1  0.151056  0  0.111538  0.126663  0  1.016864  0
H  H10  1  0.16654000  0.37091159  0.73671568  1  0.017971  0  0.096455  0.10448  0  0.98179  0
H  H11  1  0.12301988  0.26580750  0.79435088  1  0.124718  0  0.103426  0.134365  0  1.007115  0
H  H12  1  0.18718662  0.15510233  0.68207746  1  0.109636  0  0.102216  0.126315  0  0.984605  0
H  H13  1  0.22618299  0.25761235  0.62098302  1  0.065615  0  0.096333  0.107737  0  0.979552  0
H  H14  1  0.76510206  0.29038711  0.20421848  1  0.092409  0  0.111626  0.124025  0  0.987532  0
H  H15  1  0.17978390  0.26564352  0.14130391  1  0.069439  0  0.101682  0.114963  0  0.973954  0
H  H16  1  0.17233294  0.37198533  0.20270489  1  0.05453  0  0.097989  0.108748  0  0.980159  0
H  H17  1  0.14028231  0.26347595  0.32245654  1  0.093165  0  0.100876  0.123332  0  0.983285  0
H  H18  1  0.15310468  0.15777522  0.26145324  1  0.081183  0  0.100999  0.120009  0  0.976971  0
H  H19  1  0.28593932  0.69362378  0.82622976  1  0.137176  0  0.111375  0.124153  0  0.994801  0
H  H20  1  0.87509841  0.65755872  0.75619875  1  0.063664  0  0.098499  0.109446  0  0.978238  0
H  H21  1  0.87033930  0.76299311  0.81867187  1  0.10119  0  0.104564  0.123883  0  0.973015  0
H  H22  1  0.82426066  0.87253796  0.70293882  1  0.086186  0  0.102285  0.12426  0  0.979825  0
H  H23  1  0.83292787  0.76907202  0.63907380  1  0.088413  0  0.094793  0.11168  0  0.989353  0
H  H24  1  0.80191813  0.70234543  0.34114694  1  0.633398  0  0.346013  0.376283  0  0.86003  0
H  H25  1  0.81724111  0.11359375  0.64391409  1  0.65244  0  0.298834  0.35333  0  1.000206  0
H  H26  1  0.79488607  0.05454759  0.28317884  1  0.633973  0  0.32647  0.38052  0  0.889429  0
H  H27  1  0.22717251  0.72229496  0.61256740  1  0.61571  0  0.337027  0.369274  0  0.875564  0
C  C28  1  0.46226949  0.87867542  0.61232857  1  1.531948  0  0.218879  0.601367  0  4.164138  0
C  C29  1  0.51963858  0.87930711  0.38746604  1  1.541812  0  0.21715  0.599392  0  4.173656  0
C  C30  1  0.47575449  0.13085971  0.39311538  1  1.532409  0  0.223212  0.606337  0  4.152536  0
C  C31  1  0.56145628  0.12100547  0.61795865  1  1.512969  0  0.232392  0.61245  0  4.106931  0
C  C32  1  0.54209403  0.37628401  0.11286276  1  1.54997  0  0.222572  0.610244  0  4.139631  0
C  C33  1  0.44776773  0.63358367  0.10858165  1  1.556006  0  0.22337  0.612433  0  4.137821  0
C  C34  1  0.54278156  0.62502456  0.88988227  1  1.530511  0  0.223498  0.612697  0  4.134328  0
C  C35  1  0.45477257  0.37434584  0.89454876  1  1.531656  0  0.224815  0.615827  0  4.127151  0
C  C36  1  0.45856339  0.70180150  0.17687066  1  -0.046212  0  -0.005966  -0.056643  0  3.950383  0
C  C37  1  0.50018968  0.82129272  0.31454426  1  0.049223  0  -0.014189  -0.102944  0  3.973551  0
C  C38  1  0.33859356  0.73494104  0.22439624  1  -0.012739  0  0.003121  0.069467  0  3.867593  0
C  C39  1  0.62246116  0.79083710  0.26480077  1  -0.059448  0  -0.017344  -0.095132  0  4.03828  0
C  C40  1  0.35936227  0.79332442  0.29097669  1  0.001762  0  0.001758  0.077485  0  3.867928  0
C  C41  1  0.60154870  0.73267428  0.19843721  1  0.019471  0  -0.080232  -0.124737  0  3.948692  0
C  C42  1  0.17065438  0.73270111  0.23770871  1  -0.024858  0  -0.152299  -0.202984  0  3.888677  0
C  C43  1  0.19384376  0.79955379  0.31207609  1  0.017916  0  -0.152949  -0.198239  0  3.87676  0
C  C44  1  0.47654903  0.30536701  0.82682800  1  0.011997  0  -0.006925  -0.066729  0  3.961328  0
C  C45  1  0.54841284  0.18117425  0.69138389  1  -0.039527  0  -0.011731  -0.112474  0  3.922051  0
C  C46  1  0.36699164  0.28108732  0.77370208  1  -0.020659  0  0.00923  0.082428  0  3.870728  0
C  C47  1  0.66201626  0.20339523  0.74724815  1  -0.019436  0  -0.013575  -0.081218  0  3.924523  0
C  C48  1  0.40335259  0.22048522  0.70890236  1  0.040082  0  0.001942  0.075124  0  3.85197  0
C  C49  1  0.62180678  0.26369269  0.81176347  1  -0.025757  0  -0.071852  -0.096232  0  3.925682  0
C  C50  1  0.20336425  0.29498876  0.75198909  1  -0.016532  0  -0.1531  -0.208161  0  3.86385  0
C  C51  1  0.24274954  0.22521306  0.67978128  1  -0.064712  0  -0.153408  -0.199003  0  3.867125  0
C  C52  1  0.52817389  0.30915269  0.18168396  1  -0.077748  0  -0.008018  -0.060799  0  3.965149  0
C  C53  1  0.49362206  0.18980069  0.32039931  1  0.011998  0  -0.011106  -0.102874  0  3.953798  0
C  C54  1  0.38737670  0.28383447  0.20958025  1  0.024714  0  0.001079  0.066496  0  3.864511  0
C  C55  1  0.63832011  0.21297648  0.29141321  1  -0.040825  0  -0.007866  -0.063455  0  3.957685  0
C  C56  1  0.37113863  0.22571081  0.27681405  1  -0.026772  0  0.001902  0.074854  0  3.885683  0
C  C57  1  0.65340471  0.27146773  0.22404380  1  0.052983  0  -0.079117  -0.1271  0  3.94964  0
C  C58  1  0.21935983  0.29609408  0.19679732  1  -0.042605  0  -0.149791  -0.197187  0  3.876187  0
C  C59  1  0.20130347  0.22916284  0.27226921  1  -0.035888  0  -0.150644  -0.204945  0  3.854326  0
C  C60  1  0.52746423  0.68998333  0.81923504  1  0.038012  0  -0.005844  -0.060543  0  3.951657  0
C  C61  1  0.47825501  0.81220665  0.68160498  1  -0.057646  0  -0.015552  -0.112521  0  3.972797  0
C  C62  1  0.64632786  0.72493639  0.77551420  1  -0.009794  0  0.003602  0.069751  0  3.866958  0
C  C63  1  0.35628240  0.77702769  0.72601032  1  0.005296  0  -0.013503  -0.083627  0  4.01773  0
C  C64  1  0.62138791  0.78489608  0.70925544  1  0.006206  0  0.001526  0.079724  0  3.868187  0
C  C65  1  0.38181529  0.71855818  0.79283325  1  -0.041699  0  -0.075899  -0.113384  0  3.935833  0
C  C66  1  0.81555222  0.72852386  0.76897770  1  -0.061211  0  -0.149998  -0.200297  0  3.87424  0
C  C67  1  0.78718638  0.79751398  0.69527956  1  -0.048423  0  -0.154934  -0.203467  0  3.880384  0
C  C68  1  0.77898391  0.82110803  0.28089411  1  1.528191  0  0.240488  0.599338  0  4.115061  0
C  C69  1  0.82837088  0.17048618  0.74885579  1  1.547597  0  0.22577  0.567776  0  4.13816  0
C  C70  1  0.78344197  0.18526633  0.33311563  1  1.556934  0  0.227975  0.59449  0  4.129957  0
C  C71  1  0.19452129  0.80061527  0.70611863  1  1.514209  0  0.236285  0.586492  0  4.112044  0
O  O72  1  0.33272298  0.91622279  0.59307924  1  -1.131441  0  -0.304774  -0.526056  0  2.260084  0
O  O73  1  0.58564699  0.89437498  0.57668887  1  -1.165267  0  -0.311668  -0.564231  0  2.393204  0
O  O74  1  0.65348416  0.89768712  0.40843194  1  -1.13126  0  -0.307316  -0.540339  0  2.286881  0
O  O75  1  0.39917152  0.90663914  0.42398186  1  -1.168951  0  -0.309177  -0.556533  0  2.347573  0
O  O76  1  0.59795724  0.10160407  0.42630009  1  -1.16555  0  -0.308234  -0.567823  0  2.435418  0
O  O77  1  0.34336832  0.11222642  0.41753675  1  -1.123603  0  -0.301031  -0.510927  0  2.213417  0
O  O78  1  0.43887065  0.10643998  0.58377392  1  -1.165864  0  -0.29702  -0.549706  0  2.402281  0
O  O79  1  0.68976715  0.08577444  0.59060962  1  -1.153182  0  -0.3  -0.529041  0  2.316421  0
O  O80  1  0.67225150  0.40190450  0.08977405  1  -1.139048  0  -0.315415  -0.533047  0  2.208614  0
O  O81  1  0.41710653  0.40516728  0.08264678  1  -1.171028  0  -0.309373  -0.565651  0  2.3721  0
O  O82  1  0.31818795  0.60717837  0.08696192  1  -1.127863  0  -0.310236  -0.524565  0  2.196074  0
O  O83  1  0.57303394  0.60474835  0.07757102  1  -1.178241  0  -0.315797  -0.574892  0  2.379225  0
O  O84  1  0.41970384  0.60307451  0.92262167  1  -1.179969  0  -0.315731  -0.574633  0  2.380991  0
O  O85  1  0.67441082  0.59477156  0.91262218  1  -1.120619  0  -0.309974  -0.523456  0  2.190423  0
O  O86  1  0.57539326  0.39864124  0.92727236  1  -1.176136  0  -0.315113  -0.57433  0  2.394725  0
O  O87  1  0.32194980  0.40637329  0.91526760  1  -1.126001  0  -0.310249  -0.522956  0  2.182107  0
O  O88  1  0.86480141  0.75509639  0.32364901  1  -1.111744  0  -0.319517  -0.459476  0  2.251654  0
O  O89  1  0.83315332  0.89470291  0.25435085  1  -1.130869  0  -0.272124  -0.459659  0  2.091387  0
O  O90  1  0.89355211  0.12783421  0.68549274  1  -1.172755  0  -0.346234  -0.486777  0  2.276268  0
O  O91  1  0.90330025  0.18526042  0.80747337  1  -1.133612  0  -0.290844  -0.473882  0  2.102189  0
O  O92  1  0.85449652  0.09724223  0.31569679  1  -1.126806  0  -0.338334  -0.491562  0  2.245126  0
O  O93  1  0.84435853  0.24321179  0.37531988  1  -1.115082  0  -0.294692  -0.468231  0  2.036889  0
O  O94  1  0.14281588  0.75640900  0.63988097  1  -1.106166  0  -0.338847  -0.482753  0  2.220889  0
O  O95  1  0.10888831  0.84954984  0.74806421  1  -1.10415  0  -0.258269  -0.426041  0  2.076729  0
