# generated using pymatgen
data_TmH15C11O6
_symmetry_space_group_name_H-M   'P 1'
_cell_length_a   8.06546348
_cell_length_b   10.66377794
_cell_length_c   14.73654428
_cell_angle_alpha   89.99995853
_cell_angle_beta   90.00002787
_cell_angle_gamma   89.99988180
_symmetry_Int_Tables_number   1
_chemical_formula_structural   TmH15C11O6
_chemical_formula_sum   'Tm4 H60 C44 O24'
_cell_volume   1267.46529009
_cell_formula_units_Z   4
loop_
 _symmetry_equiv_pos_site_id
 _symmetry_equiv_pos_as_xyz
  1  'x, y, z'
loop_
 _atom_site_type_symbol
 _atom_site_label
 _atom_site_symmetry_multiplicity
 _atom_site_fract_x
 _atom_site_fract_y
 _atom_site_fract_z
 _atom_site_occupancy
 _atom_site_hle17_bader_spin_density
 _atom_site_hle17_ddec_charge
 _atom_site_hle17_ddec_spin_density
 _atom_site_hle17_ddec_sum_bond_order
 _atom_site_hle17_magmom
 _atom_site_hse06_10hf_bader_spin_density
 _atom_site_hse06_10hf_ddec_charge
 _atom_site_hse06_10hf_ddec_spin_density
 _atom_site_hse06_10hf_ddec_sum_bond_order
 _atom_site_hse06_10hf_magmom
 _atom_site_hse06_bader_spin_density
 _atom_site_hse06_ddec_charge
 _atom_site_hse06_ddec_spin_density
 _atom_site_hse06_ddec_sum_bond_order
 _atom_site_hse06_magmom
 _atom_site_pbe_bader_spin_density
 _atom_site_pbe_cm5_charge
 _atom_site_pbe_ddec_charge
 _atom_site_pbe_ddec_spin_density
 _atom_site_pbe_ddec_sum_bond_order
 _atom_site_pbe_magmom
Tm  Tm0  1  0.07836411  0.79942557  0.49850134  1  0  2.265032  0  1.712852  0  0  2.129043  0  2.196709  0  0  2.260365  0  2.004108  0  0  1.581274  2.090615  0  2.231113  0
Tm  Tm1  1  0.42164115  0.20057631  0.99850072  1  0  2.265024  0  1.712741  0  0  2.129042  0  2.19658  0  0  2.260371  0  2.003978  0  0  1.581287  2.090618  0  2.230975  0
Tm  Tm2  1  0.92164036  0.29941944  0.00149768  1  0  2.265017  0  1.712822  0  0  2.129049  0  2.196643  0  0  2.260357  0  2.004062  0  0  1.581264  2.09062  0  2.231045  0
Tm  Tm3  1  0.57836155  0.70058029  0.50149738  1  0  2.264955  0  1.713036  0  0  2.128958  0  2.196922  0  0  2.260293  0  2.004295  0  0  1.581268  2.090529  0  2.231327  0
H  H4  1  0.15218542  0.43689840  0.22925582  1  0  0.111844  0  0.951069  0  0  0.134352  0  1.010104  0  0  0.1363  0  1.009659  0  0  0.093382  0.13302  0  1.010236  0
H  H5  1  0.34781589  0.56310187  0.72926042  1  0  0.111835  0  0.951103  0  0  0.134352  0  1.010121  0  0  0.136289  0  1.00969  0  0  0.093398  0.133019  0  1.010253  0
H  H6  1  0.84781372  0.93690169  0.27074312  1  0  0.111838  0  0.951132  0  0  0.13434  0  1.010166  0  0  0.136277  0  1.009735  0  0  0.093398  0.133008  0  1.010298  0
H  H7  1  0.65218844  0.06309589  0.77074454  1  0  0.111875  0  0.951064  0  0  0.134362  0  1.010109  0  0  0.136283  0  1.009697  0  0  0.093387  0.13303  0  1.010241  0
H  H8  1  0.18480217  0.53817576  0.32294194  1  0  0.095682  0  0.969047  0  0  0.11535  0  1.036548  0  0  0.116854  0  1.036348  0  0  0.087216  0.114315  0  1.036565  0
H  H9  1  0.31519674  0.46182255  0.82294523  1  0  0.095748  0  0.969013  0  0  0.115447  0  1.036466  0  0  0.116955  0  1.036263  0  0  0.087229  0.114411  0  1.036484  0
H  H10  1  0.81519682  0.03817618  0.17705586  1  0  0.095729  0  0.969032  0  0  0.115404  0  1.036519  0  0  0.11691  0  1.036318  0  0  0.087234  0.114369  0  1.036537  0
H  H11  1  0.68480649  0.96181774  0.67705816  1  0  0.095688  0  0.96914  0  0  0.115363  0  1.036625  0  0  0.116868  0  1.036421  0  0  0.087225  0.114329  0  1.036639  0
H  H12  1  0.35685557  0.48228083  0.26091998  1  0  0.111051  0  0.950635  0  0  0.134287  0  1.007181  0  0  0.135859  0  1.007207  0  0  0.09221  0.133165  0  1.007028  0
H  H13  1  0.14314701  0.51771847  0.76092251  1  0  0.111095  0  0.950565  0  0  0.134317  0  1.007128  0  0  0.135892  0  1.007148  0  0  0.092204  0.133195  0  1.006975  0
H  H14  1  0.64314840  0.98227884  0.23907894  1  0  0.111066  0  0.950619  0  0  0.13428  0  1.007189  0  0  0.135854  0  1.00721  0  0  0.092196  0.133159  0  1.007035  0
H  H15  1  0.85685868  0.01771783  0.73908180  1  0  0.110991  0  0.950721  0  0  0.13423  0  1.007262  0  0  0.135803  0  1.007283  0  0  0.092183  0.133108  0  1.007108  0
H  H16  1  0.26915149  0.82760883  0.19759974  1  0  0.089622  0  0.924559  0  0  0.101721  0  0.979415  0  0  0.103846  0  0.978439  0  0  0.104439  0.100364  0  0.979785  0
H  H17  1  0.23084111  0.17239429  0.69759976  1  0  0.089668  0  0.924538  0  0  0.101776  0  0.979382  0  0  0.103903  0  0.978405  0  0  0.104488  0.10042  0  0.979748  0
H  H18  1  0.73083431  0.32760926  0.30239587  1  0  0.089661  0  0.924532  0  0  0.101749  0  0.979411  0  0  0.103875  0  0.978435  0  0  0.104446  0.100393  0  0.979779  0
H  H19  1  0.76916043  0.67238829  0.80239496  1  0  0.089651  0  0.924504  0  0  0.101748  0  0.97937  0  0  0.103873  0  0.978394  0  0  0.104456  0.100394  0  0.979735  0
H  H20  1  0.44102998  0.98695540  0.60532285  1  0  0.035554  0  0.900022  0  0  0.04548  0  0.96393  0  0  0.046613  0  0.958743  0  0  0.129154  0.044828  0  0.967153  0
H  H21  1  0.05897742  0.01304031  0.10532456  1  0  0.035609  0  0.899888  0  0  0.045452  0  0.963904  0  0  0.046585  0  0.958719  0  0  0.12914  0.04483  0  0.967095  0
H  H22  1  0.55896822  0.48696163  0.89468392  1  0  0.035593  0  0.899961  0  0  0.045422  0  0.963987  0  0  0.046552  0  0.95881  0  0  0.129164  0.044801  0  0.967171  0
H  H23  1  0.94102412  0.51305177  0.39468004  1  0  0.035588  0  0.900003  0  0  0.045487  0  0.963929  0  0  0.04662  0  0.958747  0  0  0.129142  0.044855  0  0.967128  0
H  H24  1  0.59409642  0.70713718  0.23056548  1  0  0.082129  0  0.940085  0  0  0.100372  0  0.996838  0  0  0.102539  0  0.995687  0  0  0.093184  0.098922  0  0.997451  0
H  H25  1  0.90590074  0.29287451  0.73056684  1  0  0.082248  0  0.940083  0  0  0.100482  0  0.996774  0  0  0.102649  0  0.995623  0  0  0.093237  0.099031  0  0.997385  0
H  H26  1  0.40589343  0.20712971  0.26943427  1  0  0.082242  0  0.940018  0  0  0.100412  0  0.996781  0  0  0.102579  0  0.995629  0  0  0.093191  0.098963  0  0.99739  0
H  H27  1  0.09410543  0.79286114  0.76943867  1  0  0.082185  0  0.940155  0  0  0.10042  0  0.996865  0  0  0.102588  0  0.995712  0  0  0.093235  0.098972  0  0.997475  0
H  H28  1  0.53177124  0.80604219  0.14073434  1  0  0.070157  0  0.947046  0  0  0.087653  0  1.010181  0  0  0.088645  0  1.010246  0  0  0.090583  0.086929  0  1.010106  0
H  H29  1  0.96822336  0.19396303  0.64073714  1  0  0.070254  0  0.947033  0  0  0.087764  0  1.010099  0  0  0.088757  0  1.010162  0  0  0.090612  0.087036  0  1.010031  0
H  H30  1  0.46821709  0.30604109  0.35926535  1  0  0.070174  0  0.9471  0  0  0.08766  0  1.010174  0  0  0.088653  0  1.010237  0  0  0.090572  0.086933  0  1.010102  0
H  H31  1  0.03177441  0.69395342  0.85926979  1  0  0.070237  0  0.947004  0  0  0.087694  0  1.010135  0  0  0.088684  0  1.010206  0  0  0.090603  0.08697  0  1.01006  0
H  H32  1  0.95211937  0.59210360  0.16171903  1  0  0.118795  0  0.947392  0  0  0.13997  0  1.004865  0  0  0.142367  0  1.003846  0  0  0.092788  0.138277  0  1.005562  0
H  H33  1  0.54788269  0.40789409  0.66172295  1  0  0.118832  0  0.947418  0  0  0.140034  0  1.004855  0  0  0.142431  0  1.003836  0  0  0.092794  0.138341  0  1.005551  0
H  H34  1  0.04787700  0.09211255  0.33827739  1  0  0.118885  0  0.94755  0  0  0.140098  0  1.004955  0  0  0.142497  0  1.003935  0  0  0.092828  0.138404  0  1.005652  0
H  H35  1  0.45212689  0.90789042  0.83828048  1  0  0.118858  0  0.947475  0  0  0.140059  0  1.004912  0  0  0.142458  0  1.003891  0  0  0.09282  0.138375  0  1.0056  0
H  H36  1  0.01131890  0.75092985  0.14368546  1  0  0.091215  0  0.970689  0  0  0.111932  0  1.03791  0  0  0.112934  0  1.038213  0  0  0.08317  0.111193  0  1.037681  0
H  H37  1  0.48867985  0.24906582  0.64368754  1  0  0.091255  0  0.970754  0  0  0.111987  0  1.03794  0  0  0.112987  0  1.038247  0  0  0.083199  0.111248  0  1.03771  0
H  H38  1  0.98867083  0.25093921  0.35630952  1  0  0.091369  0  0.970663  0  0  0.112037  0  1.03791  0  0  0.113036  0  1.038218  0  0  0.083206  0.111298  0  1.037681  0
H  H39  1  0.51132396  0.74906486  0.85631460  1  0  0.091301  0  0.970715  0  0  0.111975  0  1.037978  0  0  0.112976  0  1.038285  0  0  0.0832  0.111236  0  1.03775  0
H  H40  1  0.98729146  0.69450438  0.25569422  1  0  0.103648  0  0.966487  0  0  0.122956  0  1.032431  0  0  0.124728  0  1.032108  0  0  0.086588  0.121753  0  1.032528  0
H  H41  1  0.51270448  0.30549509  0.75569751  1  0  0.103689  0  0.966434  0  0  0.123003  0  1.032374  0  0  0.124774  0  1.032052  0  0  0.086581  0.1218  0  1.03247  0
H  H42  1  0.01269719  0.19450973  0.24430010  1  0  0.10373  0  0.966518  0  0  0.123063  0  1.032421  0  0  0.124833  0  1.032102  0  0  0.086611  0.121859  0  1.032518  0
H  H43  1  0.48729669  0.80549052  0.74430461  1  0  0.103659  0  0.966536  0  0  0.122996  0  1.032453  0  0  0.124768  0  1.032133  0  0  0.08658  0.121793  0  1.03255  0
H  H44  1  0.11128218  0.68909528  0.00890694  1  0  0.110106  0  0.962165  0  0  0.130737  0  1.024038  0  0  0.132048  0  1.024461  0  0  0.094022  0.129808  0  1.023631  0
H  H45  1  0.38872017  0.31090146  0.50890965  1  0  0.11008  0  0.962168  0  0  0.130672  0  1.024107  0  0  0.131985  0  1.024528  0  0  0.093983  0.129744  0  1.0237  0
H  H46  1  0.88871392  0.18909622  0.49109146  1  0  0.110009  0  0.96226  0  0  0.130669  0  1.024114  0  0  0.131982  0  1.024534  0  0  0.093929  0.129739  0  1.023708  0
H  H47  1  0.61128223  0.81090115  0.99109383  1  0  0.110104  0  0.962205  0  0  0.130787  0  1.024015  0  0  0.1321  0  1.024438  0  0  0.09403  0.129859  0  1.023607  0
H  H48  1  0.31007839  0.67345573  0.95900760  1  0  0.099  0  0.951477  0  0  0.122358  0  1.011636  0  0  0.123437  0  1.011882  0  0  0.088839  0.121569  0  1.011382  0
H  H49  1  0.18992560  0.32654056  0.45900850  1  0  0.098866  0  0.951617  0  0  0.122212  0  1.011811  0  0  0.123288  0  1.012058  0  0  0.088762  0.121425  0  1.011554  0
H  H50  1  0.68991943  0.17345836  0.54099052  1  0  0.099043  0  0.951466  0  0  0.12236  0  1.011658  0  0  0.12344  0  1.011904  0  0  0.088829  0.121571  0  1.011404  0
H  H51  1  0.81007880  0.82654320  0.04099254  1  0  0.099025  0  0.951488  0  0  0.12238  0  1.011649  0  0  0.123459  0  1.011896  0  0  0.088821  0.121591  0  1.011396  0
H  H52  1  0.27683361  0.79010061  0.04273508  1  0  0.118925  0  0.966818  0  0  0.138771  0  1.030581  0  0  0.141066  0  1.029677  0  0  0.093144  0.13721  0  1.031094  0
H  H53  1  0.22316753  0.20989890  0.54273576  1  0  0.118895  0  0.966827  0  0  0.138736  0  1.030604  0  0  0.141031  0  1.0297  0  0  0.093138  0.137175  0  1.031118  0
H  H54  1  0.72316097  0.29010372  0.45726530  1  0  0.118896  0  0.966811  0  0  0.138724  0  1.030602  0  0  0.141013  0  1.029701  0  0  0.093136  0.137164  0  1.031115  0
H  H55  1  0.77683515  0.70989556  0.95726776  1  0  0.118919  0  0.966869  0  0  0.138769  0  1.030638  0  0  0.141064  0  1.029732  0  0  0.093143  0.137209  0  1.03115  0
H  H56  1  0.55423143  0.61701633  0.05385921  1  0  0.071515  0  0.958848  0  0  0.089889  0  1.022394  0  0  0.090272  0  1.023115  0  0  0.090625  0.089659  0  1.021671  0
H  H57  1  0.94577054  0.38298522  0.55385918  1  0  0.071566  0  0.958816  0  0  0.089921  0  1.022377  0  0  0.090304  0  1.023097  0  0  0.090639  0.089692  0  1.021654  0
H  H58  1  0.44576363  0.11701425  0.44614058  1  0  0.071492  0  0.958829  0  0  0.089882  0  1.022359  0  0  0.090261  0  1.023085  0  0  0.090623  0.089654  0  1.021634  0
H  H59  1  0.05423291  0.88298206  0.94614425  1  0  0.07151  0  0.958808  0  0  0.08988  0  1.022354  0  0  0.090263  0  1.023082  0  0  0.090596  0.089651  0  1.021629  0
H  H60  1  0.52433499  0.52144980  0.14956756  1  0  0.07508  0  0.938196  0  0  0.092216  0  0.996947  0  0  0.093619  0  0.996188  0  0  0.091607  0.091288  0  0.997204  0
H  H61  1  0.97566829  0.47855446  0.64956613  1  0  0.075093  0  0.938219  0  0  0.09229  0  0.996873  0  0  0.093695  0  0.996115  0  0  0.091644  0.09136  0  0.997134  0
H  H62  1  0.47566033  0.02144683  0.35043228  1  0  0.075109  0  0.93813  0  0  0.092272  0  0.996865  0  0  0.093674  0  0.996107  0  0  0.091646  0.091341  0  0.997129  0
H  H63  1  0.02433365  0.97854676  0.85043318  1  0  0.075107  0  0.93817  0  0  0.092202  0  0.996958  0  0  0.09361  0  0.996204  0  0  0.091589  0.091274  0  0.997216  0
C  C64  1  0.22843885  0.51490539  0.25429425  1  0  -0.348007  0  3.653286  0  0  -0.430353  0  3.89157  0  0  -0.433609  0  3.901098  0  0  -0.245328  -0.42758  0  3.884105  0
C  C65  1  0.27156124  0.48509485  0.75429751  1  0  -0.348125  0  3.653189  0  0  -0.43046  0  3.891563  0  0  -0.433713  0  3.901094  0  0  -0.245351  -0.427688  0  3.8841  0
C  C66  1  0.77155897  0.01490769  0.24570424  1  0  -0.348098  0  3.653306  0  0  -0.430448  0  3.89157  0  0  -0.433702  0  3.901106  0  0  -0.24536  -0.427674  0  3.884106  0
C  C67  1  0.72844316  0.98508991  0.74570587  1  0  -0.348019  0  3.65339  0  0  -0.4304  0  3.891613  0  0  -0.433637  0  3.901155  0  0  -0.245326  -0.427626  0  3.884147  0
C  C68  1  0.32722395  0.75194229  0.32525860  1  0  0.772979  0  3.775413  0  0  0.73059  0  4.067153  0  0  0.766789  0  4.05989  0  0  0.246058  0.706287  0  4.075054  0
C  C69  1  0.17277496  0.24805601  0.82525992  1  0  0.772879  0  3.77565  0  0  0.730592  0  4.067249  0  0  0.766788  0  4.059991  0  0  0.246027  0.706294  0  4.075139  0
C  C70  1  0.67276454  0.25193637  0.17473909  1  0  0.772808  0  3.775637  0  0  0.730553  0  4.067174  0  0  0.766762  0  4.059891  0  0  0.246109  0.706249  0  4.075077  0
C  C71  1  0.82723505  0.74806130  0.67473951  1  0  0.77296  0  3.77533  0  0  0.730615  0  4.067018  0  0  0.766825  0  4.059732  0  0  0.246107  0.706314  0  4.074919  0
C  C72  1  0.32630767  0.74094811  0.22313968  1  0  -0.190075  0  3.551002  0  0  -0.19057  0  3.774421  0  0  -0.197524  0  3.786189  0  0  -0.083862  -0.185463  0  3.764975  0
C  C73  1  0.17368868  0.25905404  0.72314032  1  0  -0.190023  0  3.551  0  0  -0.190552  0  3.774443  0  0  -0.197504  0  3.786213  0  0  -0.083917  -0.185442  0  3.764983  0
C  C74  1  0.67368829  0.24094866  0.27685734  1  0  -0.189912  0  3.550887  0  0  -0.190496  0  3.774219  0  0  -0.197456  0  3.785986  0  0  -0.083764  -0.185389  0  3.76477  0
C  C75  1  0.82631263  0.75905079  0.77685911  1  0  -0.189916  0  3.550802  0  0  -0.19049  0  3.774141  0  0  -0.197446  0  3.785905  0  0  -0.083825  -0.185385  0  3.764697  0
C  C76  1  0.21220401  0.62899071  0.19087636  1  0  0.18381  0  3.454677  0  0  0.210359  0  3.684469  0  0  0.211465  0  3.70428  0  0  0.001886  0.209796  0  3.670279  0
C  C77  1  0.28779726  0.37100866  0.69087833  1  0  0.18404  0  3.454298  0  0  0.210368  0  3.684493  0  0  0.211472  0  3.704305  0  0  0.001953  0.209806  0  3.670301  0
C  C78  1  0.78779226  0.12899292  0.30912275  1  0  0.183972  0  3.45444  0  0  0.210585  0  3.684108  0  0  0.211699  0  3.703914  0  0  0.001897  0.210017  0  3.669921  0
C  C79  1  0.71220869  0.87100462  0.80912443  1  0  0.183879  0  3.454604  0  0  0.210639  0  3.684015  0  0  0.211754  0  3.703811  0  0  0.001925  0.210071  0  3.669831  0
C  C80  1  0.33640493  0.93309747  0.57670352  1  0  0.615177  0  3.868256  0  0  0.548637  0  4.172867  0  0  0.581728  0  4.173018  0  0  0.158178  0.525585  0  4.180362  0
C  C81  1  0.16360120  0.06689920  0.07670455  1  0  0.615063  0  3.868197  0  0  0.548561  0  4.172811  0  0  0.581651  0  4.172968  0  0  0.15816  0.525492  0  4.18031  0
C  C82  1  0.66359838  0.43310445  0.92329853  1  0  0.615032  0  3.868163  0  0  0.548549  0  4.172784  0  0  0.581638  0  4.172938  0  0  0.158114  0.525479  0  4.180285  0
C  C83  1  0.83639151  0.56691174  0.42329595  1  0  0.615059  0  3.868344  0  0  0.548544  0  4.172939  0  0  0.581629  0  4.173104  0  0  0.158197  0.525482  0  4.180434  0
C  C84  1  0.49801386  0.72148961  0.17902353  1  0  -0.10946  0  3.634571  0  0  -0.15762  0  3.894146  0  0  -0.15753  0  3.905488  0  0  -0.16765  -0.157328  0  3.885665  0
C  C85  1  0.00198244  0.27851447  0.67902547  1  0  -0.109853  0  3.63484  0  0  -0.157929  0  3.894267  0  0  -0.15784  0  3.905609  0  0  -0.167746  -0.157632  0  3.885782  0
C  C86  1  0.50197595  0.22148756  0.32097553  1  0  -0.109826  0  3.634861  0  0  -0.157799  0  3.89424  0  0  -0.15771  0  3.90558  0  0  -0.167708  -0.157498  0  3.885751  0
C  C87  1  0.99802005  0.77850528  0.82097802  1  0  -0.109799  0  3.634775  0  0  -0.157837  0  3.894256  0  0  -0.157745  0  3.905598  0  0  -0.167771  -0.157547  0  3.885781  0
C  C88  1  0.02988709  0.66871130  0.18739586  1  0  -0.343446  0  3.670727  0  0  -0.42704  0  3.910107  0  0  -0.429886  0  3.919517  0  0  -0.248167  -0.424599  0  3.902819  0
C  C89  1  0.47011046  0.33128527  0.68739722  1  0  -0.343666  0  3.6708  0  0  -0.42725  0  3.910235  0  0  -0.430094  0  3.919645  0  0  -0.248236  -0.424811  0  3.902949  0
C  C90  1  0.97010659  0.16871791  0.31260119  1  0  -0.343879  0  3.670993  0  0  -0.427488  0  3.910318  0  0  -0.430335  0  3.919725  0  0  -0.248277  -0.425044  0  3.903036  0
C  C91  1  0.52989313  0.83128244  0.81260284  1  0  -0.343674  0  3.670957  0  0  -0.427337  0  3.910286  0  0  -0.430185  0  3.919693  0  0  -0.248249  -0.424905  0  3.902995  0
C  C92  1  0.29396001  0.59814703  0.09621647  1  0  -0.023583  0  3.522727  0  0  0.00193  0  3.74618  0  0  -0.003525  0  3.762329  0  0  -0.011288  0.005925  0  3.733988  0
C  C93  1  0.20604242  0.40185431  0.59621772  1  0  -0.023695  0  3.522671  0  0  0.001849  0  3.746146  0  0  -0.003601  0  3.762295  0  0  -0.011294  0.005846  0  3.733958  0
C  C94  1  0.70603262  0.09814927  0.40378130  1  0  -0.023519  0  3.522685  0  0  0.001995  0  3.746124  0  0  -0.003464  0  3.762279  0  0  -0.011198  0.005988  0  3.733926  0
C  C95  1  0.79396345  0.90184912  0.90378435  1  0  -0.023481  0  3.522645  0  0  0.002019  0  3.746031  0  0  -0.003426  0  3.762189  0  0  -0.011224  0.006009  0  3.733835  0
C  C96  1  0.24262523  0.47166940  0.05743400  1  0  0.737731  0  3.762995  0  0  0.700864  0  4.041446  0  0  0.736111  0  4.035805  0  0  0.24943  0.677153  0  4.048275  0
C  C97  1  0.25737964  0.52833105  0.55743384  1  0  0.737801  0  3.762948  0  0  0.700964  0  4.041361  0  0  0.736197  0  4.035741  0  0  0.249433  0.677246  0  4.048202  0
C  C98  1  0.75737257  0.97167453  0.44256629  1  0  0.73777  0  3.762949  0  0  0.700855  0  4.041476  0  0  0.736095  0  4.035848  0  0  0.249418  0.677165  0  4.048266  0
C  C99  1  0.74263346  0.02832757  0.94256436  1  0  0.737674  0  3.763139  0  0  0.70078  0  4.041664  0  0  0.735998  0  4.036071  0  0  0.249399  0.67709  0  4.048455  0
C  C100  1  0.24456405  0.69402307  0.02270938  1  0  -0.323305  0  3.646164  0  0  -0.406001  0  3.883673  0  0  -0.408458  0  3.893573  0  0  -0.24065  -0.403804  0  3.876175  0
C  C101  1  0.25543832  0.30597647  0.52271137  1  0  -0.32307  0  3.64622  0  0  -0.405748  0  3.883733  0  0  -0.408201  0  3.893634  0  0  -0.24054  -0.403552  0  3.876233  0
C  C102  1  0.75543204  0.19402329  0.47728970  1  0  -0.323265  0  3.646253  0  0  -0.405948  0  3.883734  0  0  -0.408399  0  3.893632  0  0  -0.240564  -0.403753  0  3.876236  0
C  C103  1  0.74456409  0.80597503  0.97729278  1  0  -0.323389  0  3.646231  0  0  -0.406141  0  3.883724  0  0  -0.408595  0  3.893621  0  0  -0.240663  -0.403943  0  3.876229  0
C  C104  1  0.48088912  0.60737437  0.11607461  1  0  -0.14087  0  3.645611  0  0  -0.188145  0  3.90276  0  0  -0.1879  0  3.914772  0  0  -0.166706  -0.187902  0  3.893707  0
C  C105  1  0.01911208  0.39262976  0.61607446  1  0  -0.140847  0  3.645698  0  0  -0.188151  0  3.902771  0  0  -0.187908  0  3.914785  0  0  -0.166719  -0.18791  0  3.89372  0
C  C106  1  0.51910596  0.10737411  0.38392451  1  0  -0.140757  0  3.645674  0  0  -0.188126  0  3.902829  0  0  -0.187876  0  3.914834  0  0  -0.166718  -0.187889  0  3.89378  0
C  C107  1  0.98089133  0.89262148  0.88392694  1  0  -0.140806  0  3.645597  0  0  -0.188086  0  3.90268  0  0  -0.187858  0  3.91471  0  0  -0.166647  -0.187843  0  3.89363  0
O  O108  1  0.35752972  0.81540371  0.55942067  1  0  -0.816543  0  2.180299  0  0  -0.757763  0  2.454493  0  0  -0.80589  0  2.441436  0  0  -0.45017  -0.738883  0  2.462489  0
O  O109  1  0.14248135  0.18459204  0.05942164  1  0  -0.816455  0  2.180321  0  0  -0.757653  0  2.454436  0  0  -0.805775  0  2.441387  0  0  -0.450138  -0.738777  0  2.462442  0
O  O110  1  0.64247887  0.31540883  0.94057805  1  0  -0.816479  0  2.180226  0  0  -0.757675  0  2.454333  0  0  -0.8058  0  2.441278  0  0  -0.450127  -0.738798  0  2.462339  0
O  O111  1  0.85752220  0.68460546  0.44057541  1  0  -0.816494  0  2.180186  0  0  -0.757713  0  2.454374  0  0  -0.805836  0  2.441316  0  0  -0.450185  -0.738836  0  2.462376  0
O  O112  1  0.45086106  0.71093044  0.36986474  1  0  -0.770858  0  2.060045  0  0  -0.723228  0  2.326879  0  0  -0.764  0  2.309888  0  0  -0.422817  -0.704548  0  2.33492  0
O  O113  1  0.04914161  0.28906969  0.86986601  1  0  -0.770809  0  2.06022  0  0  -0.723216  0  2.326995  0  0  -0.76398  0  2.310005  0  0  -0.422775  -0.704543  0  2.335042  0
O  O114  1  0.54912506  0.21092570  0.13013840  1  0  -0.770761  0  2.060024  0  0  -0.723167  0  2.326766  0  0  -0.763939  0  2.309765  0  0  -0.42282  -0.704495  0  2.33482  0
O  O115  1  0.95086953  0.78906921  0.63013748  1  0  -0.77082  0  2.060116  0  0  -0.723258  0  2.327024  0  0  -0.764029  0  2.310023  0  0  -0.42283  -0.70458  0  2.335062  0
O  O116  1  0.19964041  0.79952307  0.36360609  1  0  -0.774077  0  2.005611  0  0  -0.72932  0  2.270972  0  0  -0.768986  0  2.252487  0  0  -0.426678  -0.711268  0  2.279855  0
O  O117  1  0.30035978  0.20046957  0.86360544  1  0  -0.7741  0  2.00565  0  0  -0.729363  0  2.270936  0  0  -0.769028  0  2.252451  0  0  -0.426694  -0.711314  0  2.279819  0
O  O118  1  0.80034423  0.29951512  0.13638614  1  0  -0.774071  0  2.005713  0  0  -0.729364  0  2.270989  0  0  -0.769031  0  2.252496  0  0  -0.426776  -0.711311  0  2.279875  0
O  O119  1  0.69964913  0.70047885  0.63638656  1  0  -0.774122  0  2.005443  0  0  -0.729371  0  2.270766  0  0  -0.769044  0  2.252274  0  0  -0.426731  -0.711317  0  2.279649  0
O  O120  1  0.19925712  0.98492537  0.56170676  1  0  -0.608782  0  1.975556  0  0  -0.562127  0  2.213764  0  0  -0.594419  0  2.203419  0  0  -0.349863  -0.545931  0  2.219706  0
O  O121  1  0.30074900  0.01506944  0.06170921  1  0  -0.608797  0  1.975442  0  0  -0.562134  0  2.213611  0  0  -0.594426  0  2.203264  0  0  -0.349867  -0.54594  0  2.219566  0
O  O122  1  0.80074728  0.48493212  0.93829391  1  0  -0.60875  0  1.97548  0  0  -0.562104  0  2.213657  0  0  -0.594391  0  2.203309  0  0  -0.349844  -0.54591  0  2.219613  0
O  O123  1  0.69924758  0.51508686  0.43829132  1  0  -0.608686  0  1.975653  0  0  -0.562024  0  2.21383  0  0  -0.594314  0  2.203486  0  0  -0.349852  -0.545829  0  2.21978  0
O  O124  1  0.35487925  0.40035970  0.02506552  1  0  -0.771654  0  2.0814  0  0  -0.726688  0  2.350622  0  0  -0.766324  0  2.336943  0  0  -0.417714  -0.707865  0  2.357574  0
O  O125  1  0.14512436  0.59964359  0.52506869  1  0  -0.771664  0  2.081358  0  0  -0.726689  0  2.350537  0  0  -0.766318  0  2.336862  0  0  -0.417721  -0.707864  0  2.357493  0
O  O126  1  0.64510883  0.90036216  0.47493345  1  0  -0.771778  0  2.081291  0  0  -0.726762  0  2.350475  0  0  -0.766394  0  2.336797  0  0  -0.417766  -0.707943  0  2.357412  0
O  O127  1  0.85489103  0.09963615  0.97493422  1  0  -0.771665  0  2.081426  0  0  -0.72664  0  2.350546  0  0  -0.766259  0  2.336879  0  0  -0.417723  -0.707825  0  2.357488  0
O  O128  1  0.08874322  0.44614104  0.05413674  1  0  -0.738385  0  2.059763  0  0  -0.690623  0  2.317946  0  0  -0.729548  0  2.302304  0  0  -0.416876  -0.672504  0  2.325997  0
O  O129  1  0.41126289  0.55385659  0.55413525  1  0  -0.738433  0  2.059796  0  0  -0.690673  0  2.317946  0  0  -0.729598  0  2.302308  0  0  -0.416908  -0.672553  0  2.326003  0
O  O130  1  0.91125093  0.94614593  0.44586628  1  0  -0.738367  0  2.059874  0  0  -0.690574  0  2.31807  0  0  -0.7295  0  2.302432  0  0  -0.416888  -0.672463  0  2.326109  0
O  O131  1  0.58875386  0.05386085  0.94585954  1  0  -0.73834  0  2.05978  0  0  -0.690609  0  2.318022  0  0  -0.729531  0  2.30239  0  0  -0.416894  -0.672498  0  2.326065  0
