# generated using pymatgen
data_ZnH16C10N2(ClO2)2
_symmetry_space_group_name_H-M   'P 1'
_cell_length_a   7.06306670
_cell_length_b   10.11602016
_cell_length_c   18.14500000
_cell_angle_alpha   90.00000000
_cell_angle_beta   90.00000000
_cell_angle_gamma   90.00000000
_symmetry_Int_Tables_number   1
_chemical_formula_structural   ZnH16C10N2(ClO2)2
_chemical_formula_sum   'Zn4 H64 C40 N8 Cl8 O16'
_cell_volume   1296.46252106
_cell_formula_units_Z   4
loop_
 _symmetry_equiv_pos_site_id
 _symmetry_equiv_pos_as_xyz
  1  'x, y, z'
loop_
 _atom_site_type_symbol
 _atom_site_label
 _atom_site_symmetry_multiplicity
 _atom_site_fract_x
 _atom_site_fract_y
 _atom_site_fract_z
 _atom_site_occupancy
 _atom_site_hle17_bader_spin_density
 _atom_site_hle17_ddec_charge
 _atom_site_hle17_ddec_spin_density
 _atom_site_hle17_ddec_sum_bond_order
 _atom_site_hle17_magmom
 _atom_site_hse06_10hf_bader_spin_density
 _atom_site_hse06_10hf_ddec_charge
 _atom_site_hse06_10hf_ddec_spin_density
 _atom_site_hse06_10hf_ddec_sum_bond_order
 _atom_site_hse06_10hf_magmom
 _atom_site_hse06_bader_spin_density
 _atom_site_hse06_ddec_charge
 _atom_site_hse06_ddec_spin_density
 _atom_site_hse06_ddec_sum_bond_order
 _atom_site_hse06_magmom
 _atom_site_pbe_bader_charge
 _atom_site_pbe_bader_spin_density
 _atom_site_pbe_cm5_charge
 _atom_site_pbe_ddec_charge
 _atom_site_pbe_ddec_spin_density
 _atom_site_pbe_ddec_sum_bond_order
 _atom_site_pbe_magmom
Zn  Zn0  1  0.43747428  0.44842635  0.13113144  1  0  0.980385  0  2.030957  0  0  0.814805  0  2.54271  0  0  0.859964  0  2.481896  0  1.197716  0  0.542692  0.78317  0  2.58434  0
Zn  Zn1  1  0.06252525  0.55157363  0.63113144  1  0  0.980406  0  2.030929  0  0  0.814823  0  2.542674  0  0  0.859982  0  2.48186  0  1.197728  0  0.542688  0.783188  0  2.584303  0
Zn  Zn2  1  0.56252902  0.94842535  0.36886911  1  0  0.980399  0  2.030948  0  0  0.81481  0  2.54269  0  0  0.859966  0  2.48188  0  1.197732  0  0.542704  0.783175  0  2.584317  0
Zn  Zn3  1  0.93746956  0.05157562  0.86886801  1  0  0.980408  0  2.03096  0  0  0.814826  0  2.542719  0  0  0.859978  0  2.481905  0  1.197724  0  0.542702  0.783187  0  2.584347  0
H  H4  1  0.94562324  0.39207118  0.83792229  1  0  0.10922  0  0.933165  0  0  0.117047  0  0.999142  0  0  0.119033  0  0.998263  0  0.126633  0  0.112316  0.115632  0  0.999625  0
H  H5  1  0.55437676  0.60792583  0.33792339  1  0  0.109281  0  0.93314  0  0  0.117018  0  0.999204  0  0  0.119003  0  0.998327  0  0.12666  0  0.1123  0.115603  0  0.999686  0
H  H6  1  0.05437865  0.89207315  0.66207771  1  0  0.109318  0  0.933064  0  0  0.11706  0  0.999125  0  0  0.119045  0  0.998247  0  0.126647  0  0.112313  0.115644  0  0.999606  0
H  H7  1  0.44562371  0.10792683  0.16207716  1  0  0.10929  0  0.933135  0  0  0.117025  0  0.999188  0  0  0.11901  0  0.99831  0  0.126643  0  0.112304  0.11561  0  0.99967  0
H  H8  1  0.05706728  0.54610113  0.86040066  1  0  0.106284  0  0.93227  0  0  0.117741  0  0.99398  0  0  0.119154  0  0.99391  0  0.118163  0  0.118126  0.116687  0  0.993996  0
H  H9  1  0.44293225  0.45389787  0.36040176  1  0  0.106247  0  0.932188  0  0  0.117748  0  0.993841  0  0  0.119161  0  0.993771  0  0.118147  0  0.118121  0.116692  0  0.993862  0
H  H10  1  0.94293319  0.04610113  0.63959824  1  0  0.106222  0  0.932168  0  0  0.117704  0  0.993854  0  0  0.119118  0  0.993782  0  0.118161  0  0.118103  0.116649  0  0.993873  0
H  H11  1  0.55706680  0.95389885  0.13959769  1  0  0.106227  0  0.932217  0  0  0.117706  0  0.993889  0  0  0.119121  0  0.993817  0  0.118125  0  0.118114  0.116652  0  0.993907  0
H  H12  1  0.83278557  0.67085473  0.79704271  1  0  0.108617  0  0.947293  0  0  0.115451  0  1.01586  0  0  0.117327  0  1.015305  0  0.116883  0  0.106655  0.114055  0  1.016434  0
H  H13  1  0.66721301  0.32914229  0.29704381  1  0  0.10861  0  0.947243  0  0  0.115419  0  1.015862  0  0  0.117296  0  1.015305  0  0.116902  0  0.106629  0.114021  0  1.01644  0
H  H14  1  0.16721349  0.17085968  0.70295508  1  0  0.10859  0  0.947236  0  0  0.115403  0  1.015857  0  0  0.117279  0  1.015301  0  0.116864  0  0.106629  0.114005  0  1.016434  0
H  H15  1  0.33278887  0.82914228  0.20295619  1  0  0.108599  0  0.94727  0  0  0.115418  0  1.015887  0  0  0.117294  0  1.015331  0  0.116896  0  0.106633  0.11402  0  1.016465  0
H  H16  1  0.75724189  0.51809703  0.75606779  1  0  0.112174  0  0.947002  0  0  0.118677  0  1.0165  0  0  0.120713  0  1.015604  0  0.156624  0  0.112778  0.116968  0  1.017528  0
H  H17  1  0.74275527  0.48189900  0.25606779  1  0  0.112148  0  0.947078  0  0  0.118662  0  1.016562  0  0  0.120699  0  1.015667  0  0.156615  0  0.112786  0.116952  0  1.01759  0
H  H18  1  0.24275574  0.01810396  0.74393221  1  0  0.112187  0  0.94701  0  0  0.118705  0  1.016491  0  0  0.120741  0  1.015595  0  0.156637  0  0.112799  0.116994  0  1.017521  0
H  H19  1  0.25724520  0.98189899  0.24393221  1  0  0.112149  0  0.947076  0  0  0.11867  0  1.016559  0  0  0.120706  0  1.015665  0  0.156619  0  0.112786  0.11696  0  1.017588  0
H  H20  1  0.71210003  0.29728193  0.92530945  1  0  0.118537  0  0.936248  0  0  0.129412  0  0.996469  0  0  0.131848  0  0.995279  0  0.171873  0  0.120845  0.127461  0  0.997647  0
H  H21  1  0.78789996  0.70271608  0.42531055  1  0  0.11854  0  0.936261  0  0  0.12946  0  0.99642  0  0  0.131898  0  0.995226  0  0.171879  0  0.120871  0.127508  0  0.997598  0
H  H22  1  0.28790044  0.79728192  0.57469055  1  0  0.118538  0  0.936242  0  0  0.12941  0  0.996468  0  0  0.131846  0  0.995277  0  0.171882  0  0.120851  0.127459  0  0.997645  0
H  H23  1  0.21209909  0.20271806  0.07469110  1  0  0.118542  0  0.936241  0  0  0.129413  0  0.996452  0  0  0.131849  0  0.99526  0  0.171869  0  0.120849  0.127462  0  0.997629  0
H  H24  1  0.60350272  0.40945549  0.98777349  1  0  0.093268  0  0.955981  0  0  0.100338  0  1.029242  0  0  0.102129  0  1.028072  0  0.120422  0  0.110108  0.098972  0  1.030151  0
H  H25  1  0.89649868  0.59054252  0.48777404  1  0  0.093262  0  0.955961  0  0  0.100357  0  1.029199  0  0  0.102146  0  1.02803  0  0.12041  0  0.110117  0.098989  0  1.030114  0
H  H26  1  0.39649774  0.90945548  0.51222651  1  0  0.093253  0  0.955991  0  0  0.100318  0  1.02926  0  0  0.102107  0  1.02809  0  0.120418  0  0.110105  0.098953  0  1.030167  0
H  H27  1  0.10350037  0.09054450  0.01222706  1  0  0.093291  0  0.955951  0  0  0.100377  0  1.029173  0  0  0.102168  0  1.028002  0  0.120409  0  0.11013  0.099012  0  1.030081  0
H  H28  1  0.01265456  0.32151280  0.96359824  1  0  0.120506  0  0.97306  0  0  0.129069  0  1.041178  0  0  0.131917  0  1.039986  0  0.153316  0  0.108448  0.126955  0  1.042176  0
H  H29  1  0.48734213  0.67848422  0.46359658  1  0  0.120545  0  0.973088  0  0  0.129081  0  1.041224  0  0  0.131929  0  1.040035  0  0.153339  0  0.108451  0.12696  0  1.042228  0
H  H30  1  0.98734591  0.82151280  0.53640342  1  0  0.120493  0  0.973105  0  0  0.129032  0  1.041226  0  0  0.131881  0  1.040035  0  0.153318  0  0.108427  0.126919  0  1.042224  0
H  H31  1  0.51265550  0.17848620  0.03640231  1  0  0.120524  0  0.973061  0  0  0.129075  0  1.041187  0  0  0.131923  0  1.039998  0  0.153318  0  0.108441  0.126953  0  1.042193  0
H  H32  1  0.90515923  0.40528092  0.03945219  1  0  0.12904  0  0.954821  0  0  0.138841  0  1.017861  0  0  0.141986  0  1.016261  0  0.166137  0  0.110148  0.136588  0  1.019185  0
H  H33  1  0.59483935  0.59472005  0.53945219  1  0  0.129057  0  0.954834  0  0  0.138848  0  1.017867  0  0  0.141993  0  1.016269  0  0.166229  0  0.110146  0.136597  0  1.01919  0
H  H34  1  0.09484266  0.90527795  0.46054836  1  0  0.12904  0  0.95488  0  0  0.13882  0  1.017912  0  0  0.141966  0  1.016313  0  0.166125  0  0.110126  0.136569  0  1.019235  0
H  H35  1  0.40515970  0.09472006  0.96054781  1  0  0.129041  0  0.954827  0  0  0.138843  0  1.017865  0  0  0.141988  0  1.016265  0  0.166227  0  0.110145  0.136591  0  1.019188  0
H  H36  1  0.39107234  0.45105485  0.89109231  1  0  0.104666  0  0.935456  0  0  0.114368  0  0.999961  0  0  0.115322  0  1.000523  0  0.085116  0  0.116389  0.113635  0  0.999535  0
H  H37  1  0.10892719  0.54894315  0.39109286  1  0  0.104687  0  0.935377  0  0  0.114401  0  0.999859  0  0  0.115356  0  1.000419  0  0.085123  0  0.11641  0.113668  0  0.999432  0
H  H38  1  0.60892671  0.95105584  0.60890769  1  0  0.104693  0  0.935422  0  0  0.114382  0  0.999929  0  0  0.115336  0  1.000491  0  0.085122  0  0.116389  0.113647  0  0.999504  0
H  H39  1  0.89107328  0.04894316  0.10890824  1  0  0.104669  0  0.935423  0  0  0.11438  0  0.999933  0  0  0.115335  0  1.000495  0  0.085135  0  0.116394  0.113646  0  0.999508  0
H  H40  1  0.54376805  0.38288773  0.82301791  1  0  0.114388  0  0.936677  0  0  0.124176  0  0.996332  0  0  0.126301  0  0.995476  0  0.152705  0  0.12063  0.122447  0  0.997224  0
H  H41  1  0.95623053  0.61711127  0.32301791  1  0  0.114409  0  0.936667  0  0  0.12419  0  0.996313  0  0  0.126316  0  0.995457  0  0.152718  0  0.120636  0.122461  0  0.997205  0
H  H42  1  0.45622959  0.88288970  0.67698264  1  0  0.114412  0  0.936655  0  0  0.124187  0  0.996319  0  0  0.126312  0  0.995463  0  0.152718  0  0.120633  0.122458  0  0.99721  0
H  H43  1  0.04376852  0.11711028  0.17698319  1  0  0.114425  0  0.936595  0  0  0.124192  0  0.996299  0  0  0.126318  0  0.995443  0  0.152606  0  0.120626  0.122464  0  0.997191  0
H  H44  1  0.48756159  0.66366712  0.94509341  1  0  0.112221  0  0.950842  0  0  0.121299  0  1.014275  0  0  0.123875  0  1.012931  0  0.145685  0  0.118125  0.119353  0  1.015372  0
H  H45  1  0.01243794  0.33633187  0.44509397  1  0  0.11225  0  0.950839  0  0  0.121323  0  1.014269  0  0  0.1239  0  1.012924  0  0.145697  0  0.118132  0.119378  0  1.015363  0
H  H46  1  0.51244030  0.16366713  0.55490548  1  0  0.112245  0  0.95084  0  0  0.121304  0  1.014295  0  0  0.12388  0  1.012951  0  0.145655  0  0.118132  0.119359  0  1.01539  0
H  H47  1  0.98756111  0.83633285  0.05490714  1  0  0.112241  0  0.95081  0  0  0.121304  0  1.014257  0  0  0.123879  0  1.012913  0  0.145646  0  0.118119  0.11936  0  1.015351  0
H  H48  1  0.64523389  0.76998265  0.89432295  1  0  0.115074  0  0.918611  0  0  0.122854  0  0.984871  0  0  0.12471  0  0.984028  0  0.122449  0  0.120528  0.121469  0  0.985541  0
H  H49  1  0.85476610  0.23001832  0.39432406  1  0  0.115149  0  0.918636  0  0  0.122945  0  0.984859  0  0  0.124799  0  0.98402  0  0.122586  0  0.120564  0.121559  0  0.985529  0
H  H50  1  0.35476516  0.26998463  0.60567594  1  0  0.115143  0  0.918615  0  0  0.122932  0  0.984859  0  0  0.124788  0  0.984017  0  0.122604  0  0.120558  0.121546  0  0.985529  0
H  H51  1  0.14523436  0.73001832  0.10567594  1  0  0.115146  0  0.918609  0  0  0.122934  0  0.984835  0  0  0.124789  0  0.983995  0  0.12245  0  0.120558  0.121548  0  0.985505  0
H  H52  1  0.51001359  0.74154360  0.78045688  1  0  0.143841  0  0.926098  0  0  0.155727  0  0.986141  0  0  0.15889  0  0.984045  0  0.149724  0  0.126828  0.153345  0  0.987973  0
H  H53  1  0.98998782  0.25845638  0.28045632  1  0  0.14383  0  0.926139  0  0  0.155715  0  0.986184  0  0  0.158879  0  0.984089  0  0.149744  0  0.126826  0.153333  0  0.988018  0
H  H54  1  0.48998546  0.24154756  0.71954092  1  0  0.143829  0  0.926121  0  0  0.155705  0  0.986164  0  0  0.158868  0  0.984071  0  0.149706  0  0.126813  0.153324  0  0.987996  0
H  H55  1  0.01001548  0.75845440  0.21954312  1  0  0.143846  0  0.926117  0  0  0.155727  0  0.986151  0  0  0.15889  0  0.984057  0  0.149761  0  0.126811  0.153344  0  0.987984  0
H  H56  1  0.33061559  0.67448066  0.83643318  1  0  0.127694  0  0.936831  0  0  0.137087  0  1.002796  0  0  0.139832  0  1.001292  0  0.110988  0  0.115494  0.135083  0  1.004069  0
H  H57  1  0.16938535  0.32552031  0.33643263  1  0  0.12771  0  0.9368  0  0  0.13708  0  1.00279  0  0  0.139824  0  1.001284  0  0.110979  0  0.115489  0.135078  0  1.004063  0
H  H58  1  0.66938487  0.17448067  0.66356737  1  0  0.127727  0  0.93684  0  0  0.13709  0  1.002828  0  0  0.139835  0  1.001322  0  0.110986  0  0.115492  0.135088  0  1.0041  0
H  H59  1  0.83061654  0.82552030  0.16356848  1  0  0.127753  0  0.936817  0  0  0.137119  0  1.002796  0  0  0.139864  0  1.001291  0  0.11102  0  0.115504  0.135115  0  1.00407  0
H  H60  1  0.91396702  0.68470998  0.95238137  1  0  0.110805  0  0.965901  0  0  0.11496  0  1.03693  0  0  0.117594  0  1.0353  0  0.159831  0  0.109071  0.11301  0  1.03823  0
H  H61  1  0.58603298  0.31528901  0.45238247  1  0  0.110819  0  0.965894  0  0  0.114957  0  1.036928  0  0  0.11759  0  1.035301  0  0.159796  0  0.109072  0.113007  0  1.038227  0
H  H62  1  0.08603345  0.18470999  0.54761753  1  0  0.110846  0  0.965888  0  0  0.114994  0  1.036921  0  0  0.11763  0  1.035292  0  0.159827  0  0.109083  0.113045  0  1.03822  0
H  H63  1  0.41396607  0.81528999  0.04761753  1  0  0.110847  0  0.965898  0  0  0.114988  0  1.036922  0  0  0.117623  0  1.035292  0  0.159845  0  0.109084  0.113039  0  1.038221  0
H  H64  1  0.75233326  0.61580739  0.01860513  1  0  0.107273  0  0.926552  0  0  0.118162  0  0.99009  0  0  0.119595  0  0.989658  0  0.119758  0  0.112985  0.116978  0  0.9906  0
H  H65  1  0.74766673  0.38419160  0.51860623  1  0  0.107268  0  0.926556  0  0  0.118138  0  0.990102  0  0  0.119571  0  0.989672  0  0.11973  0  0.112978  0.116955  0  0.990611  0
H  H66  1  0.24766721  0.11580740  0.48139377  1  0  0.107287  0  0.926571  0  0  0.118166  0  0.990112  0  0  0.119601  0  0.989682  0  0.119708  0  0.112996  0.116983  0  0.990622  0
H  H67  1  0.25233090  0.88419258  0.98139377  1  0  0.107281  0  0.92657  0  0  0.11815  0  0.990109  0  0  0.119583  0  0.989679  0  0.119709  0  0.112987  0.116967  0  0.990619  0
C  C68  1  0.92205557  0.49356960  0.85704988  1  0  -0.047245  0  3.460512  0  0  -0.100981  0  3.69707  0  0  -0.099218  0  3.707782  0  0.174742  0  -0.055869  -0.101963  0  3.689479  0
C  C69  1  0.57794725  0.50643039  0.35704932  1  0  -0.047208  0  3.460487  0  0  -0.10087  0  3.696956  0  0  -0.099122  0  3.70766  0  0.17468  0  -0.055829  -0.101851  0  3.689365  0
C  C70  1  0.07794773  0.99356959  0.64295123  1  0  -0.047292  0  3.460417  0  0  -0.100948  0  3.696915  0  0  -0.099198  0  3.707622  0  0.174677  0  -0.055858  -0.101927  0  3.689321  0
C  C71  1  0.42205321  0.00643138  0.14295012  1  0  -0.047213  0  3.460465  0  0  -0.100891  0  3.697042  0  0  -0.099124  0  3.707751  0  0.174778  0  -0.055842  -0.101872  0  3.689449  0
C  C72  1  0.78298142  0.57014912  0.80801819  1  0  -0.06318  0  3.478635  0  0  -0.117734  0  3.715812  0  0  -0.116617  0  3.726934  0  0.178854  0  -0.061434  -0.118588  0  3.708679  0
C  C73  1  0.71701716  0.42984987  0.30801764  1  0  -0.063159  0  3.478658  0  0  -0.117736  0  3.715833  0  0  -0.11662  0  3.726955  0  0.178857  0  -0.06143  -0.11859  0  3.7087  0
C  C74  1  0.21701621  0.07015209  0.69198126  1  0  -0.063153  0  3.478586  0  0  -0.117729  0  3.715761  0  0  -0.116612  0  3.726881  0  0.178854  0  -0.061421  -0.118583  0  3.708628  0
C  C75  1  0.28298614  0.92984987  0.19198236  1  0  -0.063177  0  3.478652  0  0  -0.117766  0  3.715841  0  0  -0.116647  0  3.726958  0  0.178793  0  -0.06144  -0.118619  0  3.708708  0
C  C76  1  0.66894738  0.40037682  0.93330670  1  0  -0.051116  0  3.472169  0  0  -0.105188  0  3.708467  0  0  -0.10375  0  3.719097  0  0.137325  0  -0.057862  -0.106082  0  3.701564  0
C  C77  1  0.83105261  0.59962119  0.43330725  1  0  -0.05115  0  3.472137  0  0  -0.105251  0  3.708356  0  0  -0.103828  0  3.71897  0  0.137359  0  -0.057923  -0.106144  0  3.701453  0
C  C78  1  0.33105308  0.90037780  0.56669330  1  0  -0.051099  0  3.472162  0  0  -0.105167  0  3.708425  0  0  -0.103737  0  3.719042  0  0.137342  0  -0.057871  -0.106061  0  3.701522  0
C  C79  1  0.16894644  0.09962317  0.06669441  1  0  -0.051181  0  3.472064  0  0  -0.105194  0  3.70828  0  0  -0.103753  0  3.718902  0  0.137371  0  -0.057896  -0.106089  0  3.701377  0
C  C80  1  0.98183272  0.41911245  0.98714301  1  0  -0.210646  0  3.517424  0  0  -0.266128  0  3.754483  0  0  -0.26912  0  3.760641  0  0.093002  0  -0.070523  -0.264178  0  3.750793  0
C  C81  1  0.51816869  0.58088655  0.48714301  1  0  -0.210636  0  3.517673  0  0  -0.266101  0  3.754668  0  0  -0.269109  0  3.760817  0  0.092724  0  -0.070493  -0.264144  0  3.750982  0
C  C82  1  0.01817058  0.91911145  0.51285699  1  0  -0.210586  0  3.517511  0  0  -0.265969  0  3.754449  0  0  -0.268972  0  3.760604  0  0.092985  0  -0.070428  -0.26402  0  3.750758  0
C  C83  1  0.48183320  0.08088754  0.01285699  1  0  -0.210654  0  3.517486  0  0  -0.266129  0  3.75455  0  0  -0.269123  0  3.760711  0  0.092897  0  -0.070507  -0.264173  0  3.750866  0
C  C84  1  0.53728503  0.44616657  0.87169468  1  0  -0.054471  0  3.491962  0  0  -0.107762  0  3.728737  0  0  -0.105794  0  3.739252  0  0.196539  0  -0.058753  -0.108903  0  3.721702  0
C  C85  1  0.96271496  0.55383243  0.37169468  1  0  -0.054514  0  3.491769  0  0  -0.107794  0  3.728522  0  0  -0.105828  0  3.739038  0  0.196547  0  -0.058779  -0.108936  0  3.721492  0
C  C86  1  0.46271544  0.94616755  0.62830532  1  0  -0.054544  0  3.49188  0  0  -0.107804  0  3.728611  0  0  -0.105837  0  3.739126  0  0.196538  0  -0.058772  -0.108946  0  3.721582  0
C  C87  1  0.03728409  0.05383244  0.12830587  1  0  -0.054481  0  3.491808  0  0  -0.107813  0  3.728681  0  0  -0.105847  0  3.739195  0  0.196618  0  -0.058752  -0.108955  0  3.721651  0
C  C88  1  0.62112255  0.66923552  0.91434059  1  0  -0.060569  0  3.472183  0  0  -0.113996  0  3.710749  0  0  -0.11263  0  3.721204  0  0.168098  0  -0.059274  -0.114757  0  3.703585  0
C  C89  1  0.87887744  0.33076150  0.41434059  1  0  -0.060726  0  3.472275  0  0  -0.114179  0  3.710854  0  0  -0.112813  0  3.721309  0  0.167926  0  -0.059364  -0.114938  0  3.703691  0
C  C90  1  0.37887792  0.16923750  0.58565886  1  0  -0.060713  0  3.47224  0  0  -0.114153  0  3.710824  0  0  -0.112787  0  3.72128  0  0.16794  0  -0.059364  -0.114913  0  3.703661  0
C  C91  1  0.12112161  0.83076347  0.08565996  1  0  -0.060681  0  3.472199  0  0  -0.114093  0  3.710739  0  0  -0.112725  0  3.721191  0  0.168134  0  -0.059313  -0.114854  0  3.703578  0
C  C92  1  0.44821749  0.64804240  0.79969303  1  0  -0.202412  0  3.497656  0  0  -0.258073  0  3.737804  0  0  -0.260706  0  3.743801  0  0.179529  0  -0.061713  -0.256294  0  3.733897  0
C  C93  1  0.05178062  0.35195758  0.29969248  1  0  -0.202449  0  3.497692  0  0  -0.258097  0  3.737835  0  0  -0.260726  0  3.743829  0  0.179546  0  -0.061701  -0.256321  0  3.733928  0
C  C94  1  0.55177873  0.14804538  0.70030642  1  0  -0.202569  0  3.497845  0  0  -0.258175  0  3.737951  0  0  -0.260809  0  3.743949  0  0.179502  0  -0.061743  -0.256399  0  3.734045  0
C  C95  1  0.94822126  0.85195659  0.20030807  1  0  -0.202609  0  3.497797  0  0  -0.258198  0  3.737892  0  0  -0.26083  0  3.743886  0  0.179249  0  -0.061725  -0.256418  0  3.73399  0
C  C96  1  0.36979546  0.56923473  0.73436208  1  0  0.679286  0  3.894141  0  0  0.632676  0  4.196165  0  0  0.665964  0  4.189477  0  1.617343  0  0.203184  0.61003  0  4.199854  0
C  C97  1  0.13020548  0.43076624  0.23436153  1  0  0.679302  0  3.894062  0  0  0.632711  0  4.196062  0  0  0.665996  0  4.18938  0  1.617384  0  0.203181  0.610068  0  4.19975  0
C  C98  1  0.63020076  0.06924067  0.76563847  1  0  0.679379  0  3.894047  0  0  0.632759  0  4.196076  0  0  0.666048  0  4.189388  0  1.617374  0  0.203227  0.610114  0  4.199764  0
C  C99  1  0.86979782  0.93076327  0.26563902  1  0  0.679325  0  3.89408  0  0  0.632711  0  4.196101  0  0  0.666  0  4.189411  0  1.61738  0  0.203167  0.610064  0  4.199791  0
C  C100  1  0.17012865  0.48746740  0.00275448  1  0  0.69321  0  3.869626  0  0  0.6418  0  4.17743  0  0  0.675878  0  4.168271  0  1.641482  0  0.212301  0.618569  0  4.18296  0
C  C101  1  0.32987937  0.51253061  0.50275338  1  0  0.693122  0  3.869866  0  0  0.641774  0  4.177556  0  0  0.675853  0  4.168397  0  1.640804  0  0.212301  0.618545  0  4.183083  0
C  C102  1  0.82987040  0.98747134  0.49724718  1  0  0.693058  0  3.869964  0  0  0.641591  0  4.177829  0  0  0.675666  0  4.168677  0  1.641621  0  0.212201  0.618363  0  4.183354  0
C  C103  1  0.67012817  0.01253161  0.99724552  1  0  0.693194  0  3.869643  0  0  0.64178  0  4.177454  0  0  0.675858  0  4.168297  0  1.641513  0  0.212265  0.61855  0  4.182981  0
C  C104  1  0.78992033  0.62163676  0.95997796  1  0  -0.057545  0  3.48282  0  0  -0.113104  0  3.720395  0  0  -0.111329  0  3.730728  0  0.170158  0  -0.062625  -0.114181  0  3.713558  0
C  C105  1  0.71007824  0.37836322  0.45997906  1  0  -0.057587  0  3.482889  0  0  -0.113088  0  3.720404  0  0  -0.111329  0  3.730726  0  0.170165  0  -0.062598  -0.114165  0  3.713567  0
C  C106  1  0.21008013  0.12163578  0.54002094  1  0  -0.057677  0  3.482962  0  0  -0.113218  0  3.720533  0  0  -0.111459  0  3.730862  0  0.170171  0  -0.062631  -0.114295  0  3.713697  0
C  C107  1  0.28991939  0.87836420  0.04002094  1  0  -0.057661  0  3.482941  0  0  -0.11315  0  3.720433  0  0  -0.111378  0  3.730767  0  0.170181  0  -0.06262  -0.114228  0  3.713598  0
N  N108  1  0.84524191  0.48487151  0.93470212  1  0  0.099523  0  3.319555  0  0  0.197025  0  3.531  0  0  0.188837  0  3.552018  0  -0.924595  0  -0.212392  0.202404  0  3.516764  0
N  N109  1  0.65475808  0.51512649  0.43470322  1  0  0.099527  0  3.319655  0  0  0.197  0  3.531079  0  0  0.188878  0  3.552003  0  -0.924612  0  -0.212391  0.202373  0  3.516849  0
N  N110  1  0.15475856  0.98487249  0.56529733  1  0  0.099609  0  3.319637  0  0  0.197085  0  3.531052  0  0  0.188946  0  3.552003  0  -0.924605  0  -0.212374  0.202458  0  3.516824  0
N  N111  1  0.34524097  0.01512749  0.06529678  1  0  0.099542  0  3.319568  0  0  0.197016  0  3.530963  0  0  0.188826  0  3.551981  0  -0.924594  0  -0.212407  0.202394  0  3.516729  0
N  N112  1  0.59584316  0.58234661  0.84708956  1  0  0.102884  0  3.33225  0  0  0.197625  0  3.54686  0  0  0.189512  0  3.567781  0  -0.935933  0  -0.214483  0.203081  0  3.532519  0
N  N113  1  0.90415400  0.41765239  0.34709011  1  0  0.102945  0  3.332153  0  0  0.19767  0  3.546783  0  0  0.189557  0  3.567704  0  -0.935912  0  -0.214451  0.203127  0  3.53244  0
N  N114  1  0.40415447  0.08234760  0.65290989  1  0  0.102983  0  3.332256  0  0  0.19772  0  3.546857  0  0  0.189607  0  3.567778  0  -0.935925  0  -0.214445  0.203177  0  3.532514  0
N  N115  1  0.09584505  0.91765337  0.15291044  1  0  0.103022  0  3.332161  0  0  0.197722  0  3.546865  0  0  0.189608  0  3.567788  0  -0.9357  0  -0.21445  0.203177  0  3.532524  0
Cl  Cl116  1  0.68803116  0.30522478  0.12916506  1  0  -0.574045  0  0.934876  0  0  -0.506932  0  1.204681  0  0  -0.523993  0  1.182046  0  -0.674712  0  -0.290964  -0.494639  0  1.219972  0
Cl  Cl117  1  0.81196883  0.69477422  0.62916671  1  0  -0.574029  0  0.934866  0  0  -0.506946  0  1.204699  0  0  -0.524007  0  1.182065  0  -0.674728  0  -0.290961  -0.494654  0  1.219991  0
Cl  Cl118  1  0.31196789  0.80522675  0.37083439  1  0  -0.574018  0  0.934869  0  0  -0.506923  0  1.204698  0  0  -0.523982  0  1.182063  0  -0.674713  0  -0.290956  -0.494632  0  1.21999  0
Cl  Cl119  1  0.18803164  0.19477521  0.87083384  1  0  -0.574022  0  0.934851  0  0  -0.506946  0  1.204687  0  0  -0.524006  0  1.182053  0  -0.674711  0  -0.290961  -0.494647  0  1.219973  0
Cl  Cl120  1  0.55141770  0.65096549  0.14683053  1  0  -0.561201  0  0.975192  0  0  -0.497281  0  1.264296  0  0  -0.512148  0  1.236344  0  -0.648792  0  -0.285605  -0.486901  0  1.283625  0
Cl  Cl121  1  0.94858229  0.34903351  0.64683053  1  0  -0.5612  0  0.975191  0  0  -0.497276  0  1.264298  0  0  -0.512147  0  1.236348  0  -0.648776  0  -0.285602  -0.486898  0  1.283626  0
Cl  Cl122  1  0.44858843  0.15096451  0.35316616  1  0  -0.561226  0  0.975228  0  0  -0.497288  0  1.264318  0  0  -0.512153  0  1.236364  0  -0.648751  0  -0.285604  -0.486914  0  1.283651  0
Cl  Cl123  1  0.05140826  0.84903449  0.85316892  1  0  -0.561214  0  0.975232  0  0  -0.497296  0  1.264339  0  0  -0.512155  0  1.236379  0  -0.64877  0  -0.285602  -0.486917  0  1.28367  0
O  O124  1  0.22798879  0.63269941  0.70646073  1  0  -0.641675  0  2.044158  0  0  -0.569489  0  2.316315  0  0  -0.599356  0  2.302646  0  -1.17382  0  -0.340585  -0.548411  0  2.325023  0
O  O125  1  0.27200932  0.36730354  0.20646073  1  0  -0.641607  0  2.044158  0  0  -0.56945  0  2.316332  0  0  -0.599314  0  2.302664  0  -1.173864  0  -0.340563  -0.548373  0  2.32504  0
O  O126  1  0.77199894  0.13270634  0.79354257  1  0  -0.64165  0  2.044216  0  0  -0.569476  0  2.31639  0  0  -0.59934  0  2.302719  0  -1.173872  0  -0.340573  -0.548398  0  2.325098  0
O  O127  1  0.72799822  0.86729958  0.29354202  1  0  -0.641612  0  2.044197  0  0  -0.56943  0  2.316367  0  0  -0.599295  0  2.302697  0  -1.173893  0  -0.340565  -0.548352  0  2.325074  0
O  O128  1  0.43600466  0.46147101  0.71395260  1  0  -0.603117  0  1.924813  0  0  -0.564031  0  2.151654  0  0  -0.586094  0  2.143121  0  -1.179913  0  -0.319038  -0.548507  0  2.157064  0
O  O129  1  0.06399345  0.53853194  0.21395260  1  0  -0.603166  0  1.924756  0  0  -0.564081  0  2.151574  0  0  -0.586147  0  2.143055  0  -1.179917  0  -0.319051  -0.548553  0  2.156979  0
O  O130  1  0.56399297  0.96147298  0.78604740  1  0  -0.60317  0  1.924637  0  0  -0.564081  0  2.151487  0  0  -0.586143  0  2.142951  0  -1.179833  0  -0.319079  -0.54856  0  2.156905  0
O  O131  1  0.93600702  0.03853195  0.28604740  1  0  -0.603166  0  1.92471  0  0  -0.564084  0  2.151557  0  0  -0.586153  0  2.143031  0  -1.179912  0  -0.319049  -0.548556  0  2.156961  0
O  O132  1  0.27680894  0.41159961  0.04208046  1  0  -0.659225  0  2.081153  0  0  -0.586247  0  2.363027  0  0  -0.614509  0  2.346246  0  -1.204249  0  -0.336347  -0.566154  0  2.373755  0
O  O133  1  0.22319767  0.58839938  0.54207991  1  0  -0.65918  0  2.081106  0  0  -0.586218  0  2.36293  0  0  -0.61448  0  2.346146  0  -1.204151  0  -0.336319  -0.566125  0  2.373656  0
O  O134  1  0.72319436  0.91159763  0.45792009  1  0  -0.659205  0  2.081129  0  0  -0.586217  0  2.363009  0  0  -0.614479  0  2.34623  0  -1.204217  0  -0.336353  -0.566124  0  2.373735  0
O  O135  1  0.77680846  0.08840137  0.95792009  1  0  -0.659237  0  2.081165  0  0  -0.586237  0  2.362993  0  0  -0.614497  0  2.346211  0  -1.20428  0  -0.336332  -0.566143  0  2.373719  0
O  O136  1  0.20907774  0.59965677  0.97871370  1  0  -0.602467  0  1.948481  0  0  -0.552183  0  2.177692  0  0  -0.57511  0  2.170716  0  -1.189068  0  -0.310184  -0.536318  0  2.182149  0
O  O137  1  0.29092037  0.40033926  0.47871425  1  0  -0.602482  0  1.948543  0  0  -0.552209  0  2.177703  0  0  -0.575136  0  2.170724  0  -1.188308  0  -0.310228  -0.536344  0  2.18216  0
O  O138  1  0.79092698  0.09965085  0.52128575  1  0  -0.60236  0  1.948822  0  0  -0.552051  0  2.178061  0  0  -0.574974  0  2.171087  0  -1.189194  0  -0.310115  -0.536188  0  2.182515  0
O  O139  1  0.70907585  0.90034320  0.02128520  1  0  -0.602452  0  1.948472  0  0  -0.552162  0  2.177687  0  0  -0.575089  0  2.170713  0  -1.189078  0  -0.31017  -0.536298  0  2.182141  0
