# generated using pymatgen
data_Pr3H50C63N3O22
_symmetry_space_group_name_H-M   'P 1'
_cell_length_a   13.48871737
_cell_length_b   13.94869111
_cell_length_c   22.10178779
_cell_angle_alpha   74.95138896
_cell_angle_beta   88.68725835
_cell_angle_gamma   76.42090353
_symmetry_Int_Tables_number   1
_chemical_formula_structural   Pr3H50C63N3O22
_chemical_formula_sum   'Pr6 H100 C126 N6 O44'
_cell_volume   3900.37587912
_cell_formula_units_Z   2
loop_
 _symmetry_equiv_pos_site_id
 _symmetry_equiv_pos_as_xyz
  1  'x, y, z'
loop_
 _atom_site_type_symbol
 _atom_site_label
 _atom_site_symmetry_multiplicity
 _atom_site_fract_x
 _atom_site_fract_y
 _atom_site_fract_z
 _atom_site_occupancy
 _atom_site_pbe_bader_charge
 _atom_site_pbe_bader_spin_density
 _atom_site_pbe_cm5_charge
 _atom_site_pbe_ddec_charge
 _atom_site_pbe_ddec_spin_density
 _atom_site_pbe_ddec_sum_bond_order
 _atom_site_pbe_magmom
Pr  Pr0  1  0.78398350  0.37657245  0.73816852  1  2.289627  0  1.49583  2.17059  0  2.12832  0
Pr  Pr1  1  0.21601705  0.62342697  0.26183160  1  2.289695  0  1.495838  2.170598  0  2.128328  0
Pr  Pr2  1  0.81019151  0.69735999  0.72427056  1  2.280591  0  1.524852  2.143625  0  2.18733  0
Pr  Pr3  1  0.18980903  0.30263943  0.27573046  1  2.280622  0  1.524887  2.143688  0  2.187255  0
Pr  Pr4  1  0.87268655  0.09921430  0.67561874  1  2.285472  0  1.509623  2.150575  0  2.196736  0
Pr  Pr5  1  0.12731326  0.90078512  0.32438093  1  2.285455  0  1.509617  2.15055  0  2.196757  0
H  H6  1  0.45846417  0.48924762  0.70284865  1  0.082221  0  0.105038  0.107455  0  1.023389  0
H  H7  1  0.54153619  0.51075256  0.29715134  1  0.082213  0  0.105037  0.107435  0  1.023351  0
H  H8  1  0.26887442  0.53680385  0.70922774  1  0.04501  0  0.099553  0.099969  0  1.024061  0
H  H9  1  0.73112595  0.46319634  0.29077225  1  0.045  0  0.09954  0.099935  0  1.024095  0
H  H10  1  0.11034109  0.66369904  0.72141315  1  0.135756  0  0.11221  0.129583  0  1.020197  0
H  H11  1  0.88965892  0.33630267  0.27858524  1  0.135732  0  0.112241  0.129602  0  1.020181  0
H  H12  1  0.12938379  0.96094134  0.73520828  1  0.113689  0  0.11322  0.109327  0  1.014832  0
H  H13  1  0.87061658  0.03905884  0.26479217  1  0.113694  0  0.113225  0.109336  0  1.014828  0
H  H14  1  0.31763573  0.91620697  0.72408619  1  0.069759  0  0.098549  0.098671  0  1.018186  0
H  H15  1  0.68236537  0.08379321  0.27591470  1  0.069791  0  0.098531  0.098626  0  1.018198  0
H  H16  1  0.47663512  0.78847955  0.71198676  1  0.107697  0  0.11143  0.120489  0  0.998001  0
H  H17  1  0.52336598  0.21152063  0.28801367  1  0.107712  0  0.111436  0.120483  0  0.998056  0
H  H18  1  0.86676521  0.62159013  0.89986391  1  0.100765  0  0.109466  0.113882  0  1.027835  0
H  H19  1  0.13323534  0.37840929  0.10013620  1  0.100738  0  0.109462  0.113912  0  1.02781  0
H  H20  1  0.10247044  0.29610529  0.01666994  1  0.055885  0  0.097441  0.095557  0  1.018365  0
H  H21  1  0.89753010  0.70389413  0.98333063  1  0.055894  0  0.097446  0.09557  0  1.018383  0
H  H22  1  0.01630314  0.30806400  0.91502394  1  0.106563  0  0.104654  0.109692  0  1.010288  0
H  H23  1  0.98369685  0.69193465  0.08497676  1  0.106572  0  0.104658  0.109694  0  1.010248  0
H  H24  1  0.45446279  0.32302865  0.76130199  1  0.074238  0  0.103081  0.105248  0  1.021342  0
H  H25  1  0.54553795  0.67697307  0.23869730  1  0.074255  0  0.103084  0.10524  0  1.021302  0
H  H26  1  0.26853945  0.37656018  0.77788096  1  0.05865  0  0.102764  0.104273  0  1.002458  0
H  H27  1  0.73146017  0.62344000  0.22211859  1  0.058643  0  0.102761  0.10427  0  1.002455  0
H  H28  1  0.60672421  0.38023665  0.81654201  1  0.61933  0  0.320831  0.403806  0  0.894725  0
H  H29  1  0.39327598  0.61976430  0.18345832  1  0.619315  0  0.320823  0.403787  0  0.894815  0
H  H30  1  0.70516179  0.32415969  0.85777124  1  0.639873  0  0.314972  0.408008  0  0.900009  0
H  H31  1  0.29483894  0.67583897  0.14222900  1  0.639886  0  0.314986  0.408028  0  0.899985  0
H  H32  1  0.09022424  0.36676089  0.75797546  1  0.11738  0  0.113224  0.125463  0  0.995885  0
H  H33  1  0.90977371  0.63324005  0.24202579  1  0.117624  0  0.113227  0.125454  0  0.995911  0
H  H34  1  0.20171683  0.12246617  0.67097159  1  0.08706  0  0.105253  0.107386  0  1.022587  0
H  H35  1  0.79828408  0.87753172  0.32902832  1  0.08707  0  0.105255  0.1074  0  1.022585  0
H  H36  1  0.39070983  0.05779491  0.66309129  1  0.045765  0  0.098739  0.096961  0  1.018841  0
H  H37  1  0.60929054  0.94220527  0.33690870  1  0.045794  0  0.09874  0.096975  0  1.018818  0
H  H38  1  0.56737173  0.07427225  0.67833628  1  0.115848  0  0.102745  0.10822  0  1.038442  0
H  H39  1  0.43262882  0.92572716  0.32166429  1  0.115857  0  0.102747  0.108208  0  1.038448  0
H  H40  1  0.12852652  0.53999923  0.62965378  1  0.0754  0  0.103953  0.102414  0  1.018299  0
H  H41  1  0.87147237  0.46000095  0.37034442  1  0.075578  0  0.10396  0.102411  0  1.018331  0
H  H42  1  0.19129714  0.52997873  0.52367176  1  0.058065  0  0.098239  0.098088  0  1.029731  0
H  H43  1  0.80870416  0.47002069  0.47632654  1  0.058089  0  0.098237  0.098101  0  1.029774  0
H  H44  1  0.84188136  0.48807718  0.58264483  1  0.102925  0  0.110909  0.109142  0  1.033871  0
H  H45  1  0.15811883  0.51192377  0.41735413  1  0.102884  0  0.110899  0.109131  0  1.03388  0
H  H46  1  0.89369329  0.19515493  0.93418817  1  0.120025  0  0.108771  0.115681  0  1.009588  0
H  H47  1  0.10630671  0.80484373  0.06581072  1  0.120257  0  0.108752  0.115648  0  1.0096  0
H  H48  1  0.04394807  0.82395775  0.95687265  1  0.053859  0  0.102178  0.105409  0  1.004343  0
H  H49  1  0.95605322  0.17604167  0.04312746  1  0.053555  0  0.102193  0.105424  0  1.004309  0
H  H50  1  0.95771923  0.93698576  0.85550657  1  0.109887  0  0.108056  0.121901  0  1.004723  0
H  H51  1  0.04228150  0.06301290  0.14449276  1  0.109944  0  0.108066  0.121919  0  1.004685  0
H  H52  1  0.60889343  0.46426489  0.61273596  1  0.117584  0  0.110957  0.116336  0  1.050564  0
H  H53  1  0.39110620  0.53573529  0.38726450  1  0.117602  0  0.110962  0.116326  0  1.050566  0
H  H54  1  0.54972065  0.39740567  0.40675765  1  0.097217  0  0.097228  0.099319  0  1.054857  0
H  H55  1  0.45027953  0.60259527  0.59324312  1  0.097167  0  0.097214  0.099298  0  1.054853  0
H  H56  1  0.70176491  0.29468743  0.47540331  1  0.095792  0  0.10577  0.10952  0  1.014773  0
H  H57  1  0.29823471  0.70531275  0.52459759  1  0.095778  0  0.105771  0.109506  0  1.014762  0
H  H58  1  0.67101888  0.13208113  0.54880908  1  0.130263  0  0.108187  0.109555  0  1.04435  0
H  H59  1  0.32898149  0.86791905  0.45119091  1  0.13028  0  0.108202  0.109569  0  1.044328  0
H  H60  1  0.54999084  0.18835539  0.45554860  1  0.045204  0  0.098229  0.099814  0  1.016101  0
H  H61  1  0.45000952  0.81164479  0.54445140  1  0.045211  0  0.098225  0.099831  0  1.016085  0
H  H62  1  0.57877508  0.84880098  0.60930777  1  0.093472  0  0.10881  0.113065  0  1.025633  0
H  H63  1  0.42122528  0.15119921  0.39069222  1  0.093477  0  0.108799  0.11305  0  1.025645  0
H  H64  1  0.71697724  0.64711844  0.59284723  1  0.095929  0  0.134343  0.055007  0  1.00495  0
H  H65  1  0.28302313  0.35288174  0.40715321  1  0.095923  0  0.134341  0.055009  0  1.004952  0
H  H66  1  0.65146308  0.64055492  0.50657809  1  0.071615  0  0.10588  0.11677  0  1.024185  0
H  H67  1  0.34853729  0.35944526  0.49342236  1  0.07161  0  0.105869  0.116758  0  1.024205  0
H  H68  1  0.72216039  0.67444118  0.43809434  1  0.075312  0  0.106044  0.123131  0  0.992421  0
H  H69  1  0.27784072  0.32555900  0.56190610  1  0.075293  0  0.106032  0.123137  0  0.992423  0
H  H70  1  0.61041685  0.76297732  0.45195009  1  0.086994  0  0.103446  0.120405  0  1.00275  0
H  H71  1  0.38958444  0.23702209  0.54805047  1  0.086968  0  0.103445  0.120406  0  1.002728  0
H  H72  1  0.72211068  0.89118264  0.44881218  1  0.071985  0  0.106619  0.118838  0  0.98792  0
H  H73  1  0.27789042  0.10881754  0.55118825  1  0.071976  0  0.106613  0.118825  0  0.987925  0
H  H74  1  0.83698106  0.80115423  0.44021310  1  0.083884  0  0.113762  0.135409  0  0.978622  0
H  H75  1  0.16301949  0.19884519  0.55978746  1  0.083862  0  0.113754  0.135403  0  0.978621  0
H  H76  1  0.82374797  0.85284289  0.50707541  1  0.11028  0  0.11411  0.130573  0  1.013969  0
H  H77  1  0.17625332  0.14715653  0.49292469  1  0.110298  0  0.114119  0.13058  0  1.013975  0
H  H78  1  0.75040351  0.92227057  0.77614321  1  0.115552  0  0.13836  0.050367  0  1.022585  0
H  H79  1  0.24959667  0.07773037  0.22385712  1  0.115579  0  0.138345  0.050348  0  1.022537  0
H  H80  1  0.70211176  0.04592022  0.81950446  1  0.11236  0  0.116775  0.135524  0  1.019552  0
H  H81  1  0.29788860  0.95407996  0.18049599  1  0.112348  0  0.116774  0.135546  0  1.019542  0
H  H82  1  0.71816309  0.01271710  0.90296958  1  0.059066  0  0.104359  0.117901  0  0.991384  0
H  H83  1  0.28183727  0.98728308  0.09703087  1  0.059079  0  0.104346  0.117895  0  0.99141  0
H  H84  1  0.59407299  0.03685262  0.86697783  1  0.057524  0  0.103952  0.115121  0  0.980416  0
H  H85  1  0.40592663  0.96314756  0.13302262  1  0.057531  0  0.103966  0.115125  0  0.980439  0
H  H86  1  0.67919472  0.75100821  0.91231235  1  0.097381  0  0.122286  0.145281  0  0.984445  0
H  H87  1  0.32080565  0.24899197  0.08768764  1  0.097372  0  0.122304  0.14533  0  0.984468  0
H  H88  1  0.58342532  0.85380366  0.92819763  1  0.057172  0  0.109058  0.11721  0  0.976493  0
H  H89  1  0.41657523  0.14619575  0.07180294  1  0.057163  0  0.109033  0.117193  0  0.976499  0
H  H90  1  0.70988181  0.82530895  0.96135185  1  0.036003  0  0.107042  0.114953  0  0.985399  0
H  H91  1  0.29011874  0.17469047  0.03864871  1  0.03602  0  0.107056  0.114974  0  0.985416  0
H  H92  1  0.92163641  0.90218466  0.59748207  1  0.103052  0  0.132291  0.053328  0  1.018758  0
H  H93  1  0.07836396  0.09781552  0.40251747  1  0.103036  0  0.1323  0.053392  0  1.018694  0
H  H94  1  0.15111162  0.98984585  0.55974514  1  0.106724  0  0.111796  0.129957  0  1.015628  0
H  H95  1  0.84888800  0.01015433  0.44025486  1  0.106722  0  0.111791  0.129939  0  1.015641  0
H  H96  1  0.17823551  0.91917177  0.50121385  1  0.109713  0  0.110906  0.127426  0  1.013866  0
H  H97  1  0.82176504  0.08082764  0.49878626  1  0.109714  0  0.110915  0.127422  0  1.013852  0
H  H98  1  0.22336426  0.86011509  0.58076259  1  0.080576  0  0.101931  0.113885  0  1.001503  0
H  H99  1  0.77663592  0.13988586  0.41923774  1  0.080584  0  0.10193  0.113868  0  1.001502  0
H  H100  1  0.12315503  0.72366979  0.58395231  1  0.066149  0  0.100364  0.110689  0  1.013376  0
H  H101  1  0.87684534  0.27633040  0.41604678  1  0.066151  0  0.10037  0.110686  0  1.013339  0
H  H102  1  0.07477396  0.78382423  0.50532941  1  0.099349  0  0.111066  0.137072  0  1.002353  0
H  H103  1  0.92522567  0.21617596  0.49466969  1  0.099371  0  0.111077  0.137081  0  1.002356  0
H  H104  1  0.98897909  0.76623762  0.56873755  1  0.09689  0  0.110999  0.125843  0  1.021621  0
H  H105  1  0.01102072  0.23376180  0.43126212  1  0.096887  0  0.111005  0.125848  0  1.021614  0
C  C106  1  0.59209769  0.60655003  0.70451359  1  1.567727  0  0.234032  0.640796  0  4.172083  0
C  C107  1  0.40790267  0.39345016  0.29548641  1  1.567754  0  0.234016  0.640765  0  4.172176  0
C  C108  1  0.47790557  0.63698071  0.70716770  1  -0.042432  0  -0.020892  -0.046572  0  3.977577  0
C  C109  1  0.52209480  0.36301948  0.29283230  1  -0.042356  0  -0.020869  -0.046565  0  3.977564  0
C  C110  1  0.41882885  0.56507792  0.70660726  1  -0.042891  0  -0.091529  -0.107199  0  4.013377  0
C  C111  1  0.58117078  0.43492226  0.29339229  1  -0.042989  0  -0.091524  -0.107169  0  4.013382  0
C  C112  1  0.31434644  0.59162623  0.71015070  1  -0.066284  0  -0.090725  -0.135392  0  3.99066  0
C  C113  1  0.68565282  0.40837547  0.28984815  1  -0.066192  0  -0.090733  -0.13538  0  3.990715  0
C  C114  1  0.26356645  0.69027628  0.71583946  1  0.025441  0  -0.007465  0.072564  0  4.003117  0
C  C115  1  0.73643373  0.30972467  0.28416041  1  0.02536  0  -0.007442  0.072598  0  4.003079  0
C  C116  1  0.15667447  0.71800481  0.72209850  1  -0.088402  0  -0.074087  -0.135822  0  3.900814  0
C  C117  1  0.84332627  0.28199690  0.27790033  1  -0.088368  0  -0.074147  -0.135904  0  3.900845  0
C  C118  1  0.10964352  0.81385925  0.72915439  1  -0.026615  0  -0.014397  -0.039951  0  3.958349  0
C  C119  1  0.89035666  0.18614169  0.27084458  1  -0.026724  0  -0.014396  -0.039915  0  3.958301  0
C  C120  1  0.16833995  0.88606403  0.72959425  1  -0.102142  0  -0.080518  -0.091629  0  3.982089  0
C  C121  1  0.83166041  0.11393615  0.27040574  1  -0.102138  0  -0.080523  -0.091644  0  3.982092  0
C  C122  1  0.27230962  0.86121829  0.72316093  1  -0.025562  0  -0.091012  -0.136897  0  3.994014  0
C  C123  1  0.72769074  0.13878189  0.27683951  1  -0.025569  0  -0.091004  -0.136859  0  3.994017  0
C  C124  1  0.32299901  0.76320343  0.71638076  1  -0.030234  0  -0.006333  0.073153  0  4.01314  0
C  C125  1  0.67700118  0.23679752  0.28361866  1  -0.030236  0  -0.006322  0.073191  0  4.013099  0
C  C126  1  0.43012149  0.73435213  0.71136550  1  -0.017081  0  -0.075785  -0.13501  0  3.921022  0
C  C127  1  0.56987888  0.26564805  0.28863404  1  -0.017087  0  -0.075777  -0.135003  0  3.921067  0
C  C128  1  0.88161239  0.47287122  0.84252638  1  1.582006  0  0.233633  0.642955  0  4.178025  0
C  C129  1  0.11838649  0.52712895  0.15747363  1  1.581973  0  0.233639  0.642939  0  4.177933  0
C  C130  1  0.93624830  0.46621893  0.90225220  1  0.02629  0  -0.016107  -0.034616  0  3.968813  0
C  C131  1  0.06375020  0.53377972  0.09774806  1  0.026399  0  -0.016076  -0.03458  0  3.968712  0
C  C132  1  0.91876030  0.55111145  0.92598101  1  -0.070795  0  -0.073561  -0.132473  0  3.916124  0
C  C133  1  0.08123895  0.44888720  0.07401925  1  -0.070793  0  -0.073574  -0.132547  0  3.916077  0
C  C134  1  0.96622811  0.54702601  0.98326569  1  -0.041869  0  -0.005976  0.076601  0  4.003653  0
C  C135  1  0.03377170  0.45297341  0.01673443  1  0.003046  0  -0.00597  0.07663  0  4.003598  0
C  C136  1  0.05100989  0.36728720  0.99097250  1  -0.058787  0  -0.092855  -0.139609  0  4.009987  0
C  C137  1  0.94899048  0.63271298  0.00902749  1  -0.058795  0  -0.092876  -0.139675  0  4.010043  0
C  C138  1  0.00356061  0.37334098  0.93513158  1  -0.077274  0  -0.088817  -0.103385  0  4.002412  0
C  C139  1  0.99643845  0.62665843  0.06486856  1  -0.077273  0  -0.088817  -0.103342  0  4.002342  0
C  C140  1  0.62672788  0.21596028  0.72322292  1  1.573572  0  0.227451  0.640889  0  4.172805  0
C  C141  1  0.37327249  0.78403990  0.27677662  1  1.57365  0  0.227409  0.640818  0  4.172819  0
C  C142  1  0.52051938  0.20123435  0.71982671  1  -0.049499  0  -0.020614  -0.038678  0  3.973579  0
C  C143  1  0.47948062  0.79876736  0.28017258  1  -0.049561  0  -0.020642  -0.038718  0  3.973622  0
C  C144  1  0.43959579  0.26473893  0.74041109  1  -0.039121  0  -0.083004  -0.143531  0  3.946685  0
C  C145  1  0.56040273  0.73526277  0.25958868  1  -0.039149  0  -0.082972  -0.143436  0  3.946704  0
C  C146  1  0.33810444  0.25690296  0.73345406  1  0.008914  0  -0.008171  0.075096  0  4.013722  0
C  C147  1  0.66189444  0.74309722  0.26654595  1  0.00892  0  -0.008265  0.074973  0  4.013633  0
C  C148  1  0.25378948  0.32209108  0.75361499  1  -0.023573  0  -0.091763  -0.140019  0  3.999581  0
C  C149  1  0.74620958  0.67790833  0.24638559  1  -0.023181  0  -0.091786  -0.140048  0  3.999596  0
C  C150  1  0.15537587  0.31697887  0.74281200  1  -0.073175  0  -0.082547  -0.089589  0  3.970184  0
C  C151  1  0.84462189  0.68301977  0.25718964  1  -0.073752  0  -0.082517  -0.089548  0  3.970305  0
C  C152  1  0.13679115  0.24552891  0.71149127  1  -0.035187  0  -0.014255  -0.030881  0  3.958786  0
C  C153  1  0.86321032  0.75446975  0.28850850  1  -0.035205  0  -0.014218  -0.030816  0  3.958829  0
C  C154  1  0.21765989  0.17841672  0.69356467  1  -0.048774  0  -0.08028  -0.146116  0  3.943902  0
C  C155  1  0.78234066  0.82158270  0.30643544  1  -0.048738  0  -0.080303  -0.14615  0  3.94395  0
C  C156  1  0.31965575  0.18201859  0.70381676  1  -0.033477  0  -0.008209  0.071559  0  4.015703  0
C  C157  1  0.68034572  0.81798006  0.29618483  1  -0.033748  0  -0.008173  0.071567  0  4.015698  0
C  C158  1  0.40440567  0.11553684  0.68497789  1  -0.021522  0  -0.094807  -0.144743  0  4.012672  0
C  C159  1  0.59559618  0.88446335  0.31502208  1  -0.021362  0  -0.094781  -0.144693  0  4.01271  0
C  C160  1  0.50235088  0.12443895  0.69308259  1  -0.085105  0  -0.088491  -0.092447  0  3.980279  0
C  C161  1  0.49765005  0.87556200  0.30691682  1  -0.085087  0  -0.088506  -0.092462  0  3.980299  0
C  C162  1  0.93570438  0.54170598  0.66871292  1  1.555661  0  0.20411  0.589764  0  4.238363  0
C  C163  1  0.06429507  0.45829497  0.33128650  1  1.555594  0  0.204106  0.589701  0  4.238368  0
C  C164  1  0.98040823  0.51673045  0.61103270  1  -0.051537  0  -0.010644  -0.022535  0  3.963973  0
C  C165  1  0.01959047  0.48327049  0.38896673  1  -0.051516  0  -0.010587  -0.022402  0  3.963836  0
C  C166  1  0.08072876  0.52651238  0.59512370  1  0.007194  0  -0.081005  -0.08855  0  3.985538  0
C  C167  1  0.91926882  0.47348703  0.40487600  1  0.00698  0  -0.081043  -0.088603  0  3.985664  0
C  C168  1  0.11477428  0.52122647  0.53669000  1  -0.069515  0  -0.088225  -0.129552  0  3.975518  0
C  C169  1  0.88522590  0.47877142  0.46330992  1  -0.069571  0  -0.088212  -0.129543  0  3.975521  0
C  C170  1  0.94986917  0.49337948  0.50838652  1  0.002357  0  -0.004191  0.077833  0  3.993958  0
C  C171  1  0.05013175  0.50661840  0.49161384  1  -0.05411  0  -0.004194  0.077868  0  3.994048  0
C  C172  1  0.91781079  0.49766217  0.56902491  1  -0.023685  0  -0.070455  -0.124595  0  3.904441  0
C  C173  1  0.08218920  0.50233648  0.43097488  1  -0.023619  0  -0.070458  -0.124634  0  3.904398  0
C  C174  1  0.02907365  0.24248574  0.69859535  1  1.593485  0  0.233024  0.646532  0  4.17167  0
C  C175  1  0.97092672  0.75751444  0.30140510  1  1.593496  0  0.232986  0.64645  0  4.171656  0
C  C176  1  0.87057369  0.13982415  0.82973244  1  1.56801  0  0.231672  0.644136  0  4.188205  0
C  C177  1  0.12942574  0.86017374  0.17026749  1  1.567558  0  0.231716  0.644194  0  4.188097  0
C  C178  1  0.92022054  0.07206409  0.89036839  1  0.038582  0  -0.017471  -0.035432  0  3.984753  0
C  C179  1  0.07977871  0.92793456  0.10963187  1  0.038555  0  -0.01744  -0.03548  0  3.984845  0
C  C180  1  0.92694227  0.11389802  0.94003341  1  -0.15617  0  -0.078999  -0.14187  0  3.935081  0
C  C181  1  0.07305642  0.88609987  0.05996698  1  -0.156419  0  -0.079006  -0.141824  0  3.935146  0
C  C182  1  0.97843440  0.05334768  0.99704976  1  -0.030618  0  -0.007871  0.072003  0  4.012614  0
C  C183  1  0.02156503  0.94665020  0.00295062  1  0.021602  0  -0.007873  0.071989  0  4.012649  0
C  C184  1  0.01166573  0.90530094  0.95155495  1  -0.05399  0  -0.091091  -0.134393  0  3.99634  0
C  C185  1  0.98833278  0.09469771  0.04844486  1  -0.053694  0  -0.091103  -0.134406  0  3.996411  0
C  C186  1  0.96339334  0.96677204  0.89600896  1  -0.024429  0  -0.087966  -0.102297  0  3.984158  0
C  C187  1  0.03660666  0.03322662  0.10398947  1  -0.0244  0  -0.087984  -0.102296  0  3.984229  0
C  C188  1  0.75289281  0.30714816  0.58977160  1  1.589423  0  0.21965  0.617211  0  4.197867  0
C  C189  1  0.24710681  0.69285201  0.41022840  1  1.588903  0  0.219659  0.617214  0  4.197801  0
C  C190  1  0.66441345  0.37445381  0.54785159  1  -0.146031  0  -0.016696  -0.036075  0  3.976737  0
C  C191  1  0.33558543  0.62554637  0.45214887  1  -0.146096  0  -0.016676  -0.036023  0  3.976664  0
C  C192  1  0.59633604  0.45065598  0.56733644  1  0.019105  0  -0.07497  -0.140805  0  3.907859  0
C  C193  1  0.40366414  0.54934497  0.43266389  1  0.019149  0  -0.074977  -0.140798  0  3.907824  0
C  C194  1  0.50872241  0.50981425  0.52950960  1  -0.030577  0  -0.006224  0.075298  0  3.998817  0
C  C195  1  0.49127703  0.49018669  0.47049119  1  -0.079806  0  -0.006259  0.075231  0  3.998858  0
C  C196  1  0.56267528  0.41179128  0.45172133  1  0.039194  0  -0.091047  -0.132896  0  3.986419  0
C  C197  1  0.43732416  0.58820966  0.54827900  1  0.039229  0  -0.091054  -0.132923  0  3.986396  0
C  C198  1  0.64703335  0.35530103  0.48935411  1  -0.128209  0  -0.087553  -0.099993  0  3.990813  0
C  C199  1  0.35296627  0.64469915  0.51064589  1  -0.128235  0  -0.08755  -0.099975  0  3.990807  0
C  C200  1  0.71174265  0.95053526  0.63616268  1  1.571441  0  0.232295  0.644318  0  4.189111  0
C  C201  1  0.28825698  0.04946492  0.36383778  1  1.571362  0  0.23234  0.644482  0  4.18886  0
C  C202  1  0.63281744  0.98582406  0.58320936  1  -0.026144  0  -0.016461  -0.037695  0  3.960642  0
C  C203  1  0.36718274  0.01417689  0.41679096  1  -0.026247  0  -0.016492  -0.037719  0  3.960623  0
C  C204  1  0.62383791  0.08305190  0.54006704  1  -0.100794  0  -0.087066  -0.104675  0  3.990563  0
C  C205  1  0.37616227  0.91694904  0.45993329  1  -0.100774  0  -0.087057  -0.104634  0  3.990537  0
C  C206  1  0.55709506  0.11367103  0.48875908  1  -0.002649  0  -0.093207  -0.137405  0  4.000131  0
C  C207  1  0.44290512  0.88632992  0.51124124  1  -0.002631  0  -0.093248  -0.137476  0  4.000152  0
C  C208  1  0.50366223  0.95124064  0.52222479  1  -0.045475  0  -0.011127  0.065019  0  4.018099  0
C  C209  1  0.49633869  0.04876030  0.47777553  1  0.003646  0  -0.011231  0.065007  0  4.018086  0
C  C210  1  0.57215122  0.92239290  0.57495364  1  -0.046053  0  -0.078828  -0.138746  0  3.922671  0
C  C211  1  0.42784822  0.07760804  0.42504670  1  -0.045976  0  -0.078814  -0.138781  0  3.92262  0
C  C212  1  0.99598730  0.84170751  0.73512994  1  1.595439  0  0.238168  0.656934  0  4.169255  0
C  C213  1  0.00401289  0.15829343  0.26486902  1  1.595532  0  0.238133  0.656829  0  4.1693  0
C  C214  1  0.75521439  0.70881412  0.57140142  1  1.380258  0  0.184158  0.312988  0  4.110854  0
C  C215  1  0.24478634  0.29118453  0.42859882  1  1.380245  0  0.184169  0.312989  0  4.110984  0
C  C216  1  0.67738644  0.70337742  0.47452509  1  0.224664  0  -0.128389  -0.273818  0  3.898811  0
C  C217  1  0.32261411  0.29662200  0.52547548  1  0.225128  0  -0.128395  -0.273871  0  3.898824  0
C  C218  1  0.78352324  0.82726881  0.47414140  1  0.219787  0  -0.127173  -0.268131  0  3.87027  0
C  C219  1  0.21647713  0.17273137  0.52585859  1  0.219807  0  -0.127163  -0.268116  0  3.87024  0
C  C220  1  0.73280908  0.86294895  0.81570644  1  1.38384  0  0.195893  0.329945  0  4.07964  0
C  C221  1  0.26719148  0.13705353  0.18429363  1  1.383844  0  0.195889  0.329927  0  4.079579  0
C  C222  1  0.67591955  0.00401380  0.86355695  1  0.251711  0  -0.12656  -0.278655  0  3.908421  0
C  C223  1  0.32408026  0.99598562  0.13644363  1  0.251692  0  -0.126575  -0.278694  0  3.908477  0
C  C224  1  0.66480743  0.82748465  0.91994430  1  0.276392  0  -0.123749  -0.266948  0  3.903587  0
C  C225  1  0.33519293  0.17251553  0.08005614  1  0.276386  0  -0.123775  -0.267044  0  3.903671  0
C  C226  1  0.98786531  0.93682736  0.58803266  1  1.385803  0  0.18057  0.306151  0  4.114163  0
C  C227  1  0.01213488  0.06317359  0.41196721  1  1.385797  0  0.180577  0.306071  0  4.114116  0
C  C228  1  0.16044990  0.91505565  0.55042087  1  0.184135  0  -0.131402  -0.27427  0  3.8763  0
C  C229  1  0.83955065  0.08494376  0.44957924  1  0.184139  0  -0.131398  -0.274225  0  3.87629  0
C  C230  1  0.06259275  0.78358345  0.55465285  1  0.223146  0  -0.130922  -0.285628  0  3.893573  0
C  C231  1  0.93740706  0.21641596  0.44534682  1  0.223151  0  -0.130944  -0.285638  0  3.893545  0
N  N232  1  0.73973425  0.74467549  0.50932641  1  -1.198277  0  -0.277727  0.0321  0  3.720349  0
N  N233  1  0.26026686  0.25532470  0.49067403  1  -1.198706  0  -0.277729  0.032139  0  3.720284  0
N  N234  1  0.69329777  0.89669880  0.86460899  1  -1.217634  0  -0.277106  0.033365  0  3.707518  0
N  N235  1  0.30670334  0.10330138  0.13539100  1  -1.217616  0  -0.277068  0.033429  0  3.707415  0
N  N236  1  0.06602849  0.88215489  0.56414043  1  -1.233176  0  -0.277945  0.040498  0  3.722374  0
N  N237  1  0.93397207  0.11784453  0.43585924  1  -1.233188  0  -0.277921  0.040535  0  3.722433  0
O  O238  1  0.63181065  0.51561240  0.70142018  1  -1.211311  0  -0.395909  -0.66942  0  2.292184  0
O  O239  1  0.36818972  0.48438778  0.29857936  1  -1.2113  0  -0.395908  -0.669385  0  2.292163  0
O  O240  1  0.64180205  0.67326409  0.70528385  1  -1.221126  0  -0.398131  -0.678826  0  2.287293  0
O  O241  1  0.35819813  0.32673685  0.29471557  1  -1.221144  0  -0.398133  -0.678825  0  2.287347  0
O  O242  1  0.89065924  0.39260552  0.82419596  1  -1.187544  0  -0.374476  -0.626828  0  2.240106  0
O  O243  1  0.10933982  0.60739389  0.17580463  1  -1.187592  0  -0.374478  -0.626828  0  2.240055  0
O  O244  1  0.82644346  0.56027878  0.81355081  1  -1.222086  0  -0.435456  -0.719932  0  2.340123  0
O  O245  1  0.17355579  0.43971987  0.18644945  1  -1.222075  0  -0.435489  -0.71997  0  2.340103  0
O  O246  1  0.63753872  0.29375991  0.73963447  1  -1.198146  0  -0.382012  -0.672194  0  2.304711  0
O  O247  1  0.36246165  0.70624027  0.26036507  1  -1.19815  0  -0.381963  -0.672158  0  2.304679  0
O  O248  1  0.84599104  0.52691486  0.68315386  1  -1.223778  0  -0.438916  -0.779749  0  2.453217  0
O  O249  1  0.15400858  0.47308532  0.31684524  1  -1.223698  0  -0.438931  -0.77978  0  2.453285  0
O  O250  1  0.95849642  0.30358858  0.71797946  1  -1.213948  0  -0.395398  -0.674777  0  2.342835  0
O  O251  1  0.04150431  0.69641008  0.28202078  1  -1.213963  0  -0.395414  -0.674765  0  2.342783  0
O  O252  1  0.01545583  0.17861557  0.66919119  1  -1.199832  0  -0.407411  -0.679887  0  2.239493  0
O  O253  1  0.98454472  0.82138384  0.33080938  1  -1.199855  0  -0.407365  -0.679829  0  2.239525  0
O  O254  1  0.80953533  0.22444213  0.83009262  1  -1.208966  0  -0.387032  -0.672381  0  2.32223  0
O  O255  1  0.19046466  0.77555652  0.16990808  1  -1.208621  0  -0.387064  -0.672404  0  2.322201  0
O  O256  1  0.89328448  0.11022528  0.78036582  1  -1.217965  0  -0.411242  -0.699979  0  2.371931  0
O  O257  1  0.10671458  0.88977413  0.21963386  1  -1.217924  0  -0.411294  -0.70003  0  2.371836  0
O  O258  1  0.97923018  0.58808974  0.69818848  1  -1.173548  0  -0.351671  -0.597671  0  2.186078  0
O  O259  1  0.02077001  0.41191121  0.30181048  1  -1.173559  0  -0.35169  -0.597655  0  2.186087  0
O  O260  1  0.77653766  0.33103945  0.63858650  1  -1.228435  0  -0.397884  -0.728109  0  2.375957  0
O  O261  1  0.22346270  0.66896073  0.36141350  1  -1.228421  0  -0.397882  -0.728103  0  2.37595  0
O  O262  1  0.79957167  0.22533141  0.57599008  1  -1.195032  0  -0.381551  -0.642574  0  2.232249  0
O  O263  1  0.20042778  0.77466953  0.42400980  1  -1.194524  0  -0.381568  -0.642582  0  2.232209  0
O  O264  1  0.70833865  0.87175952  0.67973313  1  -1.207735  0  -0.398859  -0.680909  0  2.311664  0
O  O265  1  0.29166115  0.12823989  0.32026790  1  -1.207891  0  -0.398859  -0.680937  0  2.311603  0
O  O266  1  0.69889645  0.14964537  0.70836435  1  -1.219786  0  -0.405292  -0.698386  0  2.314229  0
O  O267  1  0.30110391  0.85035481  0.29163519  1  -1.219797  0  -0.405286  -0.698353  0  2.314272  0
O  O268  1  0.77898889  0.00189073  0.63320651  1  -1.220409  0  -0.407205  -0.691764  0  2.356031  0
O  O269  1  0.22101110  0.99810792  0.36679419  1  -1.220149  0  -0.407216  -0.691884  0  2.355944  0
O  O270  1  0.94670376  0.77410333  0.73667901  1  -1.210123  0  -0.414005  -0.687006  0  2.299551  0
O  O271  1  0.05329661  0.22589685  0.26332053  1  -1.210154  0  -0.413993  -0.68698  0  2.299545  0
O  O272  1  0.95473262  0.93236011  0.73781797  1  -1.213862  0  -0.412505  -0.691003  0  2.332502  0
O  O273  1  0.04526719  0.06763931  0.26218216  1  -1.213901  0  -0.412487  -0.690956  0  2.33252  0
O  O274  1  0.80842828  0.74035548  0.60437197  1  -1.190579  0  -0.355143  -0.550125  0  2.352695  0
O  O275  1  0.19157190  0.25964546  0.39562880  1  -1.190577  0  -0.355124  -0.550113  0  2.352817  0
O  O276  1  0.74897482  0.77149083  0.81399135  1  -1.176382  0  -0.36046  -0.544408  0  2.335836  0
O  O277  1  0.25102573  0.22850859  0.18600877  1  -1.176421  0  -0.36046  -0.544388  0  2.335864  0
O  O278  1  0.98681342  0.02070107  0.59959754  1  -1.184544  0  -0.363022  -0.550038  0  2.307076  0
O  O279  1  0.01318787  0.97929835  0.40040167  1  -1.184531  0  -0.363053  -0.550041  0  2.307037  0
O  O280  1  0.66726887  0.39229528  0.83384647  1  -1.22834  0  -0.606852  -0.785858  0  1.944103  0
O  O281  1  0.33273224  0.60770490  0.16615397  1  -1.228341  0  -0.606856  -0.785858  0  1.944178  0
