# generated using pymatgen
data_CdH9C13NO5
_symmetry_space_group_name_H-M   'P 1'
_cell_length_a   8.53895901
_cell_length_b   8.12284434
_cell_length_c   9.95381760
_cell_angle_alpha   95.45969616
_cell_angle_beta   101.58200635
_cell_angle_gamma   100.96969037
_symmetry_Int_Tables_number   1
_chemical_formula_structural   CdH9C13NO5
_chemical_formula_sum   'Cd2 H18 C26 N2 O10'
_cell_volume   657.57352687
_cell_formula_units_Z   2
loop_
 _symmetry_equiv_pos_site_id
 _symmetry_equiv_pos_as_xyz
  1  'x, y, z'
loop_
 _atom_site_type_symbol
 _atom_site_label
 _atom_site_symmetry_multiplicity
 _atom_site_fract_x
 _atom_site_fract_y
 _atom_site_fract_z
 _atom_site_occupancy
 _atom_site_hle17_bader_spin_density
 _atom_site_hle17_ddec_charge
 _atom_site_hle17_ddec_spin_density
 _atom_site_hle17_ddec_sum_bond_order
 _atom_site_hle17_magmom
 _atom_site_hse06_10hf_bader_spin_density
 _atom_site_hse06_10hf_ddec_charge
 _atom_site_hse06_10hf_ddec_spin_density
 _atom_site_hse06_10hf_ddec_sum_bond_order
 _atom_site_hse06_10hf_magmom
 _atom_site_hse06_bader_spin_density
 _atom_site_hse06_ddec_charge
 _atom_site_hse06_ddec_spin_density
 _atom_site_hse06_ddec_sum_bond_order
 _atom_site_hse06_magmom
 _atom_site_pbe_bader_spin_density
 _atom_site_pbe_cm5_charge
 _atom_site_pbe_ddec_charge
 _atom_site_pbe_ddec_spin_density
 _atom_site_pbe_ddec_sum_bond_order
 _atom_site_pbe_magmom
Cd  Cd0  1  0.70287770  0.60702131  0.97618898  1  0  1.177088  0  1.563639  0  0  0.985044  0  1.99191  0  0  1.047975  0  1.939069  0  0  0.773623  0.937324  0  2.029952  0
Cd  Cd1  1  0.29712761  0.39298348  0.02381484  1  0  1.177024  0  1.563649  0  0  0.98495  0  1.99194  0  0  1.047883  0  1.939097  0  0  0.773561  0.937229  0  2.029986  0
H  H2  1  0.95610604  0.82678526  0.83342010  1  0  0.092097  0  0.944736  0  0  0.102688  0  1.00201  0  0  0.105398  0  0.99963  0  0  0.119374  0.100546  0  1.003858  0
H  H3  1  0.04390277  0.17323986  0.16658312  1  0  0.092146  0  0.944848  0  0  0.10274  0  1.002103  0  0  0.105449  0  0.999722  0  0  0.119417  0.100609  0  1.003953  0
H  H4  1  0.24650293  0.99020066  0.88802775  1  0  0.109301  0  0.95758  0  0  0.118597  0  1.018517  0  0  0.121784  0  1.017466  0  0  0.106278  0.116398  0  1.019171  0
H  H5  1  0.75350470  0.00981419  0.11198139  1  0  0.109278  0  0.957563  0  0  0.118666  0  1.018422  0  0  0.121854  0  1.017367  0  0  0.106295  0.116461  0  1.019081  0
H  H6  1  0.43020170  0.97412760  0.11502824  1  0  0.109456  0  0.939872  0  0  0.120582  0  0.998212  0  0  0.123248  0  0.996372  0  0  0.110087  0.118702  0  0.999416  0
H  H7  1  0.56978841  0.02587356  0.88498470  1  0  0.1095  0  0.939833  0  0  0.120619  0  0.998168  0  0  0.123277  0  0.996329  0  0  0.110092  0.118736  0  0.999372  0
H  H8  1  0.02400676  0.63740459  0.20774222  1  0  0.091951  0  0.954965  0  0  0.103078  0  1.01587  0  0  0.105465  0  1.013759  0  0  0.120636  0.101269  0  1.017353  0
H  H9  1  0.97599196  0.36260277  0.79226974  1  0  0.091962  0  0.954855  0  0  0.103052  0  1.015821  0  0  0.10544  0  1.013702  0  0  0.12063  0.101241  0  1.017306  0
H  H10  1  0.14680385  0.84150954  0.41817276  1  0  0.102992  0  0.931552  0  0  0.116436  0  0.983394  0  0  0.119728  0  0.982207  0  0  0.108159  0.113914  0  0.98448  0
H  H11  1  0.85319121  0.15848192  0.58180501  1  0  0.102994  0  0.931546  0  0  0.116412  0  0.983417  0  0  0.119705  0  0.982229  0  0  0.108143  0.113892  0  0.9845  0
H  H12  1  0.28720686  0.79868078  0.65127321  1  0  0.100304  0  0.94645  0  0  0.111335  0  1.00607  0  0  0.11485  0  1.003111  0  0  0.106624  0.108991  0  1.007782  0
H  H13  1  0.71278071  0.20130419  0.34872077  1  0  0.100346  0  0.946511  0  0  0.111402  0  1.006066  0  0  0.114923  0  1.003104  0  0  0.106666  0.109021  0  1.007833  0
H  H14  1  0.69448681  0.70025752  0.48828982  1  0  0.110067  0  0.935662  0  0  0.118811  0  0.996665  0  0  0.123052  0  0.993048  0  0  0.107878  0.115629  0  0.999504  0
H  H15  1  0.30551499  0.29974245  0.51170293  1  0  0.110002  0  0.935654  0  0  0.118774  0  0.996644  0  0  0.123014  0  0.993027  0  0  0.107909  0.115593  0  0.999483  0
H  H16  1  0.78438328  0.55205966  0.23235863  1  0  0.402663  0  0.879715  0  0  0.380764  0  0.944068  0  0  0.389645  0  0.934482  0  0  0.294078  0.374424  0  0.950816  0
H  H17  1  0.21562529  0.44794892  0.76764308  1  0  0.402702  0  0.87964  0  0  0.380796  0  0.944004  0  0  0.389678  0  0.934422  0  0  0.294077  0.374456  0  0.950737  0
H  H18  1  0.67391403  0.37345009  0.16884376  1  0  0.42601  0  0.881987  0  0  0.393646  0  0.948486  0  0  0.40477  0  0.932681  0  0  0.285457  0.38582  0  0.959564  0
H  H19  1  0.32609693  0.62655332  0.83115791  1  0  0.425959  0  0.882032  0  0  0.393655  0  0.948428  0  0  0.404779  0  0.932623  0  0  0.28549  0.385828  0  0.959509  0
C  C20  1  0.04010277  0.82458413  0.93102881  1  0  0.143142  0  3.691495  0  0  0.107826  0  3.94386  0  0  0.116904  0  3.961622  0  0  0.049504  0.102367  0  3.931368  0
C  C21  1  0.95989268  0.17542461  0.06898170  1  0  0.143161  0  3.691091  0  0  0.107832  0  3.943491  0  0  0.116912  0  3.961254  0  0  0.049452  0.102358  0  3.931014  0
C  C22  1  0.20254684  0.91285592  0.96208060  1  0  -0.108677  0  3.708092  0  0  -0.119437  0  3.965856  0  0  -0.127112  0  3.985689  0  0  -0.081829  -0.114844  0  3.952907  0
C  C23  1  0.79743942  0.08715962  0.03791787  1  0  -0.108622  0  3.708068  0  0  -0.119493  0  3.965878  0  0  -0.127164  0  3.985699  0  0  -0.081817  -0.114911  0  3.952964  0
C  C24  1  0.30420808  0.90256275  0.08755103  1  0  -0.013298  0  3.651247  0  0  -0.042873  0  3.902414  0  0  -0.037847  0  3.91864  0  0  -0.059728  -0.046498  0  3.892153  0
C  C25  1  0.69578656  0.09743211  0.91245108  1  0  -0.01335  0  3.651426  0  0  -0.042958  0  3.902606  0  0  -0.037924  0  3.918822  0  0  -0.059795  -0.046583  0  3.892343  0
C  C26  1  0.24107558  0.80378498  0.18056128  1  0  -0.001337  0  3.774455  0  0  0.018336  0  4.012819  0  0  0.012418  0  4.036628  0  0  -0.001394  0.021606  0  3.997215  0
C  C27  1  0.75891968  0.19621256  0.81943313  1  0  -0.001523  0  3.774433  0  0  0.018332  0  4.012566  0  0  0.012419  0  4.036367  0  0  -0.001365  0.021604  0  3.996957  0
C  C28  1  0.07670845  0.71950410  0.14079266  1  0  0.084606  0  3.677496  0  0  0.045414  0  3.926503  0  0  0.05295  0  3.94473  0  0  0.045913  0.041207  0  3.913285  0
C  C29  1  0.92328851  0.28050080  0.85921576  1  0  0.084769  0  3.677389  0  0  0.045553  0  3.926319  0  0  0.05309  0  3.944541  0  0  0.045923  0.041348  0  3.913101  0
C  C30  1  0.33641511  0.78638683  0.31790804  1  0  0.066491  0  3.736954  0  0  0.06697  0  3.974502  0  0  0.070786  0  3.998835  0  0  0.006256  0.064773  0  3.95803  0
C  C31  1  0.66358643  0.21360167  0.68208465  1  0  0.066553  0  3.736983  0  0  0.066965  0  3.974512  0  0  0.070774  0  3.998854  0  0  0.006267  0.064772  0  3.958034  0
C  C32  1  0.26538595  0.80591012  0.43255676  1  0  -0.108399  0  3.720146  0  0  -0.125742  0  3.970913  0  0  -0.131427  0  3.992062  0  0  -0.082462  -0.121863  0  3.956365  0
C  C33  1  0.73461523  0.19408201  0.56744725  1  0  -0.108357  0  3.720144  0  0  -0.125695  0  3.970944  0  0  -0.131377  0  3.992096  0  0  -0.082461  -0.121817  0  3.956385  0
C  C34  1  0.34447593  0.78359779  0.56375926  1  0  -0.039067  0  3.718392  0  0  -0.067874  0  3.970581  0  0  -0.064585  0  3.988646  0  0  -0.074601  -0.069606  0  3.957808  0
C  C35  1  0.65552260  0.21639839  0.43623560  1  0  -0.039144  0  3.718291  0  0  -0.067922  0  3.970462  0  0  -0.064637  0  3.988527  0  0  -0.074607  -0.069628  0  3.957716  0
C  C36  1  0.49841611  0.74146605  0.58373969  1  0  -0.069978  0  3.771081  0  0  -0.045863  0  4.010365  0  0  -0.05584  0  4.034715  0  0  -0.020913  -0.039958  0  3.994607  0
C  C37  1  0.50158474  0.25852985  0.41626760  1  0  -0.070019  0  3.771223  0  0  -0.045986  0  4.010603  0  0  -0.055971  0  4.03496  0  0  -0.021013  -0.040078  0  3.994834  0
C  C38  1  0.57359732  0.73003948  0.47192734  1  0  -0.047972  0  3.691199  0  0  -0.085847  0  3.941049  0  0  -0.082978  0  3.960074  0  0  -0.070034  -0.087596  0  3.92917  0
C  C39  1  0.42640690  0.26995025  0.52806391  1  0  -0.047861  0  3.691365  0  0  -0.085735  0  3.941225  0  0  -0.082866  0  3.960252  0  0  -0.070077  -0.087487  0  3.929349  0
C  C40  1  0.49460869  0.75102030  0.33942076  1  0  -0.099429  0  3.710715  0  0  -0.080229  0  3.949743  0  0  -0.090297  0  3.972605  0  0  -0.013018  -0.074075  0  3.934735  0
C  C41  1  0.50538718  0.24896438  0.66057865  1  0  -0.099517  0  3.710533  0  0  -0.080337  0  3.949565  0  0  -0.090394  0  3.972423  0  0  -0.013048  -0.074183  0  3.934557  0
C  C42  1  0.58263471  0.72371464  0.22592931  1  0  0.643089  0  3.918255  0  0  0.590346  0  4.212004  0  0  0.625559  0  4.204523  0  0  0.200103  0.566531  0  4.215907  0
C  C43  1  0.41736297  0.27627270  0.77406161  1  0  0.643218  0  3.918127  0  0  0.590562  0  4.211765  0  0  0.62576  0  4.204295  0  0  0.200204  0.566747  0  4.215673  0
C  C44  1  0.58090002  0.70512687  0.72118569  1  0  0.629313  0  3.929642  0  0  0.577813  0  4.221101  0  0  0.611498  0  4.217509  0  0  0.196543  0.555041  0  4.222453  0
C  C45  1  0.41909547  0.29487684  0.27882036  1  0  0.629208  0  3.929858  0  0  0.577741  0  4.221281  0  0  0.611432  0  4.217685  0  0  0.19654  0.554971  0  4.222634  0
N  N46  1  0.97808558  0.72993842  0.01958600  1  0  -0.353979  0  3.305997  0  0  -0.269505  0  3.576019  0  0  -0.293569  0  3.598192  0  0  -0.331722  -0.252928  0  3.559775  0
N  N47  1  0.02191079  0.27006914  0.98041753  1  0  -0.354098  0  3.305808  0  0  -0.269582  0  3.57581  0  0  -0.293646  0  3.597982  0  0  -0.331698  -0.253003  0  3.55957  0
O  O48  1  0.50031365  0.64264600  0.10689342  1  0  -0.690077  0  2.129142  0  0  -0.601435  0  2.386655  0  0  -0.636478  0  2.377477  0  0  -0.332293  -0.57595  0  2.39294  0
O  O49  1  0.49969118  0.35734639  0.89309114  1  0  -0.690001  0  2.128795  0  0  -0.601436  0  2.3863  0  0  -0.636472  0  2.377124  0  0  -0.33223  -0.575952  0  2.392587  0
O  O50  1  0.73610893  0.77533857  0.25113761  1  0  -0.635724  0  1.904727  0  0  -0.584802  0  2.120387  0  0  -0.609277  0  2.110732  0  0  -0.327831  -0.566801  0  2.125895  0
O  O51  1  0.26388813  0.22466155  0.74885232  1  0  -0.63588  0  1.90479  0  0  -0.584965  0  2.120378  0  0  -0.609438  0  2.110737  0  0  -0.327963  -0.566971  0  2.125899  0
O  O52  1  0.71309085  0.65318207  0.73420927  1  0  -0.619466  0  1.940649  0  0  -0.564145  0  2.170667  0  0  -0.592054  0  2.16371  0  0  -0.319103  -0.543688  0  2.174254  0
O  O53  1  0.28692222  0.34680974  0.26579676  1  0  -0.619283  0  1.941203  0  0  -0.563979  0  2.171257  0  0  -0.591861  0  2.164245  0  0  -0.319009  -0.543531  0  2.174851  0
O  O54  1  0.51278743  0.72572207  0.82462922  1  0  -0.679533  0  2.054494  0  0  -0.605219  0  2.289589  0  0  -0.63605  0  2.281638  0  0  -0.330853  -0.58284  0  2.294793  0
O  O55  1  0.48721081  0.27427282  0.17536648  1  0  -0.679533  0  2.054289  0  0  -0.605202  0  2.289402  0  0  -0.636045  0  2.281455  0  0  -0.330837  -0.582816  0  2.294599  0
O  O56  1  0.77835746  0.45246134  0.16542248  1  0  -0.821642  0  1.86979  0  0  -0.76473  0  2.057642  0  0  -0.788542  0  2.032698  0  0  -0.584729  -0.747894  0  2.074779  0
O  O57  1  0.22165408  0.54753937  0.83458708  1  0  -0.82163  0  1.869783  0  0  -0.764751  0  2.057628  0  0  -0.788568  0  2.032684  0  0  -0.584745  -0.747912  0  2.074767  0
