# generated using pymatgen
data_Cd2CuH8C12N10Cl3
_symmetry_space_group_name_H-M   'P 1'
_cell_length_a   6.62004350
_cell_length_b   14.95702803
_cell_length_c   17.95129046
_cell_angle_alpha   89.99997705
_cell_angle_beta   90.00015164
_cell_angle_gamma   89.99989887
_symmetry_Int_Tables_number   1
_chemical_formula_structural   Cd2CuH8C12N10Cl3
_chemical_formula_sum   'Cd8 Cu4 H32 C48 N40 Cl12'
_cell_volume   1777.46813917
_cell_formula_units_Z   4
loop_
 _symmetry_equiv_pos_site_id
 _symmetry_equiv_pos_as_xyz
  1  'x, y, z'
loop_
 _atom_site_type_symbol
 _atom_site_label
 _atom_site_symmetry_multiplicity
 _atom_site_fract_x
 _atom_site_fract_y
 _atom_site_fract_z
 _atom_site_occupancy
 _atom_site_hle17_bader_spin_density
 _atom_site_hle17_ddec_charge
 _atom_site_hle17_ddec_spin_density
 _atom_site_hle17_ddec_sum_bond_order
 _atom_site_hle17_magmom
 _atom_site_hse06_10hf_bader_spin_density
 _atom_site_hse06_10hf_ddec_charge
 _atom_site_hse06_10hf_ddec_spin_density
 _atom_site_hse06_10hf_ddec_sum_bond_order
 _atom_site_hse06_10hf_magmom
 _atom_site_hse06_bader_spin_density
 _atom_site_hse06_ddec_charge
 _atom_site_hse06_ddec_spin_density
 _atom_site_hse06_ddec_sum_bond_order
 _atom_site_hse06_magmom
 _atom_site_pbe_bader_spin_density
 _atom_site_pbe_cm5_charge
 _atom_site_pbe_ddec_charge
 _atom_site_pbe_ddec_spin_density
 _atom_site_pbe_ddec_sum_bond_order
 _atom_site_pbe_magmom
Cd  Cd0  1  0.75981659  0.61670905  0.29777886  1  0  0.925063  0  1.933994  0  0  0.73941  0  2.395816  0  0  0.785996  0  2.356927  0  0  0.65641  0.70632  0  2.422273  0
Cd  Cd1  1  0.24018044  0.11670942  0.70222148  1  0  0.925041  0  1.933982  0  0  0.739392  0  2.395796  0  0  0.785978  0  2.356909  0  0  0.65641  0.706302  0  2.42225  0
Cd  Cd2  1  0.24017774  0.88329150  0.79777827  1  0  0.925044  0  1.934024  0  0  0.739387  0  2.395841  0  0  0.785971  0  2.356956  0  0  0.656412  0.706296  0  2.422298  0
Cd  Cd3  1  0.75981822  0.38329104  0.20222143  1  0  0.925048  0  1.934  0  0  0.739397  0  2.395816  0  0  0.785982  0  2.35693  0  0  0.656415  0.706304  0  2.422273  0
Cd  Cd4  1  0.24018142  0.38329113  0.70222144  1  0  0.925083  0  1.933949  0  0  0.739432  0  2.395756  0  0  0.786017  0  2.356869  0  0  0.65643  0.706342  0  2.422209  0
Cd  Cd5  1  0.75981756  0.88329075  0.29777993  1  0  0.925002  0  1.93404  0  0  0.739342  0  2.395854  0  0  0.785924  0  2.356971  0  0  0.656392  0.706251  0  2.42231  0
Cd  Cd6  1  0.75981724  0.11670867  0.20222091  1  0  0.925036  0  1.934027  0  0  0.739375  0  2.395846  0  0  0.785964  0  2.356958  0  0  0.656408  0.706284  0  2.422302  0
Cd  Cd7  1  0.24017827  0.61670913  0.79777720  1  0  0.925041  0  1.93403  0  0  0.739389  0  2.395841  0  0  0.785973  0  2.356955  0  0  0.656416  0.706298  0  2.422298  0
Cu  Cu8  1  0.32217836  0.74999976  0.19880579  1  0  0.463554  0  1.899993  0  0  0.339019  0  2.408554  0  0  0.342198  0  2.359232  0  0  0.45175  0.340288  0  2.439325  0
Cu  Cu9  1  0.67781662  0.25000042  0.80119060  1  0  0.463601  0  1.89996  0  0  0.339086  0  2.408492  0  0  0.34229  0  2.359192  0  0  0.451781  0.340333  0  2.439266  0
Cu  Cu10  1  0.67781677  0.74999883  0.69881014  1  0  0.463637  0  1.899984  0  0  0.339104  0  2.408563  0  0  0.342298  0  2.359252  0  0  0.451777  0.340367  0  2.439352  0
Cu  Cu11  1  0.32217972  0.25000000  0.30119406  1  0  0.463523  0  1.900071  0  0  0.338981  0  2.408637  0  0  0.342185  0  2.359319  0  0  0.451742  0.340243  0  2.439405  0
H  H12  1  0.91836326  0.61954248  0.12315528  1  0  0.101464  0  0.971009  0  0  0.106201  0  1.043875  0  0  0.108622  0  1.042107  0  0  0.097337  0.104315  0  1.045322  0
H  H13  1  0.08164131  0.11954223  0.87684227  1  0  0.101489  0  0.971155  0  0  0.106206  0  1.044027  0  0  0.108625  0  1.04226  0  0  0.09734  0.10432  0  1.045473  0
H  H14  1  0.08164644  0.88045949  0.62315843  1  0  0.101459  0  0.971213  0  0  0.106178  0  1.044088  0  0  0.108598  0  1.042322  0  0  0.097338  0.10429  0  1.045536  0
H  H15  1  0.91836161  0.38045615  0.37684349  1  0  0.101458  0  0.971034  0  0  0.106179  0  1.043909  0  0  0.108595  0  1.04215  0  0  0.097302  0.104292  0  1.045356  0
H  H16  1  0.08163475  0.38045836  0.87684334  1  0  0.101473  0  0.971078  0  0  0.106195  0  1.043948  0  0  0.108611  0  1.04219  0  0  0.097312  0.104309  0  1.045395  0
H  H17  1  0.91836273  0.88045795  0.12315579  1  0  0.101466  0  0.971076  0  0  0.106194  0  1.043941  0  0  0.108616  0  1.042174  0  0  0.097322  0.104308  0  1.045388  0
H  H18  1  0.91835609  0.11954202  0.37684354  1  0  0.101453  0  0.971056  0  0  0.106184  0  1.043927  0  0  0.108605  0  1.04216  0  0  0.097319  0.104297  0  1.045373  0
H  H19  1  0.08164697  0.61954202  0.62315736  1  0  0.101464  0  0.971089  0  0  0.106188  0  1.043961  0  0  0.108608  0  1.042195  0  0  0.097328  0.104301  0  1.045407  0
H  H20  1  0.67835987  0.64872018  0.01693940  1  0  0.104365  0  0.946951  0  0  0.116599  0  1.002344  0  0  0.11908  0  1.002499  0  0  0.107635  0.114784  0  1.002471  0
H  H21  1  0.32164157  0.14871836  0.98305871  1  0  0.104411  0  0.946945  0  0  0.116603  0  1.002367  0  0  0.119085  0  1.002522  0  0  0.107621  0.114789  0  1.002494  0
H  H22  1  0.32164455  0.85128518  0.51694112  1  0  0.104402  0  0.946954  0  0  0.116598  0  1.002383  0  0  0.119078  0  1.00254  0  0  0.107614  0.114783  0  1.00251  0
H  H23  1  0.67836212  0.35127997  0.48306081  1  0  0.104375  0  0.94695  0  0  0.116579  0  1.00237  0  0  0.119061  0  1.002524  0  0  0.107641  0.114765  0  1.002495  0
H  H24  1  0.32163814  0.35128266  0.98305923  1  0  0.104366  0  0.946954  0  0  0.116592  0  1.002359  0  0  0.119072  0  1.002514  0  0  0.107623  0.114777  0  1.002485  0
H  H25  1  0.67835946  0.85128115  0.01693992  1  0  0.104418  0  0.946925  0  0  0.116618  0  1.002359  0  0  0.119099  0  1.002514  0  0  0.107648  0.114804  0  1.002485  0
H  H26  1  0.67835799  0.14871901  0.48306085  1  0  0.104431  0  0.946946  0  0  0.116631  0  1.002373  0  0  0.119112  0  1.002528  0  0  0.107648  0.114816  0  1.0025  0
H  H27  1  0.32164042  0.64872021  0.51693949  1  0  0.104433  0  0.946959  0  0  0.116632  0  1.002385  0  0  0.119113  0  1.00254  0  0  0.107642  0.114817  0  1.002512  0
H  H28  1  0.81158866  0.65129397  0.88684294  1  0  0.084588  0  0.954155  0  0  0.088946  0  1.027302  0  0  0.09148  0  1.02449  0  0  0.105479  0.086995  0  1.029428  0
H  H29  1  0.18841427  0.15129399  0.11315516  1  0  0.084577  0  0.954167  0  0  0.088938  0  1.027335  0  0  0.091473  0  1.024522  0  0  0.105485  0.086987  0  1.029462  0
H  H30  1  0.18841385  0.84870922  0.38684512  1  0  0.084608  0  0.954205  0  0  0.088972  0  1.027365  0  0  0.091507  0  1.024553  0  0  0.105491  0.087022  0  1.029491  0
H  H31  1  0.81159434  0.34870718  0.61315737  1  0  0.08462  0  0.954185  0  0  0.088981  0  1.027333  0  0  0.091516  0  1.024521  0  0  0.105482  0.087031  0  1.029458  0
H  H32  1  0.18841085  0.34870487  0.11315569  1  0  0.084591  0  0.954175  0  0  0.088947  0  1.027329  0  0  0.091482  0  1.024516  0  0  0.105479  0.086996  0  1.029455  0
H  H33  1  0.81158827  0.84870618  0.88684346  1  0  0.084615  0  0.954128  0  0  0.088975  0  1.027271  0  0  0.09151  0  1.024459  0  0  0.105491  0.087024  0  1.029396  0
H  H34  1  0.81159171  0.15129430  0.61315685  1  0  0.084589  0  0.954184  0  0  0.08895  0  1.027327  0  0  0.091485  0  1.024515  0  0  0.105488  0.087  0  1.029453  0
H  H35  1  0.18840820  0.65129567  0.38684404  1  0  0.08461  0  0.954168  0  0  0.088964  0  1.027327  0  0  0.091499  0  1.024515  0  0  0.105496  0.087014  0  1.029453  0
H  H36  1  0.39433497  0.60010814  0.96044302  1  0  0.079142  0  0.994501  0  0  0.079671  0  1.075571  0  0  0.082919  0  1.07177  0  0  0.111961  0.077213  0  1.078489  0
H  H37  1  0.60566666  0.10010721  0.03955510  1  0  0.079067  0  0.994637  0  0  0.079614  0  1.075685  0  0  0.082862  0  1.071884  0  0  0.111929  0.077158  0  1.078599  0
H  H38  1  0.60566655  0.89989033  0.46044671  1  0  0.079063  0  0.994608  0  0  0.079594  0  1.075687  0  0  0.082842  0  1.071886  0  0  0.111929  0.077138  0  1.078602  0
H  H39  1  0.39433690  0.39989400  0.53955465  1  0  0.079098  0  0.994546  0  0  0.079633  0  1.075617  0  0  0.08288  0  1.071816  0  0  0.111954  0.077176  0  1.078534  0
H  H40  1  0.60566304  0.39988869  0.03955560  1  0  0.079094  0  0.99455  0  0  0.079634  0  1.07561  0  0  0.082882  0  1.071809  0  0  0.111947  0.077177  0  1.078525  0
H  H41  1  0.39433588  0.89989096  0.96044353  1  0  0.079133  0  0.994508  0  0  0.079666  0  1.075572  0  0  0.082914  0  1.071771  0  0  0.111959  0.077209  0  1.078489  0
H  H42  1  0.39433296  0.10010650  0.53955470  1  0  0.079065  0  0.99459  0  0  0.079595  0  1.075654  0  0  0.082843  0  1.071853  0  0  0.111933  0.077138  0  1.078571  0
H  H43  1  0.60566715  0.60010885  0.46044732  1  0  0.079027  0  0.994614  0  0  0.079561  0  1.075689  0  0  0.082809  0  1.071888  0  0  0.11193  0.077104  0  1.078606  0
C  C44  1  0.32808618  0.58321665  0.10496689  1  0  0.270405  0  3.77619  0  0  0.246797  0  4.048509  0  0  0.256305  0  4.063602  0  0  0.215742  0.240437  0  4.038716  0
C  C45  1  0.67191552  0.08321860  0.89503124  1  0  0.270336  0  3.776348  0  0  0.246729  0  4.048601  0  0  0.256238  0  4.063695  0  0  0.215727  0.240368  0  4.038809  0
C  C46  1  0.67191584  0.91678065  0.60497061  1  0  0.270354  0  3.776385  0  0  0.246724  0  4.048638  0  0  0.256234  0  4.063733  0  0  0.215707  0.24036  0  4.03885  0
C  C47  1  0.32808452  0.41678177  0.39503130  1  0  0.270396  0  3.776311  0  0  0.24681  0  4.048573  0  0  0.256318  0  4.063666  0  0  0.215743  0.240446  0  4.038785  0
C  C48  1  0.67190881  0.41678152  0.89503174  1  0  0.270312  0  3.776387  0  0  0.246727  0  4.048666  0  0  0.256238  0  4.063759  0  0  0.215719  0.240364  0  4.038871  0
C  C49  1  0.32808702  0.91678291  0.10496739  1  0  0.270367  0  3.776213  0  0  0.246767  0  4.048515  0  0  0.256276  0  4.063607  0  0  0.215745  0.240406  0  4.038722  0
C  C50  1  0.32808367  0.08321685  0.39503136  1  0  0.270377  0  3.776265  0  0  0.246782  0  4.048524  0  0  0.256291  0  4.063616  0  0  0.215743  0.240419  0  4.038736  0
C  C51  1  0.67191802  0.58321840  0.60496955  1  0  0.270403  0  3.776225  0  0  0.246804  0  4.048486  0  0  0.256313  0  4.063579  0  0  0.215733  0.24044  0  4.038698  0
C  C52  1  0.17528331  0.60818023  0.04951843  1  0  -0.033726  0  3.771172  0  0  -0.009918  0  4.004095  0  0  -0.016008  0  4.025633  0  0  0.000955  -0.006372  0  3.989967  0
C  C53  1  0.82471828  0.10818004  0.95048025  1  0  -0.033643  0  3.771442  0  0  -0.009762  0  4.004228  0  0  -0.01585  0  4.025767  0  0  0.000979  -0.006215  0  3.990097  0
C  C54  1  0.82472134  0.89182044  0.54952175  1  0  -0.033771  0  3.771453  0  0  -0.009802  0  4.004118  0  0  -0.015892  0  4.025657  0  0  0.000939  -0.006256  0  3.98999  0
C  C55  1  0.17528063  0.39182232  0.45048017  1  0  -0.033762  0  3.771473  0  0  -0.009929  0  4.004337  0  0  -0.016018  0  4.025874  0  0  0.000979  -0.006382  0  3.990208  0
C  C56  1  0.82471470  0.39181994  0.95047964  1  0  -0.033638  0  3.771415  0  0  -0.009827  0  4.004301  0  0  -0.015917  0  4.02584  0  0  0.000987  -0.006278  0  3.990169  0
C  C57  1  0.17528123  0.89182148  0.04951894  1  0  -0.033636  0  3.771271  0  0  -0.009822  0  4.004161  0  0  -0.015912  0  4.0257  0  0  0.000973  -0.006275  0  3.990033  0
C  C58  1  0.17527667  0.10817840  0.45048077  1  0  -0.033668  0  3.771357  0  0  -0.009818  0  4.004184  0  0  -0.015908  0  4.025722  0  0  0.000996  -0.006271  0  3.990055  0
C  C59  1  0.82472190  0.60817853  0.54952013  1  0  -0.033736  0  3.771418  0  0  -0.009874  0  4.004232  0  0  -0.015964  0  4.025772  0  0  0.000956  -0.006326  0  3.990104  0
C  C60  1  0.97097146  0.62253638  0.06575386  1  0  -0.019787  0  3.661877  0  0  -0.048567  0  3.908623  0  0  -0.043966  0  3.925643  0  0  -0.062059  -0.051364  0  3.897357  0
C  C61  1  0.02902856  0.12253681  0.93424425  1  0  -0.019764  0  3.661959  0  0  -0.048565  0  3.908659  0  0  -0.043962  0  3.92568  0  0  -0.062051  -0.05136  0  3.89739  0
C  C62  1  0.02903179  0.87746428  0.56575585  1  0  -0.019684  0  3.662016  0  0  -0.048492  0  3.908666  0  0  -0.043892  0  3.92569  0  0  -0.062002  -0.051285  0  3.897398  0
C  C63  1  0.97097326  0.37746087  0.43424608  1  0  -0.019759  0  3.661976  0  0  -0.048536  0  3.908695  0  0  -0.043933  0  3.925726  0  0  -0.062011  -0.051331  0  3.897428  0
C  C64  1  0.02902352  0.37746246  0.93424532  1  0  -0.019826  0  3.661845  0  0  -0.048598  0  3.908574  0  0  -0.043996  0  3.925606  0  0  -0.062023  -0.051393  0  3.897306  0
C  C65  1  0.97097095  0.87746403  0.06575493  1  0  -0.01978  0  3.661879  0  0  -0.048542  0  3.908592  0  0  -0.043941  0  3.925614  0  0  -0.062019  -0.051339  0  3.897327  0
C  C66  1  0.97096924  0.12253723  0.43424501  1  0  -0.019792  0  3.661994  0  0  -0.048584  0  3.908703  0  0  -0.043983  0  3.925724  0  0  -0.062059  -0.05138  0  3.897436  0
C  C67  1  0.02903079  0.62253730  0.56575478  1  0  -0.019782  0  3.662066  0  0  -0.04856  0  3.908762  0  0  -0.043959  0  3.925786  0  0  -0.062055  -0.051355  0  3.897494  0
C  C68  1  0.83873493  0.63840858  0.00692237  1  0  -0.105154  0  3.717009  0  0  -0.115478  0  3.968241  0  0  -0.123461  0  3.990233  0  0  -0.080647  -0.110476  0  3.953661  0
C  C69  1  0.16126805  0.13840621  0.99307518  1  0  -0.105291  0  3.716945  0  0  -0.115539  0  3.968145  0  0  -0.123521  0  3.990136  0  0  -0.080625  -0.110537  0  3.953567  0
C  C70  1  0.16126941  0.86159344  0.50692561  1  0  -0.105215  0  3.716912  0  0  -0.11548  0  3.968141  0  0  -0.123462  0  3.990134  0  0  -0.080612  -0.110477  0  3.953559  0
C  C71  1  0.83873872  0.36158944  0.49307688  1  0  -0.105138  0  3.717058  0  0  -0.115422  0  3.968271  0  0  -0.123404  0  3.990264  0  0  -0.080667  -0.11042  0  3.953692  0
C  C72  1  0.16126308  0.36159092  0.99307570  1  0  -0.105139  0  3.71694  0  0  -0.11544  0  3.968141  0  0  -0.123422  0  3.990133  0  0  -0.080629  -0.110438  0  3.953561  0
C  C73  1  0.83873448  0.86159129  0.00692289  1  0  -0.105221  0  3.71692  0  0  -0.115529  0  3.968162  0  0  -0.123512  0  3.990155  0  0  -0.080672  -0.110527  0  3.953584  0
C  C74  1  0.83873312  0.13840941  0.49307692  1  0  -0.105252  0  3.717002  0  0  -0.115538  0  3.968223  0  0  -0.123521  0  3.990215  0  0  -0.080669  -0.110537  0  3.953645  0
C  C75  1  0.16126684  0.63840873  0.50692397  1  0  -0.10525  0  3.717083  0  0  -0.115536  0  3.968298  0  0  -0.123519  0  3.99029  0  0  -0.08065  -0.110534  0  3.953719  0
C  C76  1  0.91173019  0.63994942  0.93411257  1  0  0.137514  0  3.68707  0  0  0.101798  0  3.944018  0  0  0.110285  0  3.96175  0  0  0.048231  0.096322  0  3.93198  0
C  C77  1  0.08827279  0.13994954  0.06588442  1  0  0.137538  0  3.687147  0  0  0.101771  0  3.944119  0  0  0.110257  0  3.961854  0  0  0.04823  0.096294  0  3.932082  0
C  C78  1  0.08827115  0.86005107  0.43411576  1  0  0.137406  0  3.687291  0  0  0.10164  0  3.944274  0  0  0.110126  0  3.96201  0  0  0.048209  0.096164  0  3.932235  0
C  C79  1  0.91173095  0.36005165  0.56588673  1  0  0.137371  0  3.687124  0  0  0.101626  0  3.944076  0  0  0.110112  0  3.96181  0  0  0.048223  0.096149  0  3.932038  0
C  C80  1  0.08827084  0.36005076  0.06588550  1  0  0.137453  0  3.687131  0  0  0.101737  0  3.944074  0  0  0.110223  0  3.961807  0  0  0.048229  0.09626  0  3.932036  0
C  C81  1  0.91172824  0.86005130  0.93411365  1  0  0.137471  0  3.686978  0  0  0.101747  0  3.943926  0  0  0.110234  0  3.961658  0  0  0.048202  0.096272  0  3.931889  0
C  C82  1  0.91172686  0.13994844  0.56588621  1  0  0.137487  0  3.68706  0  0  0.101765  0  3.944017  0  0  0.110251  0  3.961751  0  0  0.048235  0.096288  0  3.93198  0
C  C83  1  0.08827159  0.63995119  0.43411413  1  0  0.137458  0  3.68717  0  0  0.101741  0  3.944112  0  0  0.110227  0  3.961846  0  0  0.048225  0.096263  0  3.932075  0
C  C84  1  0.23702787  0.61220485  0.97517225  1  0  0.095057  0  3.678042  0  0  0.054097  0  3.926815  0  0  0.062132  0  3.943355  0  0  0.044357  0.048983  0  3.915579  0
C  C85  1  0.76297370  0.11220581  0.02482476  1  0  0.094924  0  3.678267  0  0  0.053909  0  3.927055  0  0  0.061942  0  3.943595  0  0  0.044302  0.048796  0  3.915816  0
C  C86  1  0.76297375  0.88779428  0.47517721  1  0  0.095038  0  3.67827  0  0  0.054031  0  3.926995  0  0  0.062065  0  3.943534  0  0  0.044392  0.048917  0  3.915759  0
C  C87  1  0.23702974  0.38779541  0.52482472  1  0  0.095126  0  3.678149  0  0  0.05413  0  3.926927  0  0  0.062165  0  3.943466  0  0  0.044369  0.049016  0  3.915689  0
C  C88  1  0.76297013  0.38779198  0.02482471  1  0  0.095047  0  3.678129  0  0  0.05407  0  3.926923  0  0  0.062104  0  3.943463  0  0  0.044359  0.048956  0  3.915686  0
C  C89  1  0.23702732  0.88779570  0.97517331  1  0  0.094988  0  3.678118  0  0  0.054016  0  3.926892  0  0  0.062049  0  3.943434  0  0  0.044304  0.048901  0  3.915655  0
C  C90  1  0.23702425  0.11220322  0.52482476  1  0  0.095034  0  3.678181  0  0  0.054087  0  3.926918  0  0  0.062121  0  3.943458  0  0  0.044353  0.048973  0  3.91568  0
C  C91  1  0.76297279  0.61220610  0.47517670  1  0  0.09518  0  3.678129  0  0  0.054209  0  3.926869  0  0  0.062243  0  3.943407  0  0  0.044408  0.049094  0  3.915632  0
N  N92  1  0.39611604  0.63321852  0.16259620  1  0  -0.269763  0  3.320817  0  0  -0.220501  0  3.652921  0  0  -0.225651  0  3.652909  0  0  -0.272415  -0.217918  0  3.652841  0
N  N93  1  0.60388092  0.13321921  0.83740247  1  0  -0.269649  0  3.320884  0  0  -0.220383  0  3.652964  0  0  -0.225539  0  3.652968  0  0  -0.272351  -0.217794  0  3.652864  0
N  N94  1  0.60388034  0.86677942  0.66259875  1  0  -0.269786  0  3.320975  0  0  -0.220546  0  3.653105  0  0  -0.225697  0  3.653094  0  0  -0.272421  -0.217962  0  3.653032  0
N  N95  1  0.39611871  0.36678052  0.33740262  1  0  -0.269692  0  3.320895  0  0  -0.220429  0  3.652971  0  0  -0.225585  0  3.652976  0  0  -0.272371  -0.217843  0  3.652886  0
N  N96  1  0.60387743  0.36678032  0.83740243  1  0  -0.269712  0  3.320947  0  0  -0.220469  0  3.653046  0  0  -0.225625  0  3.65305  0  0  -0.272377  -0.21788  0  3.652947  0
N  N97  1  0.39611709  0.86678163  0.16259672  1  0  -0.269729  0  3.320807  0  0  -0.220462  0  3.652901  0  0  -0.225608  0  3.652883  0  0  -0.272396  -0.217878  0  3.65282  0
N  N98  1  0.39611615  0.13321874  0.33740266  1  0  -0.269696  0  3.320898  0  0  -0.220436  0  3.652982  0  0  -0.225591  0  3.652986  0  0  -0.272387  -0.217849  0  3.652897  0
N  N99  1  0.60388232  0.63321899  0.66259824  1  0  -0.269789  0  3.320947  0  0  -0.22053  0  3.653044  0  0  -0.225682  0  3.653039  0  0  -0.272388  -0.217945  0  3.65297  0
N  N100  1  0.54503672  0.58493145  0.19341691  1  0  -0.113083  0  3.170894  0  0  -0.069131  0  3.452427  0  0  -0.076237  0  3.468763  0  0  -0.120038  -0.064187  0  3.441426  0
N  N101  1  0.45495892  0.08493161  0.80658289  1  0  -0.113145  0  3.170936  0  0  -0.069201  0  3.452475  0  0  -0.076308  0  3.468814  0  0  -0.120062  -0.064255  0  3.441471  0
N  N102  1  0.45495837  0.91506781  0.69341763  1  0  -0.113098  0  3.170957  0  0  -0.069146  0  3.452489  0  0  -0.076253  0  3.468828  0  0  -0.120035  -0.064201  0  3.441488  0
N  N103  1  0.54503746  0.41506947  0.30658261  1  0  -0.113076  0  3.170908  0  0  -0.069121  0  3.452431  0  0  -0.076229  0  3.468769  0  0  -0.120033  -0.064177  0  3.441429  0
N  N104  1  0.45495826  0.41506939  0.80658284  1  0  -0.113118  0  3.170977  0  0  -0.069156  0  3.452506  0  0  -0.076263  0  3.468844  0  0  -0.120048  -0.064211  0  3.441501  0
N  N105  1  0.54503757  0.91506923  0.19341741  1  0  -0.113118  0  3.170943  0  0  -0.069172  0  3.452482  0  0  -0.07628  0  3.468819  0  0  -0.120055  -0.064228  0  3.441481  0
N  N106  1  0.54503661  0.08493103  0.30658323  1  0  -0.113074  0  3.170914  0  0  -0.069121  0  3.452441  0  0  -0.07623  0  3.468779  0  0  -0.120023  -0.064177  0  3.441439  0
N  N107  1  0.45496054  0.58493003  0.69341713  1  0  -0.113048  0  3.170928  0  0  -0.069088  0  3.452443  0  0  -0.076196  0  3.468783  0  0  -0.120047  -0.064144  0  3.441443  0
N  N108  1  0.43125935  0.50594858  0.10075221  1  0  -0.273104  0  2.962044  0  0  -0.255075  0  3.244801  0  0  -0.264271  0  3.260005  0  0  -0.204605  -0.248753  0  3.234513  0
N  N109  1  0.56874265  0.00594928  0.89924705  1  0  -0.27307  0  2.962071  0  0  -0.255044  0  3.244813  0  0  -0.26424  0  3.260016  0  0  -0.204596  -0.248723  0  3.234526  0
N  N110  1  0.56874415  0.99405006  0.60075358  1  0  -0.273025  0  2.962056  0  0  -0.255007  0  3.244814  0  0  -0.264205  0  3.260019  0  0  -0.204568  -0.248684  0  3.234526  0
N  N111  1  0.43125742  0.49405043  0.39924775  1  0  -0.273046  0  2.962064  0  0  -0.255022  0  3.244808  0  0  -0.264219  0  3.260012  0  0  -0.204577  -0.248701  0  3.234521  0
N  N112  1  0.56873714  0.49405092  0.89924753  1  0  -0.273078  0  2.962178  0  0  -0.255047  0  3.244912  0  0  -0.264243  0  3.260115  0  0  -0.204632  -0.248724  0  3.234623  0
N  N113  1  0.43125989  0.99405157  0.10075213  1  0  -0.27306  0  2.96208  0  0  -0.255024  0  3.244815  0  0  -0.264221  0  3.260017  0  0  -0.204589  -0.248703  0  3.234527  0
N  N114  1  0.43125688  0.00594811  0.39924783  1  0  -0.273113  0  2.962104  0  0  -0.255092  0  3.244852  0  0  -0.264288  0  3.260054  0  0  -0.204597  -0.24877  0  3.234565  0
N  N115  1  0.56874663  0.50594908  0.60075311  1  0  -0.273049  0  2.962102  0  0  -0.255021  0  3.244848  0  0  -0.264218  0  3.260051  0  0  -0.204556  -0.248699  0  3.234561  0
N  N116  1  0.56366049  0.50907815  0.15641624  1  0  -0.10313  0  3.192525  0  0  -0.059692  0  3.482692  0  0  -0.066285  0  3.500928  0  0  -0.111071  -0.054874  0  3.470067  0
N  N117  1  0.43633999  0.00907831  0.84358358  1  0  -0.103157  0  3.192533  0  0  -0.05972  0  3.482695  0  0  -0.066313  0  3.500931  0  0  -0.111084  -0.054903  0  3.47007  0
N  N118  1  0.43634039  0.99092113  0.65641692  1  0  -0.103101  0  3.192594  0  0  -0.059658  0  3.482753  0  0  -0.066251  0  3.50099  0  0  -0.111052  -0.054841  0  3.470127  0
N  N119  1  0.56365666  0.49092276  0.34358385  1  0  -0.103213  0  3.192595  0  0  -0.059784  0  3.482773  0  0  -0.066378  0  3.501008  0  0  -0.111117  -0.054966  0  3.470148  0
N  N120  1  0.43633752  0.49092202  0.84358350  1  0  -0.103163  0  3.192682  0  0  -0.059736  0  3.482862  0  0  -0.066329  0  3.501097  0  0  -0.111089  -0.054918  0  3.470235  0
N  N121  1  0.56366104  0.99092254  0.15641616  1  0  -0.103133  0  3.192604  0  0  -0.0597  0  3.482788  0  0  -0.066293  0  3.501024  0  0  -0.111058  -0.054882  0  3.470163  0
N  N122  1  0.56365762  0.00907771  0.34358393  1  0  -0.103124  0  3.192564  0  0  -0.059684  0  3.482725  0  0  -0.066277  0  3.50096  0  0  -0.11108  -0.054866  0  3.470099  0
N  N123  1  0.43634437  0.50907741  0.65641589  1  0  -0.103175  0  3.192644  0  0  -0.059751  0  3.482826  0  0  -0.066344  0  3.501061  0  0  -0.111085  -0.054934  0  3.470202  0
N  N124  1  0.10859193  0.62780494  0.91875061  1  0  -0.319579  0  3.280414  0  0  -0.237708  0  3.54303  0  0  -0.259214  0  3.564671  0  0  -0.33286  -0.223077  0  3.527975  0
N  N125  1  0.89141109  0.12780577  0.08124639  1  0  -0.319428  0  3.280416  0  0  -0.237541  0  3.543048  0  0  -0.259049  0  3.564695  0  0  -0.332837  -0.222911  0  3.527991  0
N  N126  1  0.89140778  0.87219421  0.41875570  1  0  -0.319426  0  3.280558  0  0  -0.237569  0  3.543242  0  0  -0.259076  0  3.56489  0  0  -0.332908  -0.22294  0  3.528187  0
N  N127  1  0.10859577  0.37219542  0.58124678  1  0  -0.319521  0  3.280264  0  0  -0.237635  0  3.542928  0  0  -0.25914  0  3.564565  0  0  -0.332897  -0.223007  0  3.527876  0
N  N128  1  0.89140607  0.37219323  0.08124635  1  0  -0.31949  0  3.28033  0  0  -0.237646  0  3.543011  0  0  -0.259151  0  3.564653  0  0  -0.332875  -0.223017  0  3.527959  0
N  N129  1  0.10859295  0.87219507  0.91875168  1  0  -0.31954  0  3.280358  0  0  -0.237658  0  3.542979  0  0  -0.259165  0  3.56462  0  0  -0.332832  -0.223028  0  3.527925  0
N  N130  1  0.10859173  0.12780462  0.58124738  1  0  -0.31947  0  3.28035  0  0  -0.237639  0  3.543015  0  0  -0.259146  0  3.564657  0  0  -0.332878  -0.22301  0  3.52796  0
N  N131  1  0.89140525  0.62780743  0.41875463  1  0  -0.319552  0  3.280386  0  0  -0.237716  0  3.543083  0  0  -0.259223  0  3.564724  0  0  -0.33291  -0.223088  0  3.528032  0
Cl  Cl132  1  0.97641438  0.75000016  0.23832862  1  0  -0.540232  0  1.247048  0  0  -0.464887  0  1.613766  0  0  -0.481223  0  1.580531  0  0  -0.280112  -0.453259  0  1.635789  0
Cl  Cl133  1  0.02358060  0.25000068  0.76167000  1  0  -0.540223  0  1.246992  0  0  -0.464888  0  1.613712  0  0  -0.48123  0  1.580484  0  0  -0.280108  -0.453255  0  1.635729  0
Cl  Cl134  1  0.02358103  0.75000042  0.73832953  1  0  -0.540217  0  1.246991  0  0  -0.464877  0  1.613707  0  0  -0.481215  0  1.580474  0  0  -0.280119  -0.453252  0  1.635737  0
Cl  Cl135  1  0.97641546  0.24999976  0.26167132  1  0  -0.540229  0  1.247066  0  0  -0.464884  0  1.613786  0  0  -0.481228  0  1.580555  0  0  -0.280107  -0.453256  0  1.635808  0
Cl  Cl136  1  0.49662933  0.75000033  0.32710362  1  0  -0.526593  0  1.078893  0  0  -0.454877  0  1.404105  0  0  -0.471193  0  1.375517  0  0  -0.278501  -0.443101  0  1.423248  0
Cl  Cl137  1  0.50336716  0.24999984  0.67289445  1  0  -0.526643  0  1.078882  0  0  -0.454931  0  1.404092  0  0  -0.471252  0  1.375508  0  0  -0.278522  -0.443152  0  1.423233  0
Cl  Cl138  1  0.50336520  0.74999954  0.82710500  1  0  -0.526653  0  1.078898  0  0  -0.454946  0  1.404127  0  0  -0.471264  0  1.375539  0  0  -0.278535  -0.443166  0  1.423271  0
Cl  Cl139  1  0.49663129  0.24999997  0.17289696  1  0  -0.526584  0  1.078898  0  0  -0.454882  0  1.40414  0  0  -0.471202  0  1.375554  0  0  -0.2785  -0.443102  0  1.423281  0
Cl  Cl140  1  0.02284717  0.50000100  0.24999978  1  0  -0.517265  0  0.97487  0  0  -0.454115  0  1.2587  0  0  -0.473191  0  1.241328  0  0  -0.301989  -0.440583  0  1.270574  0
Cl  Cl141  1  0.97715032  0.00000078  0.74999949  1  0  -0.517245  0  0.974902  0  0  -0.454111  0  1.258766  0  0  -0.47319  0  1.241394  0  0  -0.301976  -0.440579  0  1.270638  0
Cl  Cl142  1  0.97715083  0.49999984  0.74999940  1  0  -0.517243  0  0.974875  0  0  -0.454114  0  1.258744  0  0  -0.473191  0  1.241372  0  0  -0.301984  -0.440582  0  1.270617  0
Cl  Cl143  1  0.02284617  0.99999940  0.24999970  1  0  -0.517267  0  0.974891  0  0  -0.454117  0  1.258725  0  0  -0.473194  0  1.241352  0  0  -0.301991  -0.440585  0  1.270598  0
