# generated using pymatgen
data_CdH42C50N8(O3F4)2
_symmetry_space_group_name_H-M   'P 1'
_cell_length_a   12.76706841
_cell_length_b   12.76701816
_cell_length_c   16.57380594
_cell_angle_alpha   108.62601652
_cell_angle_beta   108.62628529
_cell_angle_gamma   96.44347224
_symmetry_Int_Tables_number   1
_chemical_formula_structural   CdH42C50N8(O3F4)2
_chemical_formula_sum   'Cd2 H84 C100 N16 O12 F16'
_cell_volume   2355.85748971
_cell_formula_units_Z   2
loop_
 _symmetry_equiv_pos_site_id
 _symmetry_equiv_pos_as_xyz
  1  'x, y, z'
loop_
 _atom_site_type_symbol
 _atom_site_label
 _atom_site_symmetry_multiplicity
 _atom_site_fract_x
 _atom_site_fract_y
 _atom_site_fract_z
 _atom_site_occupancy
 _atom_site_pbe_bader_charge
 _atom_site_pbe_bader_spin_density
 _atom_site_pbe_cm5_charge
 _atom_site_pbe_ddec_charge
 _atom_site_pbe_ddec_spin_density
 _atom_site_pbe_ddec_sum_bond_order
 _atom_site_pbe_magmom
Cd  Cd0  1  0.38067352  0.61932048  0.74999862  1  1.233395  0  0.780754  0.729688  0  2.239989  0
Cd  Cd1  1  0.61932129  0.38067384  0.24999838  1  1.233328  0  0.780762  0.729705  0  2.240028  0
H  H2  1  0.14457493  0.68498762  0.76041507  1  0.094551  0  0.111426  0.075287  0  1.053468  0
H  H3  1  0.31501161  0.85542186  0.73958348  1  0.09461  0  0.111453  0.075341  0  1.053442  0
H  H4  1  0.85541989  0.31501000  0.23958336  1  0.09465  0  0.111453  0.075357  0  1.053397  0
H  H5  1  0.68498492  0.14457616  0.26041666  1  0.094581  0  0.111435  0.075304  0  1.053481  0
H  H6  1  0.46604186  0.76635856  0.96240124  1  0.102728  0  0.116065  0.085395  0  1.014611  0
H  H7  1  0.23364082  0.53395664  0.53759527  1  0.102702  0  0.116062  0.085357  0  1.014639  0
H  H8  1  0.53395466  0.23363781  0.03759427  1  0.102666  0  0.116078  0.085381  0  1.014636  0
H  H9  1  0.76635826  0.46604364  0.46240244  1  0.102745  0  0.116081  0.085429  0  1.014589  0
H  H10  1  0.06473577  0.78345470  0.87291712  1  0.094895  0  0.104889  0.116416  0  1.031324  0
H  H11  1  0.21654521  0.93526389  0.62708191  1  0.094904  0  0.104911  0.11643  0  1.031267  0
H  H12  1  0.93525991  0.21654312  0.12708035  1  0.094943  0  0.104891  0.116372  0  1.031385  0
H  H13  1  0.78345388  0.06473639  0.37291761  1  0.094899  0  0.104902  0.116429  0  1.031296  0
H  H14  1  0.40002811  0.86702729  0.08439104  1  0.097015  0  0.107077  0.111078  0  1.066448  0
H  H15  1  0.13297123  0.59997186  0.41560621  1  0.097038  0  0.10711  0.111168  0  1.066382  0
H  H16  1  0.59996926  0.13297011  0.91560494  1  0.097013  0  0.107124  0.111118  0  1.066393  0
H  H17  1  0.86702701  0.40002821  0.58439245  1  0.096999  0  0.107076  0.111106  0  1.066448  0
H  H18  1  0.15710987  0.83304674  0.09170545  1  0.09317  0  0.101638  0.121043  0  0.996191  0
H  H19  1  0.16695018  0.84288975  0.40829268  1  0.093203  0  0.101629  0.121039  0  0.996161  0
H  H20  1  0.84288921  0.16695188  0.90829306  1  0.093183  0  0.101631  0.121068  0  0.996175  0
H  H21  1  0.83304720  0.15710930  0.59170672  1  0.093174  0  0.101628  0.121061  0  0.996157  0
H  H22  1  0.25816750  0.95883962  0.12221194  1  0.122333  0  0.104701  0.12626  0  1.014762  0
H  H23  1  0.04115669  0.74183064  0.37778682  1  0.122295  0  0.104717  0.126278  0  1.014682  0
H  H24  1  0.74183073  0.04115797  0.87778610  1  0.122276  0  0.104718  0.126281  0  1.014681  0
H  H25  1  0.95883985  0.25816903  0.62221253  1  0.122306  0  0.104712  0.126291  0  1.014714  0
H  H26  1  0.25917062  0.37100535  0.59444110  1  0.150621  0  0.10868  0.07669  0  1.062423  0
H  H27  1  0.62899135  0.74083020  0.90555815  1  0.150616  0  0.108696  0.076726  0  1.062377  0
H  H28  1  0.74083016  0.62899284  0.40555772  1  0.150648  0  0.108675  0.076684  0  1.062393  0
H  H29  1  0.37100688  0.25916739  0.09444171  1  0.150557  0  0.108675  0.076685  0  1.062397  0
H  H30  1  0.57631623  0.57567952  0.66852347  1  0.171237  0  0.11663  0.093943  0  1.020958  0
H  H31  1  0.42432195  0.42368271  0.83147916  1  0.171069  0  0.116612  0.093957  0  1.020913  0
H  H32  1  0.42368541  0.42432053  0.33147843  1  0.171238  0  0.116628  0.093958  0  1.021002  0
H  H33  1  0.57567882  0.57631299  0.16852207  1  0.171278  0  0.116617  0.09393  0  1.020925  0
H  H34  1  0.29702692  0.20893316  0.48493793  1  0.118888  0  0.101486  0.114808  0  1.042174  0
H  H35  1  0.79106558  0.70297653  0.01506145  1  0.118879  0  0.101472  0.114819  0  1.042163  0
H  H36  1  0.70297471  0.79106605  0.51506015  1  0.118868  0  0.101486  0.114811  0  1.042199  0
H  H37  1  0.20893435  0.29702312  0.98493812  1  0.118857  0  0.101478  0.114808  0  1.042175  0
H  H38  1  0.63025944  0.42024507  0.56503223  1  0.090643  0  0.107913  0.12087  0  1.008576  0
H  H39  1  0.57975907  0.36974015  0.93496806  1  0.090367  0  0.107902  0.120859  0  1.008598  0
H  H40  1  0.36974135  0.57975560  0.43496842  1  0.090649  0  0.107904  0.120869  0  1.008598  0
H  H41  1  0.42024426  0.63025781  0.06503315  1  0.090406  0  0.107912  0.120868  0  1.00862  0
H  H42  1  0.43423358  0.17942011  0.38150900  1  0.138455  0  0.105744  0.126634  0  1.022032  0
H  H43  1  0.82058046  0.56576694  0.11849168  1  0.138497  0  0.105735  0.126589  0  1.022063  0
H  H44  1  0.56576806  0.82057994  0.61848988  1  0.138476  0  0.105762  0.126602  0  1.02206  0
H  H45  1  0.17941776  0.43423148  0.88151080  1  0.138484  0  0.105735  0.126547  0  1.022064  0
H  H46  1  0.57978349  0.23285542  0.45183157  1  0.066539  0  0.098568  0.109886  0  1.00326  0
H  H47  1  0.76714665  0.42021461  0.04816787  1  0.066733  0  0.098512  0.109779  0  1.003185  0
H  H48  1  0.42021816  0.76714876  0.54816834  1  0.066606  0  0.098481  0.109679  0  1.003299  0
H  H49  1  0.23285158  0.57978381  0.95183339  1  0.066589  0  0.098485  0.109692  0  1.00325  0
H  H50  1  0.47940528  0.04465590  0.78564906  1  0.47353  0  0.289787  0.236406  0  1.025328  0
H  H51  1  0.95534297  0.52059417  0.71435098  1  0.473551  0  0.289794  0.236395  0  1.025345  0
H  H52  1  0.52059467  0.95534706  0.21435133  1  0.473503  0  0.289785  0.236414  0  1.025305  0
H  H53  1  0.04465697  0.47940630  0.28564940  1  0.473537  0  0.289784  0.236384  0  1.02536  0
H  H54  1  0.36806034  0.00439346  0.87067630  1  0.065405  0  0.097876  0.114254  0  1.017166  0
H  H55  1  0.99560576  0.63194045  0.62932400  1  0.065617  0  0.097876  0.114248  0  1.017115  0
H  H56  1  0.63194301  0.99561029  0.12932573  1  0.065543  0  0.097879  0.114242  0  1.017114  0
H  H57  1  0.00439247  0.36805797  0.37067485  1  0.06558  0  0.097885  0.114281  0  1.017095  0
H  H58  1  0.18142398  0.99836993  0.88591709  1  0.044419  0  0.085888  0.079829  0  1.047007  0
H  H59  1  0.00163315  0.81857957  0.61408467  1  0.044557  0  0.085885  0.079875  0  1.046938  0
H  H60  1  0.81857685  0.00163819  0.11408418  1  0.044427  0  0.085869  0.079853  0  1.046919  0
H  H61  1  0.99836764  0.18142110  0.38591537  1  0.044553  0  0.085879  0.079854  0  1.046952  0
H  H62  1  0.05289899  0.11294041  0.82549978  1  0.053377  0  0.085501  0.086034  0  1.036493  0
H  H63  1  0.88706526  0.94710494  0.67450437  1  0.053465  0  0.085489  0.086045  0  1.036506  0
H  H64  1  0.94710524  0.88706851  0.17450193  1  0.053112  0  0.08555  0.086119  0  1.036482  0
H  H65  1  0.11293893  0.05289571  0.32549891  1  0.053309  0  0.08552  0.086053  0  1.036508  0
H  H66  1  0.11627802  0.23411213  0.74955909  1  0.080393  0  0.090292  0.091612  0  1.038389  0
H  H67  1  0.76589049  0.88372524  0.75044281  1  0.080441  0  0.090276  0.091592  0  1.0384  0
H  H68  1  0.88372449  0.76589225  0.25044047  1  0.080474  0  0.090251  0.091525  0  1.038498  0
H  H69  1  0.23411115  0.11627563  0.24955809  1  0.080439  0  0.090278  0.091596  0  1.038383  0
H  H70  1  0.29605651  0.23234204  0.72577897  1  0.063669  0  0.090633  0.09671  0  1.05557  0
H  H71  1  0.76765811  0.70394449  0.77422095  1  0.063691  0  0.090632  0.096717  0  1.055534  0
H  H72  1  0.70394855  0.76766211  0.27422237  1  0.063518  0  0.090661  0.096799  0  1.055518  0
H  H73  1  0.23233927  0.29605456  0.22577784  1  0.063723  0  0.090632  0.096752  0  1.055571  0
H  H74  1  0.56393847  0.15383666  0.72826150  1  0.056724  0  0.098127  0.111625  0  1.005762  0
H  H75  1  0.84616110  0.43606016  0.77173741  1  0.056727  0  0.098106  0.111625  0  1.005722  0
H  H76  1  0.43606317  0.84616339  0.27173799  1  0.056768  0  0.098118  0.111614  0  1.005782  0
H  H77  1  0.15383798  0.56393928  0.22826251  1  0.056732  0  0.098113  0.111628  0  1.005736  0
H  H78  1  0.48380109  0.25653195  0.74955215  1  0.006926  0  0.091491  0.094093  0  1.024197  0
H  H79  1  0.74346732  0.51619899  0.75044649  1  0.006901  0  0.091486  0.094072  0  1.024217  0
H  H80  1  0.51620225  0.74346932  0.25044505  1  0.006951  0  0.091501  0.094111  0  1.024237  0
H  H81  1  0.25653262  0.48380066  0.24955369  1  0.006913  0  0.091487  0.094076  0  1.02421  0
H  H82  1  0.41924856  0.12637945  0.65239875  1  0.059087  0  0.081072  0.080992  0  1.033834  0
H  H83  1  0.87361812  0.58074999  0.84759983  1  0.059165  0  0.081068  0.080989  0  1.033875  0
H  H84  1  0.58075393  0.87362079  0.34760039  1  0.059101  0  0.081071  0.081007  0  1.033906  0
H  H85  1  0.12638097  0.41924946  0.15239948  1  0.059108  0  0.081084  0.081014  0  1.033823  0
C  C86  1  0.19825966  0.72524804  0.83324314  1  0.481618  0  0.043186  0.099206  0  3.948086  0
C  C87  1  0.27475129  0.80173667  0.66675474  1  0.481554  0  0.043137  0.099124  0  3.94814  0
C  C88  1  0.80173517  0.27474876  0.16675327  1  0.481527  0  0.043122  0.099095  0  3.948041  0
C  C89  1  0.72524608  0.19826073  0.33324425  1  0.481523  0  0.043188  0.099258  0  3.948043  0
C  C90  1  0.37718547  0.77021780  0.94565601  1  0.46504  0  0.045829  0.10362  0  3.952847  0
C  C91  1  0.22978091  0.62281266  0.55434126  1  0.464985  0  0.045853  0.103778  0  3.952735  0
C  C92  1  0.62281020  0.22977919  0.05434006  1  0.464969  0  0.045803  0.103684  0  3.952673  0
C  C93  1  0.77021733  0.37718659  0.44565659  1  0.465004  0  0.04585  0.103624  0  3.952773  0
C  C94  1  0.15414528  0.78094667  0.89723259  1  -0.067246  0  -0.088205  -0.185168  0  3.922894  0
C  C95  1  0.21905200  0.84585356  0.60276553  1  -0.06722  0  -0.08821  -0.185156  0  3.922796  0
C  C96  1  0.84585294  0.21905092  0.10276606  1  -0.067261  0  -0.088211  -0.185097  0  3.922882  0
C  C97  1  0.78094623  0.15414486  0.39723332  1  -0.067238  0  -0.088216  -0.185209  0  3.922844  0
C  C98  1  0.33975402  0.82730874  0.01356027  1  0.01103  0  -0.083914  -0.175992  0  3.925328  0
C  C99  1  0.17268966  0.66024470  0.48643720  1  0.010984  0  -0.083949  -0.176185  0  3.92531  0
C  C100  1  0.66024250  0.17268845  0.98643665  1  0.010929  0  -0.083968  -0.176102  0  3.925255  0
C  C101  1  0.82730942  0.33975475  0.51356151  1  0.011026  0  -0.083915  -0.176001  0  3.925253  0
C  C102  1  0.22574832  0.83335013  0.99007694  1  0.030566  0  0.014628  0.175641  0  3.913042  0
C  C103  1  0.16664846  0.77425250  0.50992230  1  0.030516  0  0.014609  0.175646  0  3.913035  0
C  C104  1  0.77425076  0.16664849  0.00992277  1  0.030583  0  0.014622  0.17562  0  3.91291  0
C  C105  1  0.83334893  0.22574820  0.49007752  1  0.030536  0  0.014618  0.175604  0  3.913034  0
C  C106  1  0.18542927  0.89453669  0.06479420  1  -0.025849  0  -0.151622  -0.229458  0  3.936058  0
C  C107  1  0.10546087  0.81457031  0.43520460  1  -0.026469  0  -0.151648  -0.229492  0  3.935819  0
C  C108  1  0.81456896  0.10546090  0.93520324  1  -0.026444  0  -0.15159  -0.229436  0  3.935704  0
C  C109  1  0.89453823  0.18543079  0.56479573  1  -0.026388  0  -0.151622  -0.229494  0  3.935886  0
C  C110  1  0.09035278  0.94882000  0.03267533  1  0.075076  0  -0.019968  -0.058697  0  4.058193  0
C  C111  1  0.05117576  0.90964726  0.46732402  1  0.075677  0  -0.019917  -0.058591  0  4.058069  0
C  C112  1  0.90964544  0.05117677  0.96732432  1  0.075784  0  -0.019917  -0.058614  0  4.058108  0
C  C113  1  0.94882163  0.09035427  0.53267599  1  0.075632  0  -0.019925  -0.058613  0  4.058021  0
C  C114  1  0.97649158  0.89007772  0.99497656  1  0.50578  0  0.08958  0.120575  0  4.090237  0
C  C115  1  0.10991786  0.02350768  0.50502006  1  0.505886  0  0.089571  0.120446  0  4.090355  0
C  C116  1  0.02350579  0.10991967  0.00502183  1  0.505875  0  0.089528  0.120477  0  4.090301  0
C  C117  1  0.89007953  0.97649302  0.49497915  1  0.505828  0  0.089544  0.120489  0  4.090267  0
C  C118  1  0.88856694  0.93979209  0.96345233  1  0.518153  0  0.092072  0.12513  0  4.0975  0
C  C119  1  0.06020549  0.11143143  0.53654547  1  0.518219  0  0.09212  0.125229  0  4.097377  0
C  C120  1  0.11143128  0.06020467  0.03654612  1  0.518275  0  0.09217  0.12526  0  4.097353  0
C  C121  1  0.93979275  0.88856865  0.46345440  1  0.518275  0  0.092117  0.125224  0  4.097504  0
C  C122  1  0.34033377  0.37792232  0.58580681  1  0.418065  0  0.039514  0.086744  0  3.959253  0
C  C123  1  0.62207641  0.65966772  0.91419387  1  0.417596  0  0.039412  0.086552  0  3.959167  0
C  C124  1  0.65966701  0.62207752  0.41419302  1  0.417871  0  0.03948  0.086673  0  3.95916  0
C  C125  1  0.37792182  0.34032988  0.08580599  1  0.417672  0  0.039524  0.086698  0  3.959162  0
C  C126  1  0.51770217  0.49224566  0.62762690  1  0.388532  0  0.041693  0.089732  0  3.952694  0
C  C127  1  0.50775568  0.48229747  0.87237410  1  0.388316  0  0.041721  0.089723  0  3.952718  0
C  C128  1  0.48229861  0.50775335  0.37237393  1  0.388132  0  0.0417  0.0897  0  3.952768  0
C  C129  1  0.49224595  0.51769927  0.12762638  1  0.388149  0  0.041694  0.089725  0  3.952695  0
C  C130  1  0.36259877  0.28771635  0.52538683  1  -0.011724  0  -0.08402  -0.171686  0  3.913798  0
C  C131  1  0.71228254  0.63740331  0.97461368  1  -0.011414  0  -0.08401  -0.17163  0  3.913798  0
C  C132  1  0.63740287  0.71228369  0.47461326  1  -0.011638  0  -0.084043  -0.171667  0  3.913863  0
C  C133  1  0.28771570  0.36259593  0.02538659  1  -0.011326  0  -0.084051  -0.171655  0  3.913925  0
C  C134  1  0.54664812  0.40543352  0.56915479  1  -0.031854  0  -0.085507  -0.186924  0  3.938695  0
C  C135  1  0.59456966  0.45335261  0.93084599  1  -0.031137  0  -0.085518  -0.1869  0  3.938829  0
C  C136  1  0.45335437  0.59456755  0.43084637  1  -0.031391  0  -0.085477  -0.186857  0  3.938737  0
C  C137  1  0.40543197  0.54664578  0.06915430  1  -0.031136  0  -0.085474  -0.186845  0  3.938728  0
C  C138  1  0.46841545  0.30007165  0.51676042  1  0.014973  0  0.016229  0.181497  0  3.909975  0
C  C139  1  0.69992881  0.53158534  0.98323976  1  0.014938  0  0.01624  0.181462  0  3.910168  0
C  C140  1  0.53158705  0.69992943  0.48323953  1  0.015078  0  0.016245  0.181438  0  3.910137  0
C  C141  1  0.30007113  0.46841348  0.01676142  1  0.015078  0  0.016236  0.18138  0  3.910175  0
C  C142  1  0.49564961  0.20357466  0.45201908  1  -0.022106  0  -0.150712  -0.221307  0  3.917633  0
C  C143  1  0.79642569  0.50435317  0.04798037  1  -0.022317  0  -0.150662  -0.221188  0  3.917557  0
C  C144  1  0.50435459  0.79642681  0.54798079  1  -0.022361  0  -0.150666  -0.220996  0  3.91761  0
C  C145  1  0.20357340  0.49564711  0.95202156  1  -0.022364  0  -0.15061  -0.220962  0  3.917417  0
C  C146  1  0.49547211  0.09935310  0.47654897  1  0.148629  0  -0.018214  -0.053101  0  4.020029  0
C  C147  1  0.90064958  0.50453252  0.02345354  1  0.148829  0  -0.018204  -0.053045  0  4.019875  0
C  C148  1  0.50453720  0.90065205  0.52345366  1  0.148799  0  -0.018276  -0.053399  0  4.020141  0
C  C149  1  0.09935121  0.49546815  0.97655011  1  0.14864  0  -0.018265  -0.053193  0  4.019921  0
C  C150  1  0.58322252  0.09781059  0.55210016  1  0.447995  0  0.08559  0.111058  0  4.095368  0
C  C151  1  0.90218853  0.41677905  0.94789937  1  0.447888  0  0.085673  0.111104  0  4.095029  0
C  C152  1  0.41678338  0.90219211  0.44789922  1  0.447907  0  0.085699  0.111268  0  4.094879  0
C  C153  1  0.09781055  0.58321957  0.05210216  1  0.44801  0  0.085731  0.111233  0  4.095073  0
C  C154  1  0.58886046  0.00184004  0.57466581  1  0.522554  0  0.088478  0.120048  0  4.106868  0
C  C155  1  0.99816149  0.41114268  0.92533613  1  0.522599  0  0.088486  0.120032  0  4.106586  0
C  C156  1  0.41114545  0.99816432  0.42533398  1  0.522646  0  0.088463  0.120076  0  4.106541  0
C  C157  1  0.00183929  0.58885717  0.07466672  1  0.522585  0  0.088394  0.119882  0  4.106718  0
C  C158  1  0.34516146  0.11614657  0.79476257  1  0.368138  0  0.087957  0.230024  0  4.08499  0
C  C159  1  0.88385421  0.65483995  0.70523797  1  0.3682  0  0.08799  0.230078  0  4.085142  0
C  C160  1  0.65484276  0.88386069  0.20524053  1  0.368222  0  0.087988  0.23016  0  4.084841  0
C  C161  1  0.11614487  0.34515950  0.29476135  1  0.368211  0  0.087994  0.230095  0  4.084933  0
C  C162  1  0.31140179  0.05272692  0.84222787  1  -0.051158  0  -0.116551  -0.2166  0  3.98278  0
C  C163  1  0.94727322  0.68860062  0.65777464  1  -0.051236  0  -0.116604  -0.216642  0  3.982944  0
C  C164  1  0.68860243  0.94727951  0.15777684  1  -0.051292  0  -0.116644  -0.216683  0  3.982895  0
C  C165  1  0.05272501  0.31139779  0.34222603  1  -0.051261  0  -0.116592  -0.216656  0  3.982842  0
C  C166  1  0.20697452  0.05097681  0.85182956  1  -0.042282  0  -0.104272  -0.063997  0  4.060531  0
C  C167  1  0.94902552  0.79302824  0.64817335  1  -0.042646  0  -0.104271  -0.064125  0  4.060647  0
C  C168  1  0.79302800  0.94903171  0.14817464  1  -0.042326  0  -0.104212  -0.064009  0  4.060385  0
C  C169  1  0.05097441  0.20697058  0.35182723  1  -0.042619  0  -0.104274  -0.064073  0  4.060683  0
C  C170  1  0.13473712  0.11487324  0.81798676  1  -0.053667  0  -0.123362  -0.141584  0  4.071004  0
C  C171  1  0.88513022  0.86526859  0.68201565  1  -0.054207  0  -0.123296  -0.14146  0  4.070955  0
C  C172  1  0.86526965  0.88513379  0.18201632  1  -0.054216  0  -0.123405  -0.141667  0  4.070928  0
C  C173  1  0.11487058  0.13473291  0.31798580  1  -0.053872  0  -0.123354  -0.141538  0  4.07105  0
C  C174  1  0.16953702  0.18120287  0.77438975  1  -0.063098  0  -0.105379  -0.072662  0  4.064955  0
C  C175  1  0.81880013  0.83046630  0.72561128  1  -0.062815  0  -0.105375  -0.072664  0  4.064935  0
C  C176  1  0.83046890  0.81880396  0.22561246  1  -0.062541  0  -0.105296  -0.072443  0  4.065044  0
C  C177  1  0.18119981  0.16953418  0.27438849  1  -0.062806  0  -0.105353  -0.072592  0  4.064906  0
C  C178  1  0.27267022  0.18151256  0.76184586  1  -0.10199  0  -0.125385  -0.2252  0  3.996844  0
C  C179  1  0.81848918  0.72733096  0.73815397  1  -0.102075  0  -0.125372  -0.225224  0  3.99685  0
C  C180  1  0.72733569  0.81849344  0.23815676  1  -0.101964  0  -0.125461  -0.225479  0  3.996961  0
C  C181  1  0.18151075  0.27266869  0.26184500  1  -0.102092  0  -0.125434  -0.225368  0  3.996917  0
C  C182  1  0.47893256  0.16463189  0.72495231  1  0.301581  0  -0.145583  -0.210883  0  3.988104  0
C  C183  1  0.83536593  0.52106667  0.77504716  1  0.301513  0  -0.145577  -0.210906  0  3.988071  0
C  C184  1  0.52106908  0.83536898  0.27504678  1  0.30158  0  -0.145606  -0.210974  0  3.98823  0
C  C185  1  0.16463315  0.47893277  0.22495336  1  0.301575  0  -0.145603  -0.21093  0  3.988009  0
N  N186  1  0.30774155  0.71916404  0.85656408  1  -1.241121  0  -0.336727  -0.245793  0  3.529914  0
N  N187  1  0.28083462  0.69225524  0.64343341  1  -1.241003  0  -0.336705  -0.245803  0  3.529897  0
N  N188  1  0.69225242  0.28083172  0.14343187  1  -1.240914  0  -0.336679  -0.245786  0  3.529709  0
N  N189  1  0.71916361  0.30774401  0.35656505  1  -1.241007  0  -0.33675  -0.245879  0  3.529982  0
N  N190  1  0.41657545  0.47870690  0.63677237  1  -1.242586  0  -0.335174  -0.243229  0  3.518336  0
N  N191  1  0.52129187  0.58342410  0.86322840  1  -1.242433  0  -0.335088  -0.243133  0  3.518192  0
N  N192  1  0.58342533  0.52129212  0.36322726  1  -1.242441  0  -0.335149  -0.243201  0  3.518264  0
N  N193  1  0.47870720  0.41657286  0.13677211  1  -1.242569  0  -0.335167  -0.243207  0  3.518363  0
N  N194  1  0.14983181  0.45739300  0.71092504  1  0.829457  0  0.090973  0.70811  0  4.438448  0
N  N195  1  0.54260535  0.85016958  0.78907494  1  0.828883  0  0.090986  0.708124  0  4.438398  0
N  N196  1  0.85017067  0.54260559  0.28907551  1  0.828884  0  0.091038  0.708175  0  4.438397  0
N  N197  1  0.45739202  0.14982699  0.21092626  1  0.828934  0  0.091023  0.708116  0  4.438338  0
N  N198  1  0.44750471  0.11398373  0.78308528  1  -1.223871  0  -0.458974  -0.310572  0  3.596431  0
N  N199  1  0.88601531  0.55249678  0.71691388  1  -1.223843  0  -0.458992  -0.310539  0  3.59647  0
N  N200  1  0.55249865  0.88602002  0.21691494  1  -1.223858  0  -0.458943  -0.310518  0  3.596249  0
N  N201  1  0.11398293  0.44750329  0.28308538  1  -1.223859  0  -0.458939  -0.310505  0  3.596364  0
O  O202  1  0.25168648  0.45614206  0.75597319  1  -0.584429  0  -0.20473  -0.464379  0  2.023819  0
O  O203  1  0.54385570  0.74831400  0.74402845  1  -0.584318  0  -0.20474  -0.464341  0  2.023639  0
O  O204  1  0.74831429  0.54385447  0.24402763  1  -0.58429  0  -0.204786  -0.464362  0  2.023617  0
O  O205  1  0.45613998  0.25168300  0.25597003  1  -0.584322  0  -0.204788  -0.464361  0  2.023644  0
O  O206  1  0.13109837  0.49391657  0.64656217  1  -0.545289  0  -0.195032  -0.460926  0  1.964559  0
O  O207  1  0.50608269  0.86890485  0.85343836  1  -0.545322  0  -0.195041  -0.460955  0  1.964588  0
O  O208  1  0.86890582  0.50608407  0.35343931  1  -0.545326  0  -0.195033  -0.460945  0  1.964583  0
O  O209  1  0.49391467  0.13108924  0.14656283  1  -0.545159  0  -0.194963  -0.460881  0  1.964567  0
O  O210  1  0.06954925  0.42306422  0.73243770  1  -0.55281  0  -0.181882  -0.440223  0  1.988416  0
O  O211  1  0.57693526  0.93045222  0.76756187  1  -0.55233  0  -0.181882  -0.440257  0  1.9885  0
O  O212  1  0.93045239  0.57693666  0.26756260  1  -0.552345  0  -0.181903  -0.440292  0  1.988542  0
O  O213  1  0.42306382  0.06954723  0.23244348  1  -0.552489  0  -0.181924  -0.440267  0  1.988484  0
F  F214  1  0.95051080  0.78031863  0.98797448  1  -0.635492  0  -0.0783  -0.113966  0  1.438471  0
F  F215  1  0.21967804  0.04948946  0.51202163  1  -0.635569  0  -0.078298  -0.113913  0  1.438474  0
F  F216  1  0.04948828  0.21967999  0.01202403  1  -0.63553  0  -0.078288  -0.113935  0  1.438401  0
F  F217  1  0.78031935  0.95051207  0.48797598  1  -0.635505  0  -0.078309  -0.113955  0  1.438415  0
F  F218  1  0.77957324  0.87804687  0.92792582  1  -0.630445  0  -0.068085  -0.089563  0  1.442144  0
F  F219  1  0.12195049  0.22042691  0.57207225  1  -0.630413  0  -0.068137  -0.08962  0  1.441962  0
F  F220  1  0.22042414  0.12195135  0.07207217  1  -0.630468  0  -0.068136  -0.08959  0  1.442019  0
F  F221  1  0.87804690  0.77957380  0.42792696  1  -0.630416  0  -0.068097  -0.089582  0  1.442116  0
F  F222  1  0.66663351  0.19464815  0.60714465  1  -0.632201  0  -0.081021  -0.104564  0  1.394796  0
F  F223  1  0.80535315  0.33336875  0.89285616  1  -0.632149  0  -0.081064  -0.104565  0  1.394704  0
F  F224  1  0.33336984  0.80535478  0.39285537  1  -0.632088  0  -0.081099  -0.104621  0  1.394602  0
F  F225  1  0.19464423  0.66663030  0.10714445  1  -0.632111  0  -0.081108  -0.10461  0  1.394789  0
F  F226  1  0.67855878  0.00945017  0.64917302  1  -0.629502  0  -0.078973  -0.099604  0  1.407867  0
F  F227  1  0.99055202  0.32144186  0.85082744  1  -0.629447  0  -0.079016  -0.099682  0  1.407724  0
F  F228  1  0.32144459  0.99055524  0.35082821  1  -0.629457  0  -0.078982  -0.09968  0  1.407802  0
F  F229  1  0.00944707  0.67855758  0.14917369  1  -0.629481  0  -0.07897  -0.099621  0  1.407804  0
