# generated using pymatgen
data_ZnH12C15(NO3)4
_symmetry_space_group_name_H-M   'P 1'
_cell_length_a   10.04758856
_cell_length_b   10.70982408
_cell_length_c   11.22765543
_cell_angle_alpha   101.87755273
_cell_angle_beta   96.13706567
_cell_angle_gamma   96.79072726
_symmetry_Int_Tables_number   1
_chemical_formula_structural   ZnH12C15(NO3)4
_chemical_formula_sum   'Zn2 H24 C30 N8 O24'
_cell_volume   1163.26494834
_cell_formula_units_Z   2
loop_
 _symmetry_equiv_pos_site_id
 _symmetry_equiv_pos_as_xyz
  1  'x, y, z'
loop_
 _atom_site_type_symbol
 _atom_site_label
 _atom_site_symmetry_multiplicity
 _atom_site_fract_x
 _atom_site_fract_y
 _atom_site_fract_z
 _atom_site_occupancy
 _atom_site_pbe_bader_charge
 _atom_site_pbe_bader_spin_density
 _atom_site_pbe_cm5_charge
 _atom_site_pbe_ddec_charge
 _atom_site_pbe_ddec_spin_density
 _atom_site_pbe_ddec_sum_bond_order
 _atom_site_pbe_magmom
Zn  Zn0  1  0.66831605  0.53011440  0.60793442  1  1.33015  0  0.691234  0.875948  0  2.323116  0
Zn  Zn1  1  0.35799191  0.46341085  0.48800570  1  1.337437  0  0.701021  0.930029  0  2.233988  0
H  H2  1  0.33674264  0.83386639  0.42744855  1  0.114509  0  0.116549  0.124949  0  0.989114  0
H  H3  1  0.34080039  0.06546033  0.41938228  1  0.11031  0  0.112948  0.117229  0  0.991688  0
H  H4  1  0.20600102  0.41648688  0.82041534  1  0.149949  0  0.109226  0.119211  0  1.006437  0
H  H5  1  0.13522968  0.44788297  0.02971344  1  0.100104  0  0.11684  0.125538  0  0.976703  0
H  H6  1  0.56533147  0.13080542  0.78842116  1  0.038447  0  0.096091  0.0579  0  0.992441  0
H  H7  1  0.62651510  0.29975187  0.81231617  1  0.056805  0  0.093064  0.063946  0  1.010795  0
H  H8  1  0.74659248  0.29381661  0.01959895  1  0.056429  0  0.089031  0.130417  0  1.010836  0
H  H9  1  0.57069603  0.24344978  0.00882710  1  0.048839  0  0.093539  0.131922  0  0.989335  0
H  H10  1  0.68275173  0.12576808  0.99426494  1  0.05072  0  0.091396  0.131933  0  0.999724  0
H  H11  1  0.81467577  0.94500632  0.40321459  1  0.061554  0  0.098855  0.067851  0  0.989061  0
H  H12  1  0.79191158  0.78629563  0.43268985  1  0.10467  0  0.094569  0.068523  0  1.037618  0
H  H13  1  0.04229035  0.78049141  0.43805766  1  0.052221  0  0.085568  0.123935  0  1.007257  0
H  H14  1  0.97327308  0.81342418  0.29817276  1  0.042613  0  0.102769  0.146823  0  0.973741  0
H  H15  1  0.06541394  0.94171429  0.41598343  1  0.028439  0  0.089565  0.120917  0  1.004314  0
H  H16  1  0.16369549  0.30664440  0.19304404  1  0.109004  0  0.111555  0.082192  0  0.991532  0
H  H17  1  0.98877668  0.32601337  0.19101894  1  0.101153  0  0.111561  0.078618  0  0.998977  0
H  H18  1  0.94007302  0.10055719  0.22958195  1  0.081308  0  0.09944  0.144745  0  0.995816  0
H  H19  1  0.01837560  0.09732135  0.09422896  1  0.087156  0  0.104707  0.148701  0  0.977829  0
H  H20  1  0.11608294  0.08665211  0.23239898  1  0.04793  0  0.096714  0.132172  0  0.990029  0
H  H21  1  0.36143861  0.78685758  0.79362249  1  0.073553  0  0.121956  0.103997  0  0.939202  0
H  H22  1  0.20393950  0.75804379  0.85151519  1  0.123814  0  0.114415  0.088542  0  1.008182  0
H  H23  1  0.08570154  0.84240512  0.67883612  1  0.099759  0  0.085567  0.119948  0  1.069402  0
H  H24  1  0.21875353  0.95707951  0.76499878  1  0.058383  0  0.1072  0.155216  0  0.959853  0
H  H25  1  0.24375495  0.86451671  0.62028871  1  0.07359  0  0.090556  0.128453  0  1.03225  0
C  C26  1  0.44763625  0.49221911  0.75654418  1  1.622078  0  0.21  0.585204  0  4.221479  0
C  C27  1  0.29142251  0.53383485  0.24951169  1  1.640797  0  0.196871  0.563011  0  4.29098  0
C  C28  1  0.53648788  0.72277936  0.53260300  1  1.601961  0  0.224901  0.602672  0  4.167655  0
C  C29  1  0.53856471  0.26662843  0.52063303  1  1.590141  0  0.222256  0.60344  0  4.164516  0
C  C30  1  0.64827670  0.95319413  0.57700932  1  -0.006476  0  -0.00527  -0.039466  0  3.978832  0
C  C31  1  0.64497146  0.08364138  0.58385135  1  -0.059048  0  -0.00631  -0.038338  0  3.967002  0
C  C32  1  0.53737709  0.85995100  0.52526045  1  0.030075  0  0.006628  -0.014949  0  3.924683  0
C  C33  1  0.53681572  0.12858094  0.52497454  1  0.009315  0  -0.001411  -0.032074  0  3.923918  0
C  C34  1  0.42492685  0.90430220  0.47089303  1  -0.024889  0  -0.062549  -0.067964  0  3.899363  0
C  C35  1  0.42681664  0.03424393  0.46708061  1  0.03225  0  -0.061913  -0.066544  0  3.894559  0
C  C36  1  0.77554227  0.12698495  0.67139083  1  0.800894  0  0.17238  0.144615  0  3.826799  0
C  C37  1  0.79145242  0.97080990  0.64064752  1  0.828217  0  0.172872  0.147799  0  3.816182  0
C  C38  1  0.27926828  0.45920991  0.90151309  1  -0.067533  0  -0.068684  -0.058278  0  3.93352  0
C  C39  1  0.24014816  0.47596259  0.01832772  1  0.008985  0  -0.073352  -0.09308  0  3.944124  0
C  C40  1  0.33390070  0.53020324  0.12289184  1  0.052895  0  0.011835  -0.019293  0  3.903469  0
C  C41  1  0.41257698  0.49845462  0.88410742  1  0.090875  0  -0.009264  -0.07603  0  3.941371  0
C  C42  1  0.46729472  0.56869904  0.10529115  1  0.222421  0  0.08893  -0.003373  0  3.907147  0
C  C43  1  0.50690023  0.55292587  0.98845487  1  0.200944  0  0.09599  0.026472  0  3.896701  0
C  C44  1  0.05477102  0.41290787  0.43517044  1  1.268137  0  0.2678  0.382061  0  4.044828  0
C  C45  1  0.12818237  0.56756995  0.62139356  1  1.290612  0  0.267008  0.394025  0  4.022253  0
C  C46  1  0.91865036  0.43921357  0.44630483  1  0.901981  0  0.218301  0.076854  0  3.868634  0
C  C47  1  0.98961419  0.56861560  0.63840459  1  0.865935  0  0.205554  0.039356  0  3.958244  0
C  C48  1  0.64687313  0.20857192  0.83566672  1  0.382572  0  -0.070834  0.097719  0  3.860303  0
C  C49  1  0.66366644  0.21799493  0.97261019  1  -0.049804  0  -0.249265  -0.40116  0  3.975537  0
C  C50  1  0.86279127  0.87567896  0.44658222  1  0.364307  0  -0.07648  0.076854  0  3.857715  0
C  C51  1  0.99404733  0.85183478  0.39789744  1  -0.058607  0  -0.243129  -0.383565  0  3.946649  0
C  C52  1  0.06841221  0.27624244  0.22534656  1  0.345704  0  -0.051009  0.100617  0  3.817225  0
C  C53  1  0.03326929  0.13148853  0.19466490  1  -0.111662  0  -0.238861  -0.398344  0  3.940979  0
C  C54  1  0.25125179  0.76563465  0.76933343  1  0.340974  0  -0.052325  0.083674  0  3.820449  0
C  C55  1  0.19588293  0.86120642  0.70302131  1  -0.120262  0  -0.249892  -0.411348  0  3.954382  0
N  N56  1  0.89240322  0.51171387  0.54839231  1  -1.20415  0  -0.267871  -0.221721  0  3.586975  0
N  N57  1  0.15282688  0.48499673  0.52125014  1  -1.188094  0  -0.299631  -0.368622  0  3.44767  0
N  N58  1  0.88681466  0.20890955  0.62352665  1  0.509148  0  0.057655  0.485662  0  4.139968  0
N  N59  1  0.80340842  0.92840179  0.76599487  1  0.50549  0  0.058494  0.474822  0  4.173559  0
N  N60  1  0.56739145  0.63454526  0.21105087  1  0.374968  0  0.063932  0.530854  0  4.207578  0
N  N61  1  0.65022919  0.59824905  0.97938290  1  0.459134  0  0.056289  0.513346  0  4.273294  0
N  N62  1  0.79669811  0.37953670  0.35806535  1  0.421857  0  0.064961  0.500851  0  4.202602  0
N  N63  1  0.94521708  0.61390813  0.75687289  1  0.383789  0  0.065091  0.504834  0  4.182918  0
O  O64  1  0.55519524  0.56389376  0.74817266  1  -1.162484  0  -0.315098  -0.542917  0  2.386653  0
O  O65  1  0.36313550  0.46944600  0.31048542  1  -1.14758  0  -0.334293  -0.568009  0  2.320187  0
O  O66  1  0.36695532  0.42045699  0.66798156  1  -1.167169  0  -0.312527  -0.55482  0  2.322928  0
O  O67  1  0.19238008  0.58679057  0.27817058  1  -1.16067  0  -0.332704  -0.540337  0  2.076909  0
O  O68  1  0.65248826  0.68480732  0.54575532  1  -1.147633  0  -0.311381  -0.534147  0  2.39454  0
O  O69  1  0.64239599  0.34244117  0.58468310  1  -1.158566  0  -0.316325  -0.550778  0  2.386762  0
O  O70  1  0.42318728  0.65668827  0.52943897  1  -1.157552  0  -0.295277  -0.534732  0  2.423054  0
O  O71  1  0.44345653  0.29777777  0.45546737  1  -1.155974  0  -0.298367  -0.518274  0  2.343638  0
O  O72  1  0.96171086  0.29719367  0.69715852  1  -0.468797  0  -0.126801  -0.311907  0  1.959244  0
O  O73  1  0.89411331  0.17709930  0.51231115  1  -0.482633  0  -0.120222  -0.326082  0  2.0103  0
O  O74  1  0.91760051  0.92200340  0.81424812  1  -0.447476  0  -0.120229  -0.308808  0  1.969443  0
O  O75  1  0.69717602  0.90986436  0.80936559  1  -0.436649  0  -0.106757  -0.290232  0  1.967169  0
O  O76  1  0.77437575  0.17870878  0.79281542  1  -1.046192  0  -0.19867  -0.234879  0  2.54746  0
O  O77  1  0.89461140  0.93082268  0.57949154  1  -1.058132  0  -0.196439  -0.234008  0  2.531515  0
O  O78  1  0.53103007  0.72441119  0.28273722  1  -0.445825  0  -0.105585  -0.314106  0  1.995201  0
O  O79  1  0.68047430  0.60023904  0.21977193  1  -0.426283  0  -0.110821  -0.30129  0  1.951198  0
O  O80  1  0.72275814  0.51414223  0.95313350  1  -0.432125  0  -0.10707  -0.301417  0  1.98002  0
O  O81  1  0.68557992  0.71583239  0.00462393  1  -0.425204  0  -0.116502  -0.302481  0  1.91562  0
O  O82  1  0.10139017  0.32271733  0.35997150  1  -1.073253  0  -0.136528  -0.183348  0  2.5983  0
O  O83  1  0.23677725  0.63596433  0.68904832  1  -1.051184  0  -0.129164  -0.16588  0  2.644117  0
O  O84  1  0.69273194  0.42902862  0.37066364  1  -0.422912  0  -0.094022  -0.290396  0  2.074766  0
O  O85  1  0.80637743  0.28282727  0.27933976  1  -0.443846  0  -0.097327  -0.292752  0  1.97804  0
O  O86  1  0.02898618  0.63378516  0.84957178  1  -0.40919  0  -0.079463  -0.266559  0  1.975344  0
O  O87  1  0.82281848  0.62487818  0.75947744  1  -0.467447  0  -0.104061  -0.29209  0  2.168264  0
