# generated using pymatgen
data_LiH10C9N2O3
_symmetry_space_group_name_H-M   'P 1'
_cell_length_a   7.84049489
_cell_length_b   10.25410237
_cell_length_c   12.88794003
_cell_angle_alpha   92.21501202
_cell_angle_beta   107.72277348
_cell_angle_gamma   90.02272759
_symmetry_Int_Tables_number   1
_chemical_formula_structural   LiH10C9N2O3
_chemical_formula_sum   'Li4 H40 C36 N8 O12'
_cell_volume   986.16148726
_cell_formula_units_Z   4
loop_
 _symmetry_equiv_pos_site_id
 _symmetry_equiv_pos_as_xyz
  1  'x, y, z'
loop_
 _atom_site_type_symbol
 _atom_site_label
 _atom_site_symmetry_multiplicity
 _atom_site_fract_x
 _atom_site_fract_y
 _atom_site_fract_z
 _atom_site_occupancy
 _atom_site_hle17_bader_spin_density
 _atom_site_hle17_ddec_charge
 _atom_site_hle17_ddec_spin_density
 _atom_site_hle17_ddec_sum_bond_order
 _atom_site_hle17_magmom
 _atom_site_hse06_10hf_bader_spin_density
 _atom_site_hse06_10hf_ddec_charge
 _atom_site_hse06_10hf_ddec_spin_density
 _atom_site_hse06_10hf_ddec_sum_bond_order
 _atom_site_hse06_10hf_magmom
 _atom_site_hse06_bader_spin_density
 _atom_site_hse06_ddec_charge
 _atom_site_hse06_ddec_spin_density
 _atom_site_hse06_ddec_sum_bond_order
 _atom_site_hse06_magmom
 _atom_site_pbe_bader_spin_density
 _atom_site_pbe_cm5_charge
 _atom_site_pbe_ddec_charge
 _atom_site_pbe_ddec_spin_density
 _atom_site_pbe_ddec_sum_bond_order
 _atom_site_pbe_magmom
Li  Li0  1  0.51621455  0.35264318  0.93487877  1  0  0.853875  0  0.412406  0  0  0.814115  0  0.520312  0  0  0.824146  0  0.502384  0  0  0.519126  0.806721  0  0.533457  0
Li  Li1  1  0.58115173  0.14725597  0.06506643  1  0  0.85363  0  0.413015  0  0  0.813794  0  0.521121  0  0  0.823827  0  0.503183  0  0  0.519339  0.806423  0  0.534233  0
Li  Li2  1  0.48378592  0.64735807  0.06512050  1  0  0.853883  0  0.412393  0  0  0.814123  0  0.520289  0  0  0.824156  0  0.502359  0  0  0.519146  0.806729  0  0.533433  0
Li  Li3  1  0.41884607  0.85274625  0.93493392  1  0  0.853643  0  0.412984  0  0  0.81381  0  0.521079  0  0  0.823844  0  0.503141  0  0  0.519349  0.806437  0  0.534189  0
H  H4  1  0.57637386  0.92492311  0.67660777  1  0  0.11116  0  0.978601  0  0  0.112264  0  1.057146  0  0  0.117109  0  1.052895  0  0  0.108705  0.108785  0  1.060275  0
H  H5  1  0.89939248  0.57516083  0.32342275  1  0  0.111057  0  0.979226  0  0  0.112642  0  1.057219  0  0  0.117525  0  1.052936  0  0  0.108629  0.109157  0  1.060345  0
H  H6  1  0.42362793  0.07507716  0.32339326  1  0  0.111189  0  0.978611  0  0  0.112297  0  1.057145  0  0  0.117141  0  1.052895  0  0  0.108712  0.10882  0  1.060274  0
H  H7  1  0.10060931  0.42484041  0.67657909  1  0  0.111088  0  0.979214  0  0  0.112676  0  1.057201  0  0  0.117559  0  1.052917  0  0  0.10865  0.109191  0  1.060327  0
H  H8  1  0.36278802  0.29864366  0.73443861  1  0  0.109426  0  0.982379  0  0  0.113165  0  1.055659  0  0  0.117753  0  1.052355  0  0  0.116767  0.109747  0  1.058291  0
H  H9  1  0.62810534  0.20121049  0.26552925  1  0  0.109103  0  0.982274  0  0  0.113287  0  1.055138  0  0  0.117845  0  1.051939  0  0  0.116777  0.109854  0  1.057807  0
H  H10  1  0.63721244  0.70135661  0.26556140  1  0  0.109426  0  0.982379  0  0  0.113175  0  1.055636  0  0  0.117758  0  1.05235  0  0  0.116771  0.109756  0  1.058269  0
H  H11  1  0.37189649  0.79879173  0.73447030  1  0  0.109102  0  0.98229  0  0  0.113236  0  1.055207  0  0  0.117799  0  1.052004  0  0  0.116762  0.1098  0  1.057876  0
H  H12  1  0.30098424  0.33651918  0.53597064  1  0  0.065437  0  0.953795  0  0  0.07352  0  1.018144  0  0  0.075564  0  1.017635  0  0  0.106351  0.072073  0  1.018499  0
H  H13  1  0.76500309  0.16333893  0.46397682  1  0  0.065263  0  0.953838  0  0  0.073484  0  1.018004  0  0  0.07556  0  1.017396  0  0  0.105811  0.072037  0  1.018395  0
H  H14  1  0.69901488  0.66348109  0.46402912  1  0  0.065447  0  0.953853  0  0  0.073531  0  1.018195  0  0  0.075576  0  1.017685  0  0  0.106356  0.072086  0  1.018551  0
H  H15  1  0.23499603  0.83666134  0.53602293  1  0  0.065254  0  0.953882  0  0  0.073472  0  1.01806  0  0  0.075546  0  1.017453  0  0  0.105784  0.072024  0  1.018437  0
H  H16  1  0.83379453  0.58098808  0.96362608  1  0  0.035051  0  0.920074  0  0  0.045514  0  0.98843  0  0  0.047413  0  0.983196  0  0  0.129751  0.043996  0  0.992191  0
H  H17  1  0.86979633  0.91887962  0.03618178  1  0  0.03478  0  0.919742  0  0  0.04559  0  0.987935  0  0  0.047526  0  0.982653  0  0  0.129925  0.044075  0  0.991704  0
H  H18  1  0.16620853  0.41900730  0.03637271  1  0  0.035042  0  0.920038  0  0  0.045542  0  0.988374  0  0  0.047443  0  0.983138  0  0  0.129747  0.044021  0  0.992134  0
H  H19  1  0.13019877  0.08112163  0.96381958  1  0  0.034738  0  0.919686  0  0  0.045554  0  0.987885  0  0  0.047493  0  0.982599  0  0  0.129914  0.044043  0  0.991656  0
H  H20  1  0.76948874  0.80502671  0.79787374  1  0  0.105714  0  0.944837  0  0  0.12565  0  1.008356  0  0  0.126552  0  1.007705  0  0  0.104731  0.124828  0  1.009101  0
H  H21  1  0.97161509  0.69501775  0.20202484  1  0  0.105179  0  0.944824  0  0  0.124782  0  1.008713  0  0  0.125714  0  1.008023  0  0  0.104271  0.123945  0  1.009475  0
H  H22  1  0.23051035  0.19497161  0.20212518  1  0  0.10573  0  0.9449  0  0  0.125651  0  1.008425  0  0  0.126553  0  1.007775  0  0  0.104739  0.124826  0  1.009178  0
H  H23  1  0.02838269  0.30498252  0.79797466  1  0  0.105121  0  0.944892  0  0  0.124769  0  1.008732  0  0  0.125699  0  1.008042  0  0  0.104263  0.123933  0  1.009491  0
H  H24  1  0.95102157  0.73189484  0.76049446  1  0  0.105179  0  0.9458  0  0  0.124097  0  1.008776  0  0  0.124622  0  1.009839  0  0  0.105447  0.123747  0  1.008029  0
H  H25  1  0.19052582  0.76832691  0.23945835  1  0  0.104893  0  0.944454  0  0  0.123831  0  1.00763  0  0  0.124342  0  1.008715  0  0  0.105138  0.123487  0  1.006874  0
H  H26  1  0.04898019  0.26810249  0.23950415  1  0  0.105196  0  0.945817  0  0  0.124112  0  1.008786  0  0  0.124636  0  1.009849  0  0  0.105448  0.123764  0  1.008036  0
H  H27  1  0.80947330  0.23167336  0.76054140  1  0  0.104889  0  0.944446  0  0  0.123824  0  1.00763  0  0  0.124335  0  1.008714  0  0  0.105125  0.123481  0  1.006875  0
H  H28  1  0.95462063  0.73749401  0.89858206  1  0  0.099894  0  0.947156  0  0  0.117544  0  1.016322  0  0  0.118659  0  1.015227  0  0  0.111977  0.116564  0  1.017337  0
H  H29  1  0.05606951  0.76261838  0.10135307  1  0  0.100208  0  0.947178  0  0  0.118114  0  1.01597  0  0  0.119237  0  1.014891  0  0  0.112315  0.117116  0  1.017002  0
H  H30  1  0.04537978  0.26250333  0.10141785  1  0  0.099888  0  0.947149  0  0  0.117534  0  1.01632  0  0  0.118648  0  1.015224  0  0  0.111961  0.116554  0  1.017333  0
H  H31  1  0.94392829  0.23738286  0.89864569  1  0  0.100219  0  0.947189  0  0  0.118122  0  1.01599  0  0  0.119243  0  1.014911  0  0  0.112302  0.117124  0  1.017021  0
H  H32  1  0.78885395  0.51808079  0.64766968  1  0  0.093061  0  0.960334  0  0  0.11148  0  1.02792  0  0  0.111196  0  1.029067  0  0  0.09727  0.111576  0  1.027152  0
H  H33  1  0.14115735  0.98214671  0.35215555  1  0  0.093566  0  0.96008  0  0  0.112074  0  1.027564  0  0  0.111764  0  1.028743  0  0  0.097693  0.1122  0  1.026761  0
H  H34  1  0.21114517  0.48191850  0.35232772  1  0  0.093091  0  0.960342  0  0  0.111518  0  1.027912  0  0  0.111235  0  1.02906  0  0  0.097294  0.111617  0  1.02714  0
H  H35  1  0.85884309  0.01785258  0.64784443  1  0  0.093573  0  0.960081  0  0  0.112077  0  1.027566  0  0  0.111767  0  1.028744  0  0  0.097691  0.112204  0  1.026767  0
H  H36  1  0.61120021  0.63030687  0.63990415  1  0  0.099194  0  0.949483  0  0  0.117043  0  1.016927  0  0  0.117284  0  1.017364  0  0  0.102363  0.116735  0  1.016743  0
H  H37  1  0.97121628  0.86983366  0.35993717  1  0  0.099112  0  0.948921  0  0  0.117102  0  1.016243  0  0  0.117351  0  1.016676  0  0  0.102374  0.116773  0  1.016078  0
H  H38  1  0.38879759  0.36969437  0.36009461  1  0  0.099233  0  0.949545  0  0  0.117095  0  1.016968  0  0  0.117336  0  1.017405  0  0  0.102379  0.116785  0  1.016789  0
H  H39  1  0.02878285  0.13016758  0.64006262  1  0  0.099124  0  0.948879  0  0  0.117105  0  1.016214  0  0  0.117352  0  1.016647  0  0  0.102372  0.116778  0  1.016047  0
H  H40  1  0.60110866  0.46901539  0.68827191  1  0  0.106315  0  0.959715  0  0  0.123313  0  1.025614  0  0  0.124216  0  1.025887  0  0  0.108262  0.122556  0  1.025491  0
H  H41  1  0.91277693  0.03107190  0.31144799  1  0  0.105861  0  0.960517  0  0  0.12306  0  1.026188  0  0  0.123963  0  1.026448  0  0  0.108166  0.122307  0  1.026078  0
H  H42  1  0.39889046  0.53098390  0.31172626  1  0  0.106327  0  0.959713  0  0  0.12333  0  1.025614  0  0  0.124234  0  1.025887  0  0  0.108277  0.122571  0  1.02549  0
H  H43  1  0.08722219  0.96892837  0.68855176  1  0  0.105876  0  0.960483  0  0  0.123071  0  1.026154  0  0  0.123974  0  1.026412  0  0  0.108165  0.122321  0  1.026043  0
C  C44  1  0.47573677  0.10768888  0.72159374  1  0  -0.018648  0  3.719668  0  0  0.003713  0  3.945324  0  0  0.000438  0  3.966172  0  0  0.005383  0.005846  0  3.931228  0
C  C45  1  0.75378147  0.39230035  0.27841399  1  0  -0.018177  0  3.718327  0  0  0.004198  0  3.944668  0  0  0.000925  0  3.965524  0  0  0.005685  0.006344  0  3.930553  0
C  C46  1  0.52426500  0.89231042  0.27840726  1  0  -0.018663  0  3.719717  0  0  0.003703  0  3.945365  0  0  0.000429  0  3.966212  0  0  0.005424  0.005845  0  3.931263  0
C  C47  1  0.24621899  0.60770090  0.72158760  1  0  -0.018219  0  3.718152  0  0  0.004173  0  3.944509  0  0  0.000899  0  3.965366  0  0  0.005671  0.006315  0  3.930397  0
C  C48  1  0.51606549  0.01771962  0.64888306  1  0  -0.151372  0  3.707761  0  0  -0.180627  0  3.955364  0  0  -0.18473  0  3.974412  0  0  -0.077601  -0.177823  0  3.942591  0
C  C49  1  0.86683033  0.48234835  0.35114459  1  0  -0.151144  0  3.710248  0  0  -0.181011  0  3.957219  0  0  -0.185149  0  3.976379  0  0  -0.07732  -0.178215  0  3.944392  0
C  C50  1  0.48393630  0.98228065  0.35111798  1  0  -0.151446  0  3.707876  0  0  -0.180708  0  3.95548  0  0  -0.18481  0  3.974528  0  0  -0.077627  -0.177909  0  3.942712  0
C  C51  1  0.13317281  0.51765290  0.64885672  1  0  -0.151143  0  3.710133  0  0  -0.181016  0  3.957112  0  0  -0.185156  0  3.976272  0  0  -0.077325  -0.178222  0  3.944287  0
C  C52  1  0.39758706  0.22531947  0.68107284  1  0  -0.120023  0  3.696641  0  0  -0.143916  0  3.946187  0  0  -0.147214  0  3.964529  0  0  -0.070732  -0.141704  0  3.934074  0
C  C53  1  0.71626318  0.27461352  0.31890764  1  0  -0.12  0  3.695388  0  0  -0.144303  0  3.945319  0  0  -0.147612  0  3.963615  0  0  -0.07173  -0.142083  0  3.93321  0
C  C54  1  0.60241339  0.77468080  0.31892717  1  0  -0.120003  0  3.696668  0  0  -0.143899  0  3.946222  0  0  -0.1472  0  3.964559  0  0  -0.070742  -0.141683  0  3.934105  0
C  C55  1  0.28373863  0.72538773  0.68109265  1  0  -0.119899  0  3.695306  0  0  -0.144146  0  3.945222  0  0  -0.147459  0  3.963513  0  0  -0.071646  -0.141922  0  3.933111  0
C  C56  1  0.51288330  0.07442635  0.83977867  1  0  0.698123  0  3.90251  0  0  0.653366  0  4.192872  0  0  0.686164  0  4.183082  0  0  0.233919  0.631234  0  4.198564  0
C  C57  1  0.67285455  0.42551694  0.16019593  1  0  0.699666  0  3.900111  0  0  0.654469  0  4.191365  0  0  0.687289  0  4.181574  0  0  0.234784  0.632336  0  4.197037  0
C  C58  1  0.48711582  0.92557490  0.16022189  1  0  0.698189  0  3.902472  0  0  0.653428  0  4.192833  0  0  0.686225  0  4.183041  0  0  0.233946  0.631295  0  4.198523  0
C  C59  1  0.32714863  0.57448625  0.83980467  1  0  0.699563  0  3.90032  0  0  0.654304  0  4.19167  0  0  0.687123  0  4.181883  0  0  0.234647  0.632162  0  4.197354  0
C  C60  1  0.47846363  0.04722265  0.53915611  1  0  0.152952  0  3.803489  0  0  0.155156  0  4.050191  0  0  0.159723  0  4.069541  0  0  0.110394  0.152069  0  4.037001  0
C  C61  1  0.93923004  0.45275608  0.46084284  1  0  0.151262  0  3.805174  0  0  0.154142  0  4.050691  0  0  0.15864  0  4.0702  0  0  0.110022  0.151112  0  4.037377  0
C  C62  1  0.52153817  0.95277762  0.46084415  1  0  0.152957  0  3.803493  0  0  0.155176  0  4.050174  0  0  0.159744  0  4.069524  0  0  0.110393  0.152088  0  4.036987  0
C  C63  1  0.06077177  0.54724517  0.53915823  1  0  0.15116  0  3.805157  0  0  0.154039  0  4.050676  0  0  0.158537  0  4.070184  0  0  0.109945  0.151009  0  4.037363  0
C  C64  1  0.36350127  0.24615423  0.57014655  1  0  0.117197  0  3.749716  0  0  0.095748  0  4.008854  0  0  0.100377  0  4.025404  0  0  0.04071  0.09274  0  3.997493  0
C  C65  1  0.79322488  0.25376890  0.42982963  1  0  0.116502  0  3.750639  0  0  0.094891  0  4.010158  0  0  0.099538  0  4.026717  0  0  0.041369  0.091867  0  3.998803  0
C  C66  1  0.63650051  0.75384507  0.42985367  1  0  0.117172  0  3.749719  0  0  0.095721  0  4.008857  0  0  0.100351  0  4.025405  0  0  0.040717  0.092709  0  3.997501  0
C  C67  1  0.20677560  0.74623235  0.57017041  1  0  0.116423  0  3.750782  0  0  0.094807  0  4.010295  0  0  0.099454  0  4.026855  0  0  0.041344  0.091788  0  3.998933  0
C  C68  1  0.76779175  0.53146200  0.88358950  1  0  0.41568  0  3.833565  0  0  0.342203  0  4.123699  0  0  0.370352  0  4.123038  0  0  0.19068  0.323315  0  4.123615  0
C  C69  1  0.88398366  0.96846588  0.11621329  1  0  0.41625  0  3.831891  0  0  0.342298  0  4.122441  0  0  0.370417  0  4.121819  0  0  0.190267  0.323402  0  4.122379  0
C  C70  1  0.23220465  0.46853534  0.11640810  1  0  0.41565  0  3.833462  0  0  0.342092  0  4.123659  0  0  0.370239  0  4.122999  0  0  0.190633  0.323208  0  4.12357  0
C  C71  1  0.11601274  0.03153341  0.88378748  1  0  0.416295  0  3.831773  0  0  0.342324  0  4.122353  0  0  0.370441  0  4.121733  0  0  0.190217  0.323419  0  4.122296  0
C  C72  1  0.86710839  0.72550096  0.81437787  1  0  -0.172005  0  3.658895  0  0  -0.274353  0  3.910639  0  0  -0.270774  0  3.921191  0  0  -0.129873  -0.276628  0  3.903598  0
C  C73  1  0.05271513  0.77460203  0.18553180  1  0  -0.171348  0  3.657172  0  0  -0.273742  0  3.908704  0  0  -0.270168  0  3.919155  0  0  -0.129125  -0.275993  0  3.901703  0
C  C74  1  0.13289201  0.27449540  0.18562123  1  0  -0.171988  0  3.658985  0  0  -0.274318  0  3.9107  0  0  -0.270737  0  3.921252  0  0  -0.129834  -0.276591  0  3.903658  0
C  C75  1  0.94728395  0.22539628  0.81446789  1  0  -0.171325  0  3.657225  0  0  -0.273733  0  3.90871  0  0  -0.270167  0  3.919183  0  0  -0.12908  -0.275985  0  3.901705  0
C  C76  1  0.68910806  0.55132126  0.68679372  1  0  -0.16724  0  3.637256  0  0  -0.262132  0  3.873844  0  0  -0.258324  0  3.884652  0  0  -0.134658  -0.264361  0  3.866437  0
C  C77  1  0.00225907  0.94882289  0.31300042  1  0  -0.167065  0  3.63711  0  0  -0.262356  0  3.873691  0  0  -0.258531  0  3.884558  0  0  -0.134538  -0.264605  0  3.866258  0
C  C78  1  0.31089103  0.44867705  0.31320519  1  0  -0.16731  0  3.637393  0  0  -0.262223  0  3.873973  0  0  -0.258416  0  3.88478  0  0  -0.134693  -0.264452  0  3.866568  0
C  C79  1  0.99774004  0.05117737  0.68700011  1  0  -0.167146  0  3.637044  0  0  -0.262426  0  3.873624  0  0  -0.258601  0  3.88449  0  0  -0.134549  -0.264676  0  3.866191  0
N  N80  1  0.40224515  0.16050838  0.49980196  1  0  -0.343659  0  3.07263  0  0  -0.310348  0  3.336433  0  0  -0.319804  0  3.350522  0  0  -0.317136  -0.303767  0  3.326674  0
N  N81  1  0.90243730  0.33943112  0.50017523  1  0  -0.341721  0  3.072963  0  0  -0.308692  0  3.336476  0  0  -0.31811  0  3.350585  0  0  -0.316753  -0.302131  0  3.326698  0
N  N82  1  0.59775528  0.83949091  0.50019879  1  0  -0.34366  0  3.072557  0  0  -0.310355  0  3.336359  0  0  -0.319809  0  3.350447  0  0  -0.31716  -0.30377  0  3.326602  0
N  N83  1  0.09756317  0.66057012  0.49982481  1  0  -0.341676  0  3.072989  0  0  -0.308645  0  3.336503  0  0  -0.318065  0  3.350613  0  0  -0.31674  -0.302087  0  3.326726  0
N  N84  1  0.77701986  0.59887490  0.79833009  1  0  -0.093784  0  3.487594  0  0  0.011588  0  3.718266  0  0  -0.009465  0  3.74435  0  0  -0.280157  0.025752  0  3.700159  0
N  N85  1  0.97862934  0.90119034  0.20151376  1  0  -0.094162  0  3.486144  0  0  0.011346  0  3.717012  0  0  -0.009696  0  3.743118  0  0  -0.280818  0.025507  0  3.698905  0
N  N86  1  0.22298322  0.40112146  0.20166874  1  0  -0.093853  0  3.487604  0  0  0.011543  0  3.718307  0  0  -0.009509  0  3.744391  0  0  -0.280212  0.025711  0  3.700192  0
N  N87  1  0.02136977  0.09880993  0.79848677  1  0  -0.094135  0  3.486042  0  0  0.011369  0  3.716913  0  0  -0.009672  0  3.743017  0  0  -0.280833  0.025533  0  3.698804  0
O  O88  1  0.49750603  0.16529354  0.90655721  1  0  -0.777616  0  1.969977  0  0  -0.731299  0  2.209097  0  0  -0.751693  0  2.193194  0  0  -0.435674  -0.717007  0  2.219941  0
O  O89  1  0.59080785  0.33457002  0.09338819  1  0  -0.778615  0  1.968635  0  0  -0.732368  0  2.208506  0  0  -0.752737  0  2.19253  0  0  -0.436426  -0.718089  0  2.219388  0
O  O90  1  0.50249444  0.83470770  0.09344360  1  0  -0.777642  0  1.969897  0  0  -0.731324  0  2.209019  0  0  -0.751719  0  2.193117  0  0  -0.435693  -0.717031  0  2.219857  0
O  O91  1  0.40919667  0.66543220  0.90661109  1  0  -0.77852  0  1.96884  0  0  -0.732253  0  2.208724  0  0  -0.752622  0  2.19275  0  0  -0.436363  -0.717965  0  2.219601  0
O  O92  1  0.55371783  0.95771304  0.86415163  1  0  -0.70951  0  1.926689  0  0  -0.66728  0  2.160683  0  0  -0.689085  0  2.148196  0  0  -0.375805  -0.65192  0  2.168946  0
O  O93  1  0.68931204  0.54222111  0.13580216  1  0  -0.709779  0  1.926109  0  0  -0.667391  0  2.160348  0  0  -0.689209  0  2.147919  0  0  -0.375898  -0.652044  0  2.168584  0
O  O94  1  0.44628130  0.04228821  0.13584894  1  0  -0.709528  0  1.926746  0  0  -0.667298  0  2.160744  0  0  -0.689105  0  2.148259  0  0  -0.375812  -0.651943  0  2.169015  0
O  O95  1  0.31068979  0.45778209  0.86419975  1  0  -0.709753  0  1.926083  0  0  -0.667345  0  2.160359  0  0  -0.689154  0  2.147916  0  0  -0.375842  -0.651995  0  2.168604  0
O  O96  1  0.69241784  0.42278731  0.87640049  1  0  -0.614231  0  2.046657  0  0  -0.569264  0  2.297263  0  0  -0.590223  0  2.289873  0  0  -0.370075  -0.554817  0  2.302023  0
O  O97  1  0.81580247  0.07710782  0.12334695  1  0  -0.614475  0  2.046814  0  0  -0.569486  0  2.297613  0  0  -0.590487  0  2.290362  0  0  -0.370062  -0.555028  0  2.302311  0
O  O98  1  0.30758255  0.57720808  0.12359626  1  0  -0.614157  0  2.046596  0  0  -0.569186  0  2.297273  0  0  -0.590149  0  2.289885  0  0  -0.370039  -0.554744  0  2.302032  0
O  O99  1  0.18419127  0.92289245  0.87665412  1  0  -0.61444  0  2.046891  0  0  -0.569442  0  2.297683  0  0  -0.590443  0  2.290435  0  0  -0.369975  -0.554979  0  2.302381  0
