# generated using pymatgen
data_Cs2H3C7NO5
_symmetry_space_group_name_H-M   'P 1'
_cell_length_a   4.08816482
_cell_length_b   15.22444102
_cell_length_c   16.91366760
_cell_angle_alpha   90.00021821
_cell_angle_beta   90.00123655
_cell_angle_gamma   91.25648530
_symmetry_Int_Tables_number   1
_chemical_formula_structural   Cs2H3C7NO5
_chemical_formula_sum   'Cs8 H12 C28 N4 O20'
_cell_volume   1052.45395887
_cell_formula_units_Z   4
loop_
 _symmetry_equiv_pos_site_id
 _symmetry_equiv_pos_as_xyz
  1  'x, y, z'
loop_
 _atom_site_type_symbol
 _atom_site_label
 _atom_site_symmetry_multiplicity
 _atom_site_fract_x
 _atom_site_fract_y
 _atom_site_fract_z
 _atom_site_occupancy
 _atom_site_hle17_bader_spin_density
 _atom_site_hle17_ddec_charge
 _atom_site_hle17_ddec_spin_density
 _atom_site_hle17_ddec_sum_bond_order
 _atom_site_hle17_magmom
 _atom_site_hse06_10hf_bader_spin_density
 _atom_site_hse06_10hf_ddec_charge
 _atom_site_hse06_10hf_ddec_spin_density
 _atom_site_hse06_10hf_ddec_sum_bond_order
 _atom_site_hse06_10hf_magmom
 _atom_site_hse06_bader_spin_density
 _atom_site_hse06_ddec_charge
 _atom_site_hse06_ddec_spin_density
 _atom_site_hse06_ddec_sum_bond_order
 _atom_site_hse06_magmom
 _atom_site_pbe_bader_spin_density
 _atom_site_pbe_cm5_charge
 _atom_site_pbe_ddec_charge
 _atom_site_pbe_ddec_spin_density
 _atom_site_pbe_ddec_sum_bond_order
 _atom_site_pbe_magmom
Cs  Cs0  1  0.63364861  0.40462559  0.69279473  1  0  0.952925  0  0.640731  0  0  0.895905  0  0.895698  0  0  0.913422  0  0.869036  0  0  0.892776  0.882953  0  0.914412  0
Cs  Cs1  1  0.13363292  0.90462677  0.80720645  1  0  0.952943  0  0.64075  0  0  0.895875  0  0.895625  0  0  0.913427  0  0.8691  0  0  0.892794  0.88297  0  0.914458  0
Cs  Cs2  1  0.36634162  0.59537508  0.30720559  1  0  0.952905  0  0.640794  0  0  0.895872  0  0.895787  0  0  0.91339  0  0.869131  0  0  0.892798  0.882923  0  0.914506  0
Cs  Cs3  1  0.86636448  0.09537256  0.19279445  1  0  0.952949  0  0.640723  0  0  0.895894  0  0.895639  0  0  0.913449  0  0.869035  0  0  0.892784  0.882977  0  0.914423  0
Cs  Cs4  1  0.57307797  0.56779281  0.88653224  1  0  0.944297  0  0.621472  0  0  0.883722  0  0.873591  0  0  0.902161  0  0.848932  0  0  0.875065  0.870018  0  0.891178  0
Cs  Cs5  1  0.07308046  0.06779110  0.61346985  1  0  0.944309  0  0.621476  0  0  0.883719  0  0.873584  0  0  0.902155  0  0.848938  0  0  0.875041  0.870021  0  0.891193  0
Cs  Cs6  1  0.42693199  0.43220911  0.11346571  1  0  0.944317  0  0.621465  0  0  0.883741  0  0.873579  0  0  0.902176  0  0.848928  0  0  0.87505  0.870037  0  0.891172  0
Cs  Cs7  1  0.92691931  0.93220757  0.38652987  1  0  0.944321  0  0.621446  0  0  0.883738  0  0.873559  0  0  0.902169  0  0.848908  0  0  0.875045  0.870036  0  0.891157  0
H  H8  1  0.76125567  0.77365146  0.69077956  1  0  0.289035  0  0.897784  0  0  0.264792  0  0.972761  0  0  0.274998  0  0.963198  0  0  0.321977  0.257435  0  0.979836  0
H  H9  1  0.26124392  0.27365210  0.80922303  1  0  0.289052  0  0.897881  0  0  0.264796  0  0.972856  0  0  0.275012  0  0.963277  0  0  0.321961  0.25743  0  0.97993  0
H  H10  1  0.23876138  0.22634847  0.30922016  1  0  0.28903  0  0.897835  0  0  0.264778  0  0.97282  0  0  0.274989  0  0.96325  0  0  0.321957  0.25742  0  0.979892  0
H  H11  1  0.73875585  0.72634657  0.19077728  1  0  0.288985  0  0.897949  0  0  0.26474  0  0.97291  0  0  0.274956  0  0.963334  0  0  0.321949  0.257378  0  0.979983  0
H  H12  1  0.09354662  0.55194598  0.57245419  1  0  0.141237  0  0.957513  0  0  0.146019  0  1.024918  0  0  0.151884  0  1.0209  0  0  0.118149  0.141768  0  1.028032  0
H  H13  1  0.59351476  0.05194681  0.92755092  1  0  0.141325  0  0.957512  0  0  0.146086  0  1.024924  0  0  0.151986  0  1.02083  0  0  0.118208  0.141838  0  1.028041  0
H  H14  1  0.90645853  0.44805661  0.42754495  1  0  0.14127  0  0.957477  0  0  0.146046  0  1.024879  0  0  0.151921  0  1.020851  0  0  0.118186  0.141796  0  1.027991  0
H  H15  1  0.40648011  0.94805187  0.07245235  1  0  0.141241  0  0.957538  0  0  0.146056  0  1.024885  0  0  0.151919  0  1.020845  0  0  0.118176  0.141807  0  1.028001  0
H  H16  1  0.56792133  0.75695958  0.44925128  1  0  0.116093  0  0.965298  0  0  0.123712  0  1.032493  0  0  0.128989  0  1.02906  0  0  0.116787  0.119978  0  1.035075  0
H  H17  1  0.06790154  0.25696089  0.05075069  1  0  0.116035  0  0.965359  0  0  0.123674  0  1.032547  0  0  0.128951  0  1.029115  0  0  0.116755  0.119946  0  1.035124  0
H  H18  1  0.43206882  0.24304044  0.55074904  1  0  0.116096  0  0.965272  0  0  0.123706  0  1.032491  0  0  0.128982  0  1.02906  0  0  0.116787  0.119969  0  1.035073  0
H  H19  1  0.93209872  0.74304172  0.94924785  1  0  0.116042  0  0.965332  0  0  0.123664  0  1.032531  0  0  0.128942  0  1.029093  0  0  0.116737  0.119931  0  1.035116  0
C  C20  1  0.93910454  0.66219913  0.64032597  1  0  0.13564  0  3.705776  0  0  0.126118  0  3.958224  0  0  0.132389  0  3.975865  0  0  0.111951  0.122012  0  3.946184  0
C  C21  1  0.43907788  0.16220140  0.85967896  1  0  0.135642  0  3.706018  0  0  0.126091  0  3.958454  0  0  0.132362  0  3.976104  0  0  0.111951  0.121966  0  3.946425  0
C  C22  1  0.06089311  0.33780217  0.35967434  1  0  0.135836  0  3.70574  0  0  0.126317  0  3.958166  0  0  0.132593  0  3.975806  0  0  0.112004  0.12221  0  3.946142  0
C  C23  1  0.56091961  0.83779860  0.14032077  1  0  0.13593  0  3.705779  0  0  0.126388  0  3.958223  0  0  0.13266  0  3.975865  0  0  0.112021  0.122263  0  3.9462  0
C  C24  1  0.06487464  0.63583607  0.72151536  1  0  0.613587  0  4.009838  0  0  0.572653  0  4.30596  0  0  0.604585  0  4.297505  0  0  0.172579  0.551083  0  4.310781  0
C  C25  1  0.56485612  0.13583346  0.77849047  1  0  0.613603  0  4.010036  0  0  0.572731  0  4.306053  0  0  0.604664  0  4.297607  0  0  0.172697  0.551169  0  4.310871  0
C  C26  1  0.93512782  0.36416456  0.27848437  1  0  0.613483  0  4.009893  0  0  0.572534  0  4.306028  0  0  0.60446  0  4.29758  0  0  0.172481  0.550945  0  4.310885  0
C  C27  1  0.43514013  0.86415668  0.22151280  1  0  0.613376  0  4.010237  0  0  0.572462  0  4.306323  0  0  0.604386  0  4.297884  0  0  0.172593  0.550896  0  4.311146  0
C  C28  1  0.97136111  0.61491380  0.57175717  1  0  -0.247991  0  3.609052  0  0  -0.274282  0  3.861151  0  0  -0.285698  0  3.877435  0  0  -0.088128  -0.266856  0  3.850434  0
C  C29  1  0.47133515  0.11491246  0.92825014  1  0  -0.247948  0  3.608982  0  0  -0.274197  0  3.861115  0  0  -0.28561  0  3.877397  0  0  -0.088135  -0.266771  0  3.850396  0
C  C30  1  0.02863866  0.38508487  0.42824137  1  0  -0.248138  0  3.609166  0  0  -0.274407  0  3.861277  0  0  -0.285829  0  3.877551  0  0  -0.08819  -0.266976  0  3.850568  0
C  C31  1  0.52866943  0.88508553  0.07175432  1  0  -0.248043  0  3.609115  0  0  -0.274334  0  3.861249  0  0  -0.285729  0  3.877541  0  0  -0.088165  -0.266905  0  3.850528  0
C  C32  1  0.84445289  0.64751064  0.49783265  1  0  0.454644  0  3.878902  0  0  0.447783  0  4.133817  0  0  0.47138  0  4.139412  0  0  0.109174  0.432213  0  4.12921  0
C  C33  1  0.34442128  0.14751043  0.00217218  1  0  0.454664  0  3.878874  0  0  0.447726  0  4.133923  0  0  0.471319  0  4.139525  0  0  0.109157  0.432166  0  4.129302  0
C  C34  1  0.15553971  0.35248937  0.50216707  1  0  0.454801  0  3.878747  0  0  0.447887  0  4.133737  0  0  0.471485  0  4.139332  0  0  0.109293  0.432317  0  4.129133  0
C  C35  1  0.65557620  0.85248956  0.99782932  1  0  0.454667  0  3.878837  0  0  0.447729  0  4.133881  0  0  0.471328  0  4.139481  0  0  0.10915  0.432171  0  4.129262  0
C  C36  1  0.67781195  0.72992558  0.50236301  1  0  -0.272481  0  3.67142  0  0  -0.299652  0  3.924843  0  0  -0.311765  0  3.942317  0  0  -0.099411  -0.291812  0  3.913194  0
C  C37  1  0.17778962  0.22992393  0.99764078  1  0  -0.272398  0  3.67124  0  0  -0.299584  0  3.924696  0  0  -0.311693  0  3.942172  0  0  -0.099372  -0.291748  0  3.913035  0
C  C38  1  0.32217812  0.27007378  0.49763790  1  0  -0.272522  0  3.671288  0  0  -0.299697  0  3.924701  0  0  -0.311809  0  3.942173  0  0  -0.099458  -0.291846  0  3.913056  0
C  C39  1  0.82221536  0.77007735  0.00236013  1  0  -0.272396  0  3.671374  0  0  -0.299565  0  3.924824  0  0  -0.311668  0  3.94229  0  0  -0.09934  -0.291726  0  3.913169  0
C  C40  1  0.65385759  0.77476563  0.57234311  1  0  0.14244  0  3.72068  0  0  0.134539  0  3.96915  0  0  0.141541  0  3.986376  0  0  0.113479  0.129979  0  3.957377  0
C  C41  1  0.15383108  0.27476035  0.92765656  1  0  0.142518  0  3.720545  0  0  0.134666  0  3.968987  0  0  0.141664  0  3.98623  0  0  0.113471  0.130094  0  3.957222  0
C  C42  1  0.34614511  0.22523698  0.42765602  1  0  0.142539  0  3.720633  0  0  0.134734  0  3.969002  0  0  0.141741  0  3.986234  0  0  0.1135  0.130172  0  3.95723  0
C  C43  1  0.84617366  0.72523896  0.07234080  1  0  0.142454  0  3.720707  0  0  0.13461  0  3.969119  0  0  0.141616  0  3.986347  0  0  0.113444  0.130038  0  3.95736  0
C  C44  1  0.49627721  0.86350469  0.58261619  1  0  0.626395  0  3.989184  0  0  0.585593  0  4.28271  0  0  0.617665  0  4.273495  0  0  0.184292  0.563913  0  4.288073  0
C  C45  1  0.99625611  0.36350083  0.91738380  1  0  0.626351  0  3.989124  0  0  0.58547  0  4.282776  0  0  0.617529  0  4.273576  0  0  0.184248  0.563785  0  4.288144  0
C  C46  1  0.50373038  0.13649790  0.41738412  1  0  0.626479  0  3.989083  0  0  0.585573  0  4.282763  0  0  0.617637  0  4.273557  0  0  0.184326  0.563892  0  4.288129  0
C  C47  1  0.00374627  0.63649915  0.08261415  1  0  0.626306  0  3.989373  0  0  0.585442  0  4.282983  0  0  0.617502  0  4.27378  0  0  0.184214  0.563758  0  4.288358  0
N  N48  1  0.78386547  0.74020053  0.63881567  1  0  -0.286703  0  3.512646  0  0  -0.226941  0  3.733808  0  0  -0.244743  0  3.749497  0  0  -0.376211  -0.215053  0  3.723295  0
N  N49  1  0.28383559  0.24019558  0.86118870  1  0  -0.286911  0  3.51321  0  0  -0.227109  0  3.734319  0  0  -0.244924  0  3.750009  0  0  -0.376211  -0.215201  0  3.72381  0
N  N50  1  0.21615190  0.25980203  0.36118287  1  0  -0.286877  0  3.51269  0  0  -0.22714  0  3.733856  0  0  -0.244953  0  3.749543  0  0  -0.376228  -0.215246  0  3.723349  0
N  N51  1  0.71616637  0.75980111  0.13881280  1  0  -0.286874  0  3.512971  0  0  -0.227077  0  3.734056  0  0  -0.244901  0  3.749748  0  0  -0.376193  -0.215169  0  3.723554  0
O  O52  1  0.03277856  0.69237767  0.77634381  1  0  -0.723384  0  1.910361  0  0  -0.679162  0  2.136064  0  0  -0.701663  0  2.125949  0  0  -0.439888  -0.663295  0  2.142509  0
O  O53  1  0.53273560  0.19237486  0.72366086  1  0  -0.723388  0  1.910309  0  0  -0.679212  0  2.136024  0  0  -0.701704  0  2.125881  0  0  -0.439926  -0.663329  0  2.142441  0
O  O54  1  0.96720761  0.30762958  0.22365532  1  0  -0.723335  0  1.91063  0  0  -0.679096  0  2.136306  0  0  -0.701596  0  2.126186  0  0  -0.439871  -0.66322  0  2.142753  0
O  O55  1  0.46725307  0.80761333  0.27633828  1  0  -0.723302  0  1.91054  0  0  -0.679123  0  2.136277  0  0  -0.701612  0  2.126141  0  0  -0.439889  -0.663243  0  2.142697  0
O  O56  1  0.18385881  0.56010694  0.72803335  1  0  -0.733711  0  1.999528  0  0  -0.688138  0  2.243144  0  0  -0.712339  0  2.236231  0  0  -0.506195  -0.671161  0  2.24735  0
O  O57  1  0.68385756  0.06011016  0.77197581  1  0  -0.733681  0  1.999647  0  0  -0.688119  0  2.243229  0  0  -0.712341  0  2.236384  0  0  -0.50621  -0.671168  0  2.24749  0
O  O58  1  0.81613950  0.43989962  0.27197170  1  0  -0.733696  0  1.999279  0  0  -0.688124  0  2.242934  0  0  -0.712328  0  2.236036  0  0  -0.506109  -0.671138  0  2.24715  0
O  O59  1  0.31614391  0.93988259  0.22803161  1  0  -0.733615  0  1.999601  0  0  -0.688046  0  2.243213  0  0  -0.712261  0  2.236338  0  0  -0.506159  -0.671084  0  2.247455  0
O  O60  1  0.87830608  0.60680094  0.43264989  1  0  -0.680637  0  1.976617  0  0  -0.63099  0  2.205275  0  0  -0.653522  0  2.198187  0  0  -0.529192  -0.61504  0  2.209432  0
O  O61  1  0.37830008  0.10680295  0.06735499  1  0  -0.680763  0  1.976663  0  0  -0.631085  0  2.205339  0  0  -0.653636  0  2.19828  0  0  -0.529276  -0.615149  0  2.209528  0
O  O62  1  0.12167160  0.39319715  0.56734925  1  0  -0.680752  0  1.976576  0  0  -0.631097  0  2.205269  0  0  -0.653627  0  2.198176  0  0  -0.529276  -0.615145  0  2.209425  0
O  O63  1  0.62169032  0.89319903  0.93264651  1  0  -0.680721  0  1.97666  0  0  -0.631029  0  2.205303  0  0  -0.653589  0  2.198289  0  0  -0.529232  -0.615101  0  2.209519  0
O  O64  1  0.51246152  0.89623826  0.65179407  1  0  -0.742252  0  1.972067  0  0  -0.699242  0  2.214279  0  0  -0.7227  0  2.205693  0  0  -0.476209  -0.682722  0  2.219717  0
O  O65  1  0.01244010  0.39623190  0.84820526  1  0  -0.742199  0  1.972092  0  0  -0.699185  0  2.214397  0  0  -0.72263  0  2.205767  0  0  -0.47616  -0.682646  0  2.219794  0
O  O66  1  0.48754608  0.10376433  0.34820388  1  0  -0.742304  0  1.97197  0  0  -0.699271  0  2.214258  0  0  -0.722728  0  2.205648  0  0  -0.47624  -0.682741  0  2.21968  0
O  O67  1  0.98756228  0.60376808  0.15179151  1  0  -0.742154  0  1.972247  0  0  -0.699135  0  2.214505  0  0  -0.722577  0  2.205873  0  0  -0.4761  -0.682599  0  2.219907  0
O  O68  1  0.36916471  0.89755201  0.52210568  1  0  -0.72915  0  1.994119  0  0  -0.682399  0  2.234854  0  0  -0.706567  0  2.227753  0  0  -0.500985  -0.665401  0  2.239141  0
O  O69  1  0.86915412  0.39755040  0.97789258  1  0  -0.729124  0  1.994047  0  0  -0.682372  0  2.234884  0  0  -0.706538  0  2.227789  0  0  -0.501023  -0.665387  0  2.239193  0
O  O70  1  0.63084043  0.10245058  0.47789227  1  0  -0.729186  0  1.994219  0  0  -0.682392  0  2.23499  0  0  -0.706557  0  2.227893  0  0  -0.500983  -0.665413  0  2.239317  0
O  O71  1  0.13084345  0.60245025  0.02210301  1  0  -0.729126  0  1.994082  0  0  -0.682379  0  2.23489  0  0  -0.70655  0  2.227804  0  0  -0.50104  -0.665377  0  2.239168  0
