# generated using pymatgen
data_ZnH9C16NO4F
_symmetry_space_group_name_H-M   'P 1'
_cell_length_a   9.69813557
_cell_length_b   10.49217073
_cell_length_c   14.61752047
_cell_angle_alpha   98.46216454
_cell_angle_beta   94.93036698
_cell_angle_gamma   102.04760525
_symmetry_Int_Tables_number   1
_chemical_formula_structural   ZnH9C16NO4F
_chemical_formula_sum   'Zn4 H36 C64 N4 O16 F4'
_cell_volume   1428.29984526
_cell_formula_units_Z   4
loop_
 _symmetry_equiv_pos_site_id
 _symmetry_equiv_pos_as_xyz
  1  'x, y, z'
loop_
 _atom_site_type_symbol
 _atom_site_label
 _atom_site_symmetry_multiplicity
 _atom_site_fract_x
 _atom_site_fract_y
 _atom_site_fract_z
 _atom_site_occupancy
 _atom_site_hle17_bader_spin_density
 _atom_site_hle17_ddec_charge
 _atom_site_hle17_ddec_spin_density
 _atom_site_hle17_ddec_sum_bond_order
 _atom_site_hle17_magmom
 _atom_site_hse06_10hf_bader_spin_density
 _atom_site_hse06_10hf_ddec_charge
 _atom_site_hse06_10hf_ddec_spin_density
 _atom_site_hse06_10hf_ddec_sum_bond_order
 _atom_site_hse06_10hf_magmom
 _atom_site_hse06_bader_spin_density
 _atom_site_hse06_ddec_charge
 _atom_site_hse06_ddec_spin_density
 _atom_site_hse06_ddec_sum_bond_order
 _atom_site_hse06_magmom
 _atom_site_pbe_bader_spin_density
 _atom_site_pbe_cm5_charge
 _atom_site_pbe_ddec_charge
 _atom_site_pbe_ddec_spin_density
 _atom_site_pbe_ddec_sum_bond_order
 _atom_site_pbe_magmom
Zn  Zn0  1  0.54901470  0.73453770  0.60794237  1  0  1.065538  0  1.830469  0  0  0.878915  0  2.321738  0  0  0.928269  0  2.259137  0  0  0.703441  0.84356  0  2.364889  0
Zn  Zn1  1  0.45098380  0.26546246  0.39205853  1  0  1.065545  0  1.830512  0  0  0.878935  0  2.321791  0  0  0.928293  0  2.259183  0  0  0.703445  0.843574  0  2.364955  0
Zn  Zn2  1  0.54023166  0.77555944  0.84152169  1  0  1.070065  0  1.828112  0  0  0.885286  0  2.317584  0  0  0.935141  0  2.253599  0  0  0.702705  0.849873  0  2.361173  0
Zn  Zn3  1  0.45976481  0.22444159  0.15847580  1  0  1.070065  0  1.828101  0  0  0.885282  0  2.31759  0  0  0.935139  0  2.2536  0  0  0.702696  0.849862  0  2.361191  0
H  H4  1  0.23868176  0.63714219  0.75605622  1  0  0.093974  0  0.97678  0  0  0.10208  0  1.045207  0  0  0.10515  0  1.043447  0  0  0.097249  0.099871  0  1.046363  0
H  H5  1  0.76131490  0.36285982  0.24394069  1  0  0.094  0  0.976729  0  0  0.102107  0  1.045157  0  0  0.105177  0  1.043398  0  0  0.097259  0.099903  0  1.04631  0
H  H6  1  0.04748818  0.62592163  0.86147906  1  0  0.085997  0  0.978038  0  0  0.094388  0  1.044835  0  0  0.096995  0  1.044753  0  0  0.094551  0.092452  0  1.045203  0
H  H7  1  0.95250663  0.37407643  0.13851876  1  0  0.086074  0  0.977912  0  0  0.094404  0  1.04478  0  0  0.09701  0  1.044697  0  0  0.094573  0.09247  0  1.045153  0
H  H8  1  0.84676363  0.86722087  0.70527775  1  0  0.099662  0  0.97243  0  0  0.106861  0  1.04017  0  0  0.110116  0  1.038365  0  0  0.097121  0.104372  0  1.041757  0
H  H9  1  0.15323392  0.13278020  0.29472047  1  0  0.099646  0  0.972447  0  0  0.106842  0  1.040192  0  0  0.110097  0  1.038388  0  0  0.097137  0.10436  0  1.041776  0
H  H10  1  0.03243289  0.87099643  0.59600277  1  0  0.094519  0  0.951382  0  0  0.10605  0  1.009533  0  0  0.10935  0  1.007943  0  0  0.100931  0.103663  0  1.010651  0
H  H11  1  0.96756468  0.12900954  0.40399526  1  0  0.094588  0  0.951433  0  0  0.106079  0  1.009622  0  0  0.109377  0  1.008032  0  0  0.10097  0.103703  0  1.010736  0
H  H12  1  0.66170231  0.36969389  0.59909526  1  0  0.100815  0  0.946094  0  0  0.109438  0  1.00914  0  0  0.113093  0  1.006444  0  0  0.104851  0.106653  0  1.011412  0
H  H13  1  0.33830323  0.63031030  0.40090495  1  0  0.100855  0  0.946073  0  0  0.10947  0  1.009138  0  0  0.113126  0  1.00644  0  0  0.104867  0.106676  0  1.011434  0
H  H14  1  0.66585891  0.13469174  0.60010357  1  0  0.11535  0  0.956178  0  0  0.122259  0  1.020267  0  0  0.12628  0  1.01707  0  0  0.107258  0.119371  0  1.022532  0
H  H15  1  0.33414493  0.86530946  0.39989627  1  0  0.115324  0  0.956148  0  0  0.122199  0  1.020277  0  0  0.126221  0  1.017078  0  0  0.107229  0.119314  0  1.02254  0
H  H16  1  0.47048046  0.14797958  0.85402863  1  0  0.096122  0  0.959538  0  0  0.103643  0  1.025445  0  0  0.107016  0  1.023163  0  0  0.100195  0.100981  0  1.02752  0
H  H17  1  0.52952392  0.85201964  0.14596966  1  0  0.096063  0  0.959548  0  0  0.103587  0  1.025467  0  0  0.106965  0  1.023185  0  0  0.100202  0.100925  0  1.02754  0
H  H18  1  0.46499287  0.38485617  0.85186565  1  0  0.097956  0  0.94652  0  0  0.108597  0  1.006391  0  0  0.111879  0  1.004318  0  0  0.103698  0.10606  0  1.008154  0
H  H19  1  0.53501117  0.61514111  0.14813449  1  0  0.098009  0  0.946371  0  0  0.108641  0  1.006263  0  0  0.111924  0  1.00419  0  0  0.103737  0.106099  0  1.008025  0
H  H20  1  0.67823492  0.54141899  0.49410854  1  0  0.087165  0  0.942886  0  0  0.095359  0  1.007481  0  0  0.098188  0  1.004442  0  0  0.118507  0.093304  0  1.00958  0
H  H21  1  0.32175741  0.45857708  0.50588967  1  0  0.087046  0  0.943034  0  0  0.095242  0  1.007628  0  0  0.098071  0  1.004586  0  0  0.118465  0.0932  0  1.00972  0
H  H22  1  0.81143045  0.53722436  0.35888795  1  0  0.116024  0  0.970854  0  0  0.123389  0  1.035144  0  0  0.126439  0  1.034591  0  0  0.109339  0.121008  0  1.036196  0
H  H23  1  0.18856354  0.46277468  0.64110992  1  0  0.115969  0  0.970864  0  0  0.123353  0  1.035152  0  0  0.126399  0  1.034608  0  0  0.109338  0.120981  0  1.036204  0
H  H24  1  0.78813416  0.94654661  0.35850944  1  0  0.120811  0  0.978562  0  0  0.123923  0  1.048008  0  0  0.127642  0  1.046431  0  0  0.108231  0.121128  0  1.049477  0
H  H25  1  0.21186884  0.05345466  0.64149449  1  0  0.120764  0  0.97863  0  0  0.123915  0  1.04805  0  0  0.127637  0  1.046475  0  0  0.10822  0.121123  0  1.049521  0
H  H26  1  0.65230135  0.93157156  0.49084487  1  0  0.102573  0  0.936775  0  0  0.109836  0  0.999363  0  0  0.112697  0  0.996195  0  0  0.12514  0.107729  0  1.001639  0
H  H27  1  0.34769932  0.06842867  0.50915818  1  0  0.102614  0  0.936765  0  0  0.109864  0  0.999348  0  0  0.112725  0  0.996178  0  0  0.125144  0.107768  0  1.001618  0
H  H28  1  0.01181355  0.59972305  0.31044211  1  0  0.106186  0  0.942324  0  0  0.118562  0  0.996523  0  0  0.121201  0  0.995931  0  0  0.10967  0.116777  0  0.997044  0
H  H29  1  0.98818373  0.40027611  0.68955933  1  0  0.10614  0  0.942309  0  0  0.11845  0  0.996588  0  0  0.121139  0  0.995935  0  0  0.109634  0.116677  0  0.997111  0
H  H30  1  0.16252595  0.59991211  0.18518970  1  0  0.110053  0  0.958029  0  0  0.116632  0  1.024106  0  0  0.119228  0  1.02366  0  0  0.107785  0.114787  0  1.024376  0
H  H31  1  0.83747300  0.40008513  0.81481230  1  0  0.11007  0  0.958016  0  0  0.11665  0  1.024099  0  0  0.119244  0  1.023655  0  0  0.107795  0.114814  0  1.024369  0
H  H32  1  0.20322091  0.54832874  0.04450900  1  0  0.136795  0  0.955205  0  0  0.145412  0  1.014574  0  0  0.149414  0  1.012364  0  0  0.115637  0.142442  0  1.016525  0
H  H33  1  0.79678635  0.45166864  0.95549332  1  0  0.136769  0  0.955231  0  0  0.145376  0  1.014611  0  0  0.149378  0  1.012403  0  0  0.115622  0.142416  0  1.016561  0
H  H34  1  0.39157498  0.57187255  0.93992833  1  0  0.087246  0  0.93067  0  0  0.099238  0  0.986797  0  0  0.101981  0  0.984069  0  0  0.123728  0.096993  0  0.989155  0
H  H35  1  0.60842858  0.42812763  0.06007003  1  0  0.087256  0  0.930624  0  0  0.099255  0  0.986744  0  0  0.102  0  0.984012  0  0  0.123738  0.097015  0  0.989103  0
H  H36  1  0.38583720  0.96395290  0.93325111  1  0  0.085444  0  0.942401  0  0  0.09335  0  1.006767  0  0  0.096225  0  1.003859  0  0  0.119601  0.09105  0  1.009184  0
H  H37  1  0.61415481  0.03604614  0.06674875  1  0  0.085403  0  0.942455  0  0  0.093351  0  1.006765  0  0  0.096201  0  1.003898  0  0  0.119621  0.091054  0  1.009186  0
H  H38  1  0.20325951  0.96245509  0.04229224  1  0  0.13491  0  0.957046  0  0  0.136994  0  1.024939  0  0  0.14167  0  1.021894  0  0  0.109732  0.13368  0  1.027166  0
H  H39  1  0.79673484  0.03754010  0.95770938  1  0  0.1349  0  0.957068  0  0  0.136987  0  1.02497  0  0  0.141661  0  1.021922  0  0  0.109724  0.133683  0  1.027191  0
C  C40  1  0.14768012  0.75516962  0.66958851  1  0  -0.057003  0  3.748006  0  0  -0.032993  0  3.976126  0  0  -0.039681  0  3.99883  0  0  -0.020473  -0.028744  0  3.960731  0
C  C41  1  0.85231679  0.24483339  0.33040919  1  0  -0.05662  0  3.74786  0  0  -0.032625  0  3.975957  0  0  -0.039309  0  3.998655  0  0  -0.020342  -0.02837  0  3.960561  0
C  C42  1  0.15133264  0.68575234  0.74451164  1  0  -0.090986  0  3.751919  0  0  -0.113153  0  4.001421  0  0  -0.114426  0  4.022723  0  0  -0.095632  -0.111851  0  3.986693  0
C  C43  1  0.84866594  0.31424875  0.25548662  1  0  -0.091135  0  3.751936  0  0  -0.113301  0  4.001451  0  0  -0.114576  0  4.02275  0  0  -0.095666  -0.111996  0  3.986719  0
C  C44  1  0.04622533  0.68085877  0.80386333  1  0  -0.080002  0  3.762361  0  0  -0.099921  0  4.006969  0  0  -0.101903  0  4.029707  0  0  -0.090849  -0.098756  0  3.991994  0
C  C45  1  0.95377193  0.31914128  0.19613340  1  0  -0.080096  0  3.762243  0  0  -0.099958  0  4.006884  0  0  -0.101935  0  4.029619  0  0  -0.090902  -0.098787  0  3.991904  0
C  C46  1  0.93666250  0.74695513  0.79065039  1  0  -0.047922  0  3.724318  0  0  -0.025685  0  3.953646  0  0  -0.031653  0  3.975342  0  0  -0.01881  -0.02226  0  3.939795  0
C  C47  1  0.06333724  0.25304691  0.20934595  1  0  -0.04786  0  3.724082  0  0  -0.025644  0  3.953416  0  0  -0.031617  0  3.975116  0  0  -0.01873  -0.022204  0  3.939565  0
C  C48  1  0.93257208  0.81640913  0.71571216  1  0  -0.068971  0  3.720831  0  0  -0.093886  0  3.973519  0  0  -0.094442  0  3.993189  0  0  -0.090373  -0.094045  0  3.960929  0
C  C49  1  0.06742833  0.18359099  0.28428539  1  0  -0.068903  0  3.720503  0  0  -0.093794  0  3.973169  0  0  -0.094355  0  3.992848  0  0  -0.090369  -0.093954  0  3.960584  0
C  C50  1  0.03612858  0.81901563  0.65520493  1  0  -0.083222  0  3.75291  0  0  -0.105833  0  4.001613  0  0  -0.106993  0  4.021878  0  0  -0.090439  -0.104223  0  3.987446  0
C  C51  1  0.96386940  0.18098741  0.34479350  1  0  -0.083489  0  3.753051  0  0  -0.106073  0  4.001774  0  0  -0.107229  0  4.022032  0  0  -0.090533  -0.104459  0  3.987609  0
C  C52  1  0.26640287  0.76821829  0.60926740  1  0  0.640817  0  3.922318  0  0  0.594165  0  4.210876  0  0  0.628166  0  4.203498  0  0  0.19984  0.570985  0  4.216072  0
C  C53  1  0.73359745  0.23178579  0.39073191  1  0  0.640729  0  3.922389  0  0  0.594107  0  4.210911  0  0  0.628107  0  4.203536  0  0  0.199843  0.57093  0  4.216114  0
C  C54  1  0.82022628  0.73553672  0.85284644  1  0  0.649217  0  3.911607  0  0  0.598759  0  4.209841  0  0  0.632991  0  4.201189  0  0  0.198391  0.575454  0  4.215649  0
C  C55  1  0.17977205  0.26446336  0.14715102  1  0  0.649143  0  3.911717  0  0  0.598694  0  4.209958  0  0  0.63293  0  4.201303  0  0  0.198321  0.575388  0  4.215779  0
C  C56  1  0.56193327  0.39120892  0.72519965  1  0  -0.060424  0  3.745674  0  0  -0.03626  0  3.97554  0  0  -0.043463  0  3.999015  0  0  -0.012875  -0.030789  0  3.957635  0
C  C57  1  0.43807269  0.60879233  0.27480096  1  0  -0.060464  0  3.74567  0  0  -0.036254  0  3.975521  0  0  -0.043458  0  3.998993  0  0  -0.012868  -0.030784  0  3.957611  0
C  C58  1  0.62029974  0.32092325  0.65506607  1  0  -0.068812  0  3.721809  0  0  -0.0919  0  3.972411  0  0  -0.092996  0  3.992618  0  0  -0.080585  -0.091136  0  3.958503  0
C  C59  1  0.37970647  0.67907901  0.34493533  1  0  -0.068933  0  3.722003  0  0  -0.092049  0  3.97262  0  0  -0.093148  0  3.99283  0  0  -0.080622  -0.091284  0  3.958705  0
C  C60  1  0.62313603  0.18913898  0.65599508  1  0  -0.060865  0  3.706387  0  0  -0.083866  0  3.955001  0  0  -0.084395  0  3.974902  0  0  -0.07618  -0.083027  0  3.941357  0
C  C61  1  0.37687008  0.81086323  0.34400426  1  0  -0.060698  0  3.706401  0  0  -0.083667  0  3.954928  0  0  -0.084198  0  3.974828  0  0  -0.076091  -0.082825  0  3.941279  0
C  C62  1  0.56788702  0.12666580  0.72765424  1  0  -0.062234  0  3.738473  0  0  -0.038971  0  3.970171  0  0  -0.047217  0  3.993473  0  0  -0.01353  -0.033597  0  3.953955  0
C  C63  1  0.43212095  0.87333546  0.27234508  1  0  -0.062295  0  3.738695  0  0  -0.038923  0  3.970215  0  0  -0.04716  0  3.993507  0  0  -0.013461  -0.033549  0  3.953997  0
C  C64  1  0.51247691  0.19774070  0.79881179  1  0  -0.065477  0  3.75406  0  0  -0.093915  0  4.012575  0  0  -0.093682  0  4.032969  0  0  -0.08448  -0.093939  0  3.999141  0
C  C65  1  0.48752679  0.80225954  0.20118932  1  0  -0.065284  0  3.754262  0  0  -0.093765  0  4.012748  0  0  -0.09354  0  4.033147  0  0  -0.084484  -0.093787  0  3.999303  0
C  C66  1  0.50907126  0.32891824  0.79751095  1  0  -0.072937  0  3.739335  0  0  -0.098592  0  3.995252  0  0  -0.099877  0  4.015908  0  0  -0.084563  -0.097471  0  3.980757  0
C  C67  1  0.49093444  0.67108201  0.20248887  1  0  -0.073062  0  3.739224  0  0  -0.098721  0  3.995163  0  0  -0.10001  0  4.015822  0  0  -0.084636  -0.097596  0  3.980658  0
C  C68  1  0.55348133  0.53094511  0.72305854  1  0  0.673434  0  3.868551  0  0  0.618756  0  4.155805  0  0  0.654657  0  4.148473  0  0  0.222254  0.595937  0  4.157235  0
C  C69  1  0.44651928  0.46905510  0.27694313  1  0  0.673723  0  3.868252  0  0  0.618987  0  4.155569  0  0  0.654899  0  4.148216  0  0  0.222357  0.596172  0  4.156996  0
C  C70  1  0.56218467  0.98356998  0.72700383  1  0  0.68252  0  3.851211  0  0  0.628007  0  4.137083  0  0  0.664643  0  4.128298  0  0  0.226282  0.604831  0  4.139579  0
C  C71  1  0.43781800  0.01643114  0.27299323  1  0  0.682313  0  3.851381  0  0  0.627788  0  4.137203  0  0  0.664418  0  4.128427  0  0  0.226149  0.604604  0  4.1397  0
C  C72  1  0.70527911  0.62901924  0.46185069  1  0  0.141988  0  3.696492  0  0  0.108544  0  3.947311  0  0  0.115902  0  3.966381  0  0  0.047646  0.103593  0  3.934451  0
C  C73  1  0.29471703  0.37097986  0.53814864  1  0  0.142072  0  3.696507  0  0  0.108674  0  3.947321  0  0  0.116037  0  3.96639  0  0  0.047719  0.103726  0  3.934465  0
C  C74  1  0.78242898  0.62875915  0.38648034  1  0  -0.15006  0  3.675543  0  0  -0.167936  0  3.921201  0  0  -0.176106  0  3.942336  0  0  -0.078359  -0.163113  0  3.907562  0
C  C75  1  0.21756744  0.37124096  0.61352048  1  0  -0.149833  0  3.675386  0  0  -0.167768  0  3.921085  0  0  -0.175939  0  3.942225  0  0  -0.078312  -0.162946  0  3.907457  0
C  C76  1  0.81625170  0.74315864  0.34585537  1  0  0.126188  0  3.741103  0  0  0.137696  0  3.972578  0  0  0.143514  0  3.993545  0  0  0.019839  0.134123  0  3.958362  0
C  C77  1  0.18374916  0.25684257  0.65414710  1  0  0.126043  0  3.741184  0  0  0.13756  0  3.972721  0  0  0.143375  0  3.993693  0  0  0.019844  0.13399  0  3.95851  0
C  C78  1  0.76743570  0.85367620  0.38472181  1  0  -0.148942  0  3.673946  0  0  -0.170308  0  3.923621  0  0  -0.177915  0  3.943602  0  0  -0.077567  -0.165612  0  3.91059  0
C  C79  1  0.23256626  0.14632505  0.61528207  1  0  -0.148827  0  3.673955  0  0  -0.170253  0  3.923616  0  0  -0.177866  0  3.9436  0  0  -0.077577  -0.165553  0  3.910585  0
C  C80  1  0.69020136  0.84641012  0.46005310  1  0  0.146365  0  3.674273  0  0  0.115495  0  3.922124  0  0  0.123343  0  3.940263  0  0  0.055015  0.110369  0  3.909701  0
C  C81  1  0.30979928  0.15359010  0.53994925  1  0  0.146206  0  3.674225  0  0  0.115401  0  3.922044  0  0  0.123252  0  3.940181  0  0  0.05501  0.11028  0  3.909619  0
C  C82  1  0.90264725  0.74451078  0.26764099  1  0  -0.031286  0  3.774637  0  0  -0.025145  0  4.014705  0  0  -0.02754  0  4.037356  0  0  -0.008886  -0.023633  0  3.999406  0
C  C83  1  0.09735225  0.25548938  0.73235927  1  0  -0.031376  0  3.774733  0  0  -0.025247  0  4.014794  0  0  -0.02764  0  4.037456  0  0  -0.008947  -0.023724  0  3.999497  0
C  C84  1  0.00043708  0.66257734  0.25861021  1  0  -0.083027  0  3.731182  0  0  -0.109047  0  3.990269  0  0  -0.111218  0  4.011274  0  0  -0.083833  -0.108508  0  3.97669  0
C  C85  1  0.99956151  0.33742286  0.74139275  1  0  -0.082815  0  3.730915  0  0  -0.108767  0  3.989968  0  0  -0.110977  0  4.010957  0  0  -0.083736  -0.108234  0  3.976401  0
C  C86  1  0.08653188  0.66309334  0.18783480  1  0  -0.078969  0  3.731635  0  0  -0.106442  0  3.994876  0  0  -0.108108  0  4.016651  0  0  -0.08088  -0.104937  0  3.980506  0
C  C87  1  0.91346587  0.33690292  0.81216842  1  0  -0.07909  0  3.731533  0  0  -0.106547  0  3.994782  0  0  -0.108215  0  4.016575  0  0  -0.080902  -0.105039  0  3.980416  0
C  C88  1  0.08253840  0.74739925  0.12164670  1  0  -0.030527  0  3.765752  0  0  -0.026772  0  4.010514  0  0  -0.029946  0  4.033485  0  0  -0.00642  -0.02432  0  3.99504  0
C  C89  1  0.91746152  0.25259798  0.87835396  1  0  -0.030438  0  3.765638  0  0  -0.026761  0  4.010488  0  0  -0.029929  0  4.033453  0  0  -0.006387  -0.024308  0  3.995017  0
C  C90  1  0.98298187  0.82681196  0.12876502  1  0  0.181754  0  3.75341  0  0  0.153657  0  4.040231  0  0  0.161596  0  4.050552  0  0  0.102889  0.147757  0  4.033525  0
C  C91  1  0.01701761  0.17318329  0.87123543  1  0  0.181786  0  3.753305  0  0  0.1537  0  4.040167  0  0  0.161636  0  4.050489  0  0  0.102871  0.147806  0  4.033467  0
C  C92  1  0.89566687  0.82540967  0.19975651  1  0  0.163458  0  3.756233  0  0  0.139854  0  4.042186  0  0  0.146665  0  4.053578  0  0  0.099499  0.135561  0  4.034625  0
C  C93  1  0.10433097  0.17458752  0.80024407  1  0  0.163377  0  3.756352  0  0  0.139809  0  4.042265  0  0  0.146618  0  4.053658  0  0  0.099504  0.135521  0  4.034715  0
C  C94  1  0.18512056  0.75434276  0.05302805  1  0  0.137426  0  3.72361  0  0  0.146741  0  3.959459  0  0  0.152743  0  3.980123  0  0  0.02495  0.142775  0  3.945571  0
C  C95  1  0.81488024  0.24565352  0.94697392  1  0  0.137329  0  3.723594  0  0  0.146692  0  3.959407  0  0  0.152688  0  3.980071  0  0  0.024932  0.142723  0  3.945527  0
C  C96  1  0.23993602  0.64340947  0.02247245  1  0  -0.155402  0  3.662056  0  0  -0.169884  0  3.903372  0  0  -0.177719  0  3.923515  0  0  -0.071042  -0.164784  0  3.889784  0
C  C97  1  0.76006915  0.35658787  0.97752980  1  0  -0.15533  0  3.662157  0  0  -0.169789  0  3.903423  0  0  -0.177621  0  3.923567  0  0  -0.071004  -0.164688  0  3.889834  0
C  C98  1  0.34605295  0.65530771  0.96456406  1  0  0.138539  0  3.691725  0  0  0.108253  0  3.938161  0  0  0.115213  0  3.956961  0  0  0.052275  0.103815  0  3.925262  0
C  C99  1  0.65394759  0.34469247  0.03543624  1  0  0.1385  0  3.691714  0  0  0.108211  0  3.938144  0  0  0.11517  0  3.956946  0  0  0.052249  0.103781  0  3.925249  0
C  C100  1  0.34375337  0.87529028  0.96146378  1  0  0.137614  0  3.693914  0  0  0.104334  0  3.951373  0  0  0.111535  0  3.969761  0  0  0.049823  0.099668  0  3.938851  0
C  C101  1  0.65624053  0.12470782  0.03853674  1  0  0.137613  0  3.693847  0  0  0.104314  0  3.951322  0  0  0.111527  0  3.969707  0  0  0.049797  0.099652  0  3.938801  0
C  C102  1  0.23894933  0.87223095  0.02041599  1  0  -0.143893  0  3.647082  0  0  -0.1687  0  3.905185  0  0  -0.175779  0  3.923946  0  0  -0.074565  -0.164026  0  3.892414  0
C  C103  1  0.76104833  0.12776526  0.97958517  1  0  -0.143831  0  3.647055  0  0  -0.168655  0  3.905164  0  0  -0.175725  0  3.923914  0  0  -0.074505  -0.163979  0  3.892393  0
N  N104  1  0.65931627  0.73607756  0.49841446  1  0  -0.353525  0  3.339287  0  0  -0.265981  0  3.622301  0  0  -0.287553  0  3.637686  0  0  -0.340148  -0.251457  0  3.611796  0
N  N105  1  0.34068075  0.26392060  0.50158618  1  0  -0.353478  0  3.339362  0  0  -0.265974  0  3.622363  0  0  -0.287557  0  3.637757  0  0  -0.340136  -0.251452  0  3.611864  0
N  N106  1  0.39864839  0.76955208  0.93468979  1  0  -0.355668  0  3.326008  0  0  -0.27074  0  3.612562  0  0  -0.291173  0  3.626588  0  0  -0.339854  -0.257051  0  3.602579  0
N  N107  1  0.60134771  0.23044701  0.06530886  1  0  -0.355657  0  3.325899  0  0  -0.270742  0  3.612478  0  0  -0.291172  0  3.626499  0  0  -0.339851  -0.257054  0  3.602504  0
O  O108  1  0.28458099  0.85594028  0.55979328  1  0  -0.598564  0  1.910979  0  0  -0.552792  0  2.128594  0  0  -0.575264  0  2.120245  0  0  -0.316447  -0.538042  0  2.134251  0
O  O109  1  0.71542150  0.14406388  0.44020817  1  0  -0.598591  0  1.911097  0  0  -0.552818  0  2.128686  0  0  -0.57529  0  2.120335  0  0  -0.316474  -0.538061  0  2.134345  0
O  O110  1  0.34739321  0.68366063  0.61626909  1  0  -0.69667  0  2.10067  0  0  -0.618784  0  2.389519  0  0  -0.648962  0  2.372382  0  0  -0.346852  -0.598249  0  2.401056  0
O  O111  1  0.65260466  0.31634147  0.38373129  1  0  -0.696703  0  2.10068  0  0  -0.618829  0  2.389532  0  0  -0.649008  0  2.372394  0  0  -0.346852  -0.598287  0  2.40107  0
O  O112  1  0.74450258  0.82514698  0.85030166  1  0  -0.693681  0  2.075899  0  0  -0.618528  0  2.363834  0  0  -0.6479  0  2.344652  0  0  -0.352482  -0.59888  0  2.376907  0
O  O113  1  0.25549600  0.17485410  0.14969660  1  0  -0.693652  0  2.075884  0  0  -0.618503  0  2.363824  0  0  -0.647875  0  2.34464  0  0  -0.35248  -0.598847  0  2.376907  0
O  O114  1  0.79894383  0.64412848  0.89919689  1  0  -0.610908  0  1.886889  0  0  -0.57043  0  2.105835  0  0  -0.592046  0  2.096443  0  0  -0.331425  -0.55633  0  2.112435  0
O  O115  1  0.20105337  0.35587153  0.10079847  1  0  -0.610899  0  1.886883  0  0  -0.570408  0  2.105806  0  0  -0.592028  0  2.09642  0  0  -0.331351  -0.556292  0  2.112408  0
O  O116  1  0.61128021  0.58693446  0.65971486  1  0  -0.636906  0  2.082829  0  0  -0.563464  0  2.358273  0  0  -0.592014  0  2.343214  0  0  -0.310497  -0.542867  0  2.366895  0
O  O117  1  0.38872206  0.41306872  0.34028648  1  0  -0.636974  0  2.082823  0  0  -0.563514  0  2.358295  0  0  -0.592065  0  2.343219  0  0  -0.310524  -0.542922  0  2.366922  0
O  O118  1  0.48814804  0.58525419  0.78451230  1  0  -0.645552  0  2.109745  0  0  -0.574604  0  2.393117  0  0  -0.602725  0  2.376029  0  0  -0.313219  -0.55415  0  2.403166  0
O  O119  1  0.51185103  0.41474398  0.21548774  1  0  -0.645735  0  2.10957  0  0  -0.574763  0  2.392975  0  0  -0.602889  0  2.375879  0  0  -0.313303  -0.554308  0  2.403028  0
O  O120  1  0.62022956  0.92361145  0.66400294  1  0  -0.638047  0  2.10143  0  0  -0.562365  0  2.3763  0  0  -0.590319  0  2.358597  0  0  -0.308169  -0.542246  0  2.386899  0
O  O121  1  0.37977419  0.07638971  0.33599484  1  0  -0.637965  0  2.101406  0  0  -0.562315  0  2.376311  0  0  -0.590268  0  2.358612  0  0  -0.30815  -0.542192  0  2.386908  0
O  O122  1  0.49720039  0.92951236  0.78872928  1  0  -0.638444  0  2.086772  0  0  -0.566963  0  2.365533  0  0  -0.595768  0  2.349955  0  0  -0.313177  -0.546229  0  2.374352  0
O  O123  1  0.50279863  0.07048669  0.21126537  1  0  -0.63835  0  2.08683  0  0  -0.566894  0  2.365629  0  0  -0.595697  0  2.350053  0  0  -0.313133  -0.546152  0  2.374451  0
F  F124  1  0.80147344  0.90442533  0.19888443  1  0  -0.158028  0  1.259683  0  0  -0.108173  0  1.429952  0  0  -0.118297  0  1.422978  0  0  -0.073327  -0.101043  0  1.434915  0
F  F125  1  0.19852858  0.09557684  0.80111613  1  0  -0.157996  0  1.259747  0  0  -0.108148  0  1.430001  0  0  -0.118272  0  1.42303  0  0  -0.073318  -0.101017  0  1.434973  0
F  F126  1  0.96565197  0.90650704  0.06590319  1  0  -0.159578  0  1.258139  0  0  -0.102447  0  1.415263  0  0  -0.111867  0  1.406894  0  0  -0.072263  -0.095427  0  1.420912  0
F  F127  1  0.03434460  0.09348513  0.93409341  1  0  -0.15955  0  1.258096  0  0  -0.10245  0  1.415254  0  0  -0.111869  0  1.406885  0  0  -0.072237  -0.095419  0  1.420905  0
