# generated using pymatgen
data_CuH12C10N2O5
_symmetry_space_group_name_H-M   'P 1'
_cell_length_a   8.00159846
_cell_length_b   8.09150992
_cell_length_c   9.64817930
_cell_angle_alpha   113.18287300
_cell_angle_beta   89.99974013
_cell_angle_gamma   90.00034425
_symmetry_Int_Tables_number   1
_chemical_formula_structural   CuH12C10N2O5
_chemical_formula_sum   'Cu2 H24 C20 N4 O10'
_cell_volume   574.23118319
_cell_formula_units_Z   2
loop_
 _symmetry_equiv_pos_site_id
 _symmetry_equiv_pos_as_xyz
  1  'x, y, z'
loop_
 _atom_site_type_symbol
 _atom_site_label
 _atom_site_symmetry_multiplicity
 _atom_site_fract_x
 _atom_site_fract_y
 _atom_site_fract_z
 _atom_site_occupancy
 _atom_site_hse06_10hf_ddec_charge
 _atom_site_hse06_10hf_ddec_spin_density
 _atom_site_hse06_10hf_ddec_sum_bond_order
 _atom_site_hse06_10hf_magmom
 _atom_site_hse06_ddec_charge
 _atom_site_hse06_ddec_spin_density
 _atom_site_hse06_ddec_sum_bond_order
 _atom_site_hse06_magmom
 _atom_site_pbe_cm5_charge
 _atom_site_pbe_ddec_charge
 _atom_site_pbe_ddec_spin_density
 _atom_site_pbe_ddec_sum_bond_order
 _atom_site_pbe_magmom
Cu  Cu0  1  0.97810370  0.60143142  0.07814059  1  0.852091  -0.797631  2.189872  -0.611  0.941129  -0.873694  2.118034  -0.695  0.734049  0.797134  -0.741096  2.240931  -0.556
Cu  Cu1  1  0.47810564  0.39857066  0.92185806  1  0.852119  0.797627  2.189916  0.611  0.941071  0.873691  2.11817  0.695  0.734076  0.797137  0.741099  2.240928  0.556
H  H2  1  0.67073710  0.86512705  0.10415995  1  0.069735  0.000153  1.021463  0.0  0.0704  0.000148  1.020668  0.0  0.098798  0.068995  0.000146  1.022202  0.0
H  H3  1  0.17073381  0.13487216  0.89583991  1  0.069679  -0.000152  1.021509  0.0  0.070341  -0.000148  1.020719  0.0  0.098768  0.06894  -0.000146  1.022249  0.0
H  H4  1  0.76740064  0.96273669  0.98506108  1  0.077533  -0.001753  1.019415  -0.002  0.077825  -0.001101  1.018284  -0.002  0.100498  0.077058  -0.002271  1.020424  -0.003
H  H5  1  0.26739789  0.03727104  0.01494235  1  0.077527  0.001755  1.0194  0.002  0.077819  0.001101  1.01827  0.002  0.100518  0.077052  0.002271  1.020409  0.003
H  H6  1  0.99062015  0.17372213  0.43320759  1  0.145284  9.7e-05  1.034309  0.0  0.147467  8.2e-05  1.034607  0.0  0.09811  0.14365  9.2e-05  1.034222  0.0
H  H7  1  0.49062168  0.82627595  0.56679173  1  0.145264  -9.7e-05  1.034318  0.0  0.147446  -8.2e-05  1.034617  0.0  0.098102  0.143628  -9.2e-05  1.034235  0.0
H  H8  1  0.14322523  0.10919107  0.53541373  1  0.15596  -0.000386  0.983775  0.0  0.157209  -0.000249  0.984263  0.0  0.102476  0.154817  -0.000485  0.983694  0.0
H  H9  1  0.64322417  0.89080407  0.46457967  1  0.155949  0.000387  0.983744  0.0  0.157198  0.000249  0.984233  0.0  0.102474  0.154808  0.000485  0.983664  0.0
H  H10  1  0.93057403  0.10771291  0.58068384  1  0.155587  0.00019  1.015007  0.0  0.158122  0.000238  1.013767  0.0  0.101881  0.153492  0.000169  1.016093  0.0
H  H11  1  0.43057179  0.89228617  0.41931915  1  0.155589  -0.000189  1.01498  0.0  0.158125  -0.000238  1.013738  0.0  0.101892  0.153497  -0.000169  1.016064  0.0
H  H12  1  0.22709844  0.33050199  0.34117402  1  0.124746  0.00018  1.000615  0.0  0.127876  0.000131  0.999823  0.0  0.103482  0.12257  0.000251  1.001173  0.0
H  H13  1  0.72710869  0.66949890  0.65882309  1  0.124723  -0.00018  1.000606  0.0  0.127852  -0.000132  0.999814  0.0  0.103493  0.122548  -0.000251  1.001161  0.0
H  H14  1  0.03455956  0.99169190  0.11739808  1  0.096295  -2.2e-05  0.988201  0.0  0.09628  -0.000102  0.988039  0.0  0.110353  0.095801  5.2e-05  0.988768  0.0
H  H15  1  0.53455702  0.00831598  0.88261042  1  0.096289  2.3e-05  0.988226  0.0  0.096272  0.000102  0.988067  0.0  0.11034  0.095791  -5.2e-05  0.988797  0.0
H  H16  1  0.87350006  0.09508568  0.25192068  1  0.094702  -0.002378  1.021086  -0.003  0.094016  -0.001755  1.023135  -0.002  0.108514  0.094983  -0.00274  1.019604  -0.004
H  H17  1  0.37350107  0.90491579  0.74808437  1  0.094609  0.002378  1.021073  0.003  0.093922  0.001756  1.023122  0.002  0.108499  0.094888  0.00274  1.019595  0.004
H  H18  1  0.22745540  0.42889367  0.62001218  1  0.096311  -0.000454  1.010116  0.0  0.097714  -0.000304  1.009479  0.0  0.100438  0.09508  -0.000575  1.010977  -0.001
H  H19  1  0.72746035  0.57110451  0.37998504  1  0.096253  0.000454  1.010173  0.0  0.09767  0.000304  1.009521  0.0  0.100434  0.095026  0.000575  1.011037  0.001
H  H20  1  0.11016180  0.72815258  0.78236621  1  0.113906  3.8e-05  1.035593  0.0  0.116436  3.4e-05  1.035056  0.0  0.097429  0.112351  -4.7e-05  1.035384  0.0
H  H21  1  0.61015332  0.27184901  0.21763572  1  0.113857  -3.7e-05  1.035645  0.0  0.116387  -3.4e-05  1.035106  0.0  0.097421  0.112307  4.7e-05  1.035438  0.0
H  H22  1  0.01479556  0.93347928  0.66746069  1  0.098338  -4e-06  1.075585  0.0  0.100893  1e-05  1.073398  0.0  0.097359  0.096361  -3.4e-05  1.077292  0.0
H  H23  1  0.51479267  0.06651916  0.33254053  1  0.098272  5e-06  1.075632  0.0  0.100827  -1e-05  1.073447  0.0  0.09735  0.096296  3.4e-05  1.077336  0.0
H  H24  1  0.75475238  0.62511495  0.89335630  1  0.355554  0.000356  0.989064  0.0  0.368268  0.000219  0.97728  0.0  0.297062  0.346611  0.000467  0.997414  0.001
H  H25  1  0.25474745  0.37489010  0.10664212  1  0.355532  -0.000357  0.989128  0.0  0.36825  -0.00022  0.977332  0.0  0.297047  0.346587  -0.000467  0.997478  -0.001
C  C26  1  0.11621884  0.57383244  0.34345552  1  0.329616  -0.000663  4.079235  0.002  0.348531  0.000632  4.0966  0.003  0.08821  0.316984  -0.001717  4.067547  0.001
C  C27  1  0.61622636  0.42616651  0.65654446  1  0.329511  0.000656  4.079295  -0.002  0.348424  -0.000634  4.096653  -0.003  0.088186  0.316876  0.001717  4.067596  -0.001
C  C28  1  0.06088893  0.75142254  0.43664057  1  -0.154562  -0.005868  3.995269  -0.007  -0.171009  -0.004036  4.024198  -0.005  -0.036502  -0.144051  -0.007255  3.976025  -0.009
C  C29  1  0.56089588  0.24857481  0.56335803  1  -0.154429  0.005873  3.995234  0.007  -0.170874  0.004037  4.024163  0.005  -0.036429  -0.143919  0.007257  3.97598  0.009
C  C30  1  0.17865457  0.46230419  0.41354398  1  -0.220889  -0.007271  3.97588  -0.008  -0.23047  -0.005328  3.99659  -0.006  -0.110168  -0.214525  -0.008427  3.961987  -0.009
C  C31  1  0.67866067  0.53769106  0.58645244  1  -0.220814  0.00727  3.975972  0.008  -0.230393  0.005331  3.996689  0.006  -0.110172  -0.214448  0.008427  3.962074  0.009
C  C32  1  0.00965099  0.88557999  0.37802335  1  0.348238  0.002588  3.9236  0.005  0.371661  0.004113  3.934627  0.006  0.156071  0.332574  0.001181  3.916233  0.003
C  C33  1  0.50965179  0.11441709  0.62197640  1  0.348128  -0.002591  3.923729  -0.005  0.371548  -0.004115  3.934752  -0.006  0.156011  0.33246  -0.001181  3.916356  -0.003
C  C34  1  0.92070478  0.96643257  0.17014932  1  -0.066818  -0.002661  3.946382  -0.001  -0.063018  -0.001355  3.961448  0.0  -0.075481  -0.068828  -0.003596  3.936569  -0.002
C  C35  1  0.42070749  0.03356918  0.82985254  1  -0.066688  0.002656  3.946214  0.001  -0.062888  0.001354  3.961276  0.0  -0.075462  -0.068697  0.003595  3.936404  0.002
C  C36  1  0.17942291  0.51794947  0.56894805  1  -0.028711  0.000977  4.023205  0.001  -0.024789  0.001382  4.044328  0.001  -0.081393  -0.031264  0.000619  4.00906  0.0
C  C37  1  0.67942953  0.48204841  0.43105340  1  -0.028785  -0.000975  4.023276  -0.001  -0.024876  -0.001386  4.044402  -0.001  -0.08141  -0.031343  -0.000619  4.009141  0.0
C  C38  1  0.11668321  0.68760132  0.66084315  1  -0.126549  -0.002584  4.047323  -0.003  -0.1338  -0.001754  4.070543  -0.002  -0.110003  -0.121885  -0.003146  4.030903  -0.003
C  C39  1  0.61668180  0.31239502  0.33915076  1  -0.126406  0.002582  4.047005  0.003  -0.13366  0.001758  4.070238  0.002  -0.109993  -0.121749  0.003147  4.030594  0.003
C  C40  1  0.06215589  0.80184012  0.59470872  1  -0.09851  0.002199  4.01697  0.002  -0.095615  0.002202  4.039533  0.002  -0.094255  -0.099903  0.002116  4.001517  0.002
C  C41  1  0.56215591  0.19815580  0.40529458  1  -0.098479  -0.002198  4.016993  -0.002  -0.095581  -0.002205  4.039554  -0.002  -0.094246  -0.09987  -0.002116  4.001536  -0.002
C  C42  1  0.78815383  0.88091720  0.05138673  1  0.04623  -0.000678  3.877647  0.001  0.05438  -0.000261  3.883923  0.001  -0.082905  0.041032  -0.001157  3.873366  0.0
C  C43  1  0.28815141  0.11908530  0.94861277  1  0.046372  0.00067  3.877484  -0.001  0.054522  0.000261  3.883753  -0.001  -0.082842  0.041172  0.001156  3.873209  0.0
C  C44  1  0.01749540  0.07980847  0.48599159  1  -0.458463  -0.007888  3.879495  -0.009  -0.464673  -0.005773  3.88419  -0.007  -0.234802  -0.453744  -0.009291  3.876455  -0.01
C  C45  1  0.51749550  0.92018865  0.51400813  1  -0.458357  0.007887  3.879368  0.009  -0.464567  0.005773  3.884066  0.007  -0.234786  -0.45364  0.009292  3.876331  0.01
N  N46  1  0.96392806  0.83866823  0.23790572  1  -0.352144  -0.07166  3.550746  -0.092  -0.389595  -0.060769  3.567872  -0.083  -0.381792  -0.330273  -0.076081  3.541801  -0.095
N  N47  1  0.46393318  0.16133109  0.76209204  1  -0.352193  0.071665  3.550877  0.092  -0.389618  0.060772  3.567989  0.083  -0.381781  -0.330313  0.076081  3.54191  0.095
N  N48  1  0.85060706  0.26796533  0.92163464  1  0.724764  -2.2e-05  4.41455  0.001  0.756795  7.2e-05  4.418293  0.001  0.093856  0.702837  -8.1e-05  4.410821  0.001
N  N49  1  0.35060822  0.73203475  0.07836588  1  0.724815  2e-05  4.414656  -0.001  0.756848  -6.8e-05  4.418384  -0.001  0.093852  0.702885  8.1e-05  4.410924  -0.001
O  O50  1  0.11698765  0.50811996  0.19336536  1  -0.561431  -0.066503  2.485579  -0.095  -0.606957  -0.052652  2.484641  -0.08  -0.346987  -0.532337  -0.073486  2.486959  -0.102
O  O51  1  0.61699349  0.49187900  0.80663359  1  -0.56141  0.066508  2.485639  0.095  -0.606917  0.052652  2.484703  0.08  -0.347034  -0.532312  0.073486  2.487  0.102
O  O52  1  0.97629853  0.36088428  0.90490216  1  -0.446003  -0.041975  2.081167  -0.058  -0.473742  -0.033509  2.071203  -0.049  -0.206415  -0.426743  -0.048445  2.087817  -0.065
O  O53  1  0.47629903  0.63911911  0.09509901  1  -0.446016  0.041968  2.081254  0.058  -0.473733  0.033509  2.071283  0.049  -0.206394  -0.426746  0.048443  2.08789  0.065
O  O54  1  0.85041835  0.70622729  0.95346546  1  -0.487258  -0.046025  2.463288  -0.064  -0.519004  -0.038447  2.451283  -0.056  -0.399209  -0.466322  -0.050019  2.47153  -0.067
O  O55  1  0.35041451  0.29377822  0.04653379  1  -0.487297  0.046031  2.463314  0.064  -0.519023  0.038447  2.451304  0.056  -0.399237  -0.466351  0.050015  2.471542  0.067
O  O56  1  0.75230940  0.34163874  0.03086945  1  -0.486014  0.001512  2.061064  0.002  -0.502858  0.001708  2.047175  0.002  -0.177251  -0.474121  0.000826  2.07027  0.001
O  O57  1  0.25231392  0.65835686  0.96912785  1  -0.486041  -0.00151  2.061025  -0.002  -0.502896  -0.001715  2.047152  -0.002  -0.177267  -0.474144  -0.000826  2.070231  -0.001
O  O58  1  0.83221801  0.11031723  0.82833137  1  -0.397556  -0.00488  1.982139  -0.006  -0.409474  -0.002647  1.975628  -0.004  -0.151417  -0.388339  -0.007552  1.986145  -0.01
O  O59  1  0.33221337  0.88968140  0.17166976  1  -0.397555  0.004889  1.982194  0.006  -0.409495  0.002654  1.975709  0.004  -0.151413  -0.388362  0.007551  1.986244  0.01
