# generated using pymatgen
data_ZnH8C12(IN2)2
_symmetry_space_group_name_H-M   'P 1'
_cell_length_a   15.10093060
_cell_length_b   15.33409840
_cell_length_c   31.92286459
_cell_angle_alpha   93.83958139
_cell_angle_beta   89.97354764
_cell_angle_gamma   119.49881641
_symmetry_Int_Tables_number   1
_chemical_formula_structural   ZnH8C12(IN2)2
_chemical_formula_sum   'Zn12 H96 C144 I24 N48'
_cell_volume   6414.83084176
_cell_formula_units_Z   12
loop_
 _symmetry_equiv_pos_site_id
 _symmetry_equiv_pos_as_xyz
  1  'x, y, z'
loop_
 _atom_site_type_symbol
 _atom_site_label
 _atom_site_symmetry_multiplicity
 _atom_site_fract_x
 _atom_site_fract_y
 _atom_site_fract_z
 _atom_site_occupancy
 _atom_site_pbe_bader_charge
 _atom_site_pbe_bader_spin_density
 _atom_site_pbe_cm5_charge
 _atom_site_pbe_ddec_charge
 _atom_site_pbe_ddec_spin_density
 _atom_site_pbe_ddec_sum_bond_order
 _atom_site_pbe_magmom
Zn  Zn0  1  0.93667148  0.58084459  0.19814855  1  0.90057  0  0.44678  0.457516  0  2.74859  0
Zn  Zn1  1  0.55048987  0.86355667  0.88326749  1  0.90209  0  0.442976  0.471104  0  2.750701  0
Zn  Zn2  1  0.10074117  0.38711411  0.99984595  1  0.896739  0  0.439735  0.465833  0  2.735998  0
Zn  Zn3  1  0.64458437  0.58133025  0.69822497  1  0.899739  0  0.44655  0.458163  0  2.748032  0
Zn  Zn4  1  0.31273340  0.86348142  0.38316155  1  0.902833  0  0.442934  0.470705  0  2.751773  0
Zn  Zn5  1  0.28621271  0.38642799  0.49987448  1  0.895565  0  0.439563  0.464833  0  2.736248  0
Zn  Zn6  1  0.35541438  0.41866342  0.30177297  1  0.899614  0  0.446512  0.458144  0  2.748055  0
Zn  Zn7  1  0.68726496  0.13651677  0.61683873  1  0.902855  0  0.442906  0.470711  0  2.751754  0
Zn  Zn8  1  0.71378328  0.61356945  0.50012295  1  0.895631  0  0.439546  0.464819  0  2.736202  0
Zn  Zn9  1  0.06332897  0.41914984  0.80184941  1  0.900445  0  0.446792  0.45754  0  2.748571  0
Zn  Zn10  1  0.44951045  0.13644677  0.11672951  1  0.902082  0  0.442988  0.471156  0  2.750669  0
Zn  Zn11  1  0.89925597  0.61288033  0.00015577  1  0.896798  0  0.439701  0.465846  0  2.735956  0
H  H12  1  0.20079653  0.28573505  0.94905385  1  0.13607  0  0.102322  0.076384  0  1.038959  0
H  H13  1  0.24169857  0.14689217  0.95934726  1  0.132087  0  0.114609  0.124561  0  0.993227  0
H  H14  1  0.04249110  0.06520384  0.06364372  1  0.118041  0  0.116507  0.127042  0  0.989651  0
H  H15  1  0.00814902  0.20603435  0.04870369  1  0.113991  0  0.112459  0.086391  0  0.996418  0
H  H16  1  0.41548080  0.75809131  0.95330487  1  0.133451  0  0.10785  0.086975  0  1.021729  0
H  H17  1  0.29886697  0.78358759  0.00290849  1  0.157237  0  0.108121  0.132205  0  1.01047  0
H  H18  1  0.40558658  0.07471367  0.95577579  1  0.129999  0  0.1156  0.126233  0  0.98801  0
H  H19  1  0.52181119  0.03918058  0.90909955  1  0.160153  0  0.104984  0.081442  0  1.030986  0
H  H20  1  0.09685629  0.62610420  0.13879549  1  0.108368  0  0.105689  0.078846  0  1.034709  0
H  H21  1  0.18873094  0.74555237  0.08336039  1  0.140124  0  0.110565  0.122442  0  1.006392  0
H  H22  1  0.99082847  0.87025425  0.10577700  1  0.099433  0  0.111992  0.119326  0  0.998882  0
H  H23  1  0.90767325  0.74699531  0.16055761  1  0.100152  0  0.117106  0.08763  0  0.985306  0
H  H24  1  0.08565588  0.47893086  0.08597674  1  0.134338  0  0.100167  0.083138  0  1.047253  0
H  H25  1  0.19270446  0.54980514  0.15326008  1  0.121528  0  0.106543  0.114746  0  1.029956  0
H  H26  1  0.40322379  0.46492553  0.09844872  1  0.155593  0  0.106327  0.123667  0  1.024207  0
H  H27  1  0.29159092  0.40264490  0.03303313  1  0.107187  0  0.112071  0.084943  0  1.00365  0
H  H28  1  0.50602682  0.86493777  0.35264348  1  0.064107  0  0.115921  0.085041  0  0.98803  0
H  H29  1  0.55317704  0.78657514  0.29132611  1  0.141655  0  0.111519  0.124308  0  0.995119  0
H  H30  1  0.23422054  0.61912629  0.25383991  1  0.124768  0  0.108615  0.118728  0  1.015145  0
H  H31  1  0.19887080  0.69574390  0.31867779  1  0.116003  0  0.096897  0.085507  0  1.049067  0
H  H32  1  0.83304577  0.65256541  0.26126692  1  0.135674  0  0.102606  0.083869  0  1.037376  0
H  H33  1  0.67364155  0.66823214  0.26317231  1  0.141512  0  0.107244  0.123038  0  1.018365  0
H  H34  1  0.58794381  0.50705432  0.14064903  1  0.144067  0  0.111133  0.124257  0  1.013759  0
H  H35  1  0.74780168  0.49560193  0.14418015  1  0.144987  0  0.101727  0.092325  0  1.032754  0
H  H36  1  0.08504630  0.28537344  0.44896151  1  0.111673  0  0.101995  0.076418  0  1.039852  0
H  H37  1  0.90509123  0.14670022  0.45908974  1  0.115015  0  0.115068  0.125479  0  0.992177  0
H  H38  1  0.02155474  0.06470117  0.56356329  1  0.126365  0  0.116288  0.126703  0  0.989286  0
H  H39  1  0.19699896  0.20522556  0.54871275  1  0.127428  0  0.112415  0.086647  0  0.995754  0
H  H40  1  0.34206683  0.75767493  0.45317201  1  0.126554  0  0.1081  0.087309  0  1.020584  0
H  H41  1  0.48413272  0.78331579  0.50278521  1  0.146801  0  0.108025  0.131814  0  1.010997  0
H  H42  1  0.66816072  0.07480519  0.45587626  1  0.123108  0  0.115443  0.126594  0  0.987738  0
H  H43  1  0.51641734  0.03917201  0.40923028  1  0.13278  0  0.104641  0.081303  0  1.031657  0
H  H44  1  0.52916813  0.62568359  0.63876073  1  0.1121  0  0.105902  0.079109  0  1.034103  0
H  H45  1  0.55621586  0.74489510  0.58330049  1  0.138224  0  0.110536  0.12265  0  1.005663  0
H  H46  1  0.87896400  0.87075949  0.60561753  1  0.095228  0  0.11187  0.11898  0  0.999389  0
H  H47  1  0.83937980  0.74783610  0.66049264  1  0.08573  0  0.117594  0.088483  0  0.984521  0
H  H48  1  0.39312909  0.47806274  0.58602293  1  0.118127  0  0.100141  0.083128  0  1.047647  0
H  H49  1  0.35699170  0.54891570  0.65333662  1  0.130638  0  0.106614  0.114422  0  1.029706  0
H  H50  1  0.06207919  0.46524642  0.59848551  1  0.133341  0  0.106362  0.123572  0  1.024321  0
H  H51  1  0.11132331  0.40280052  0.53303390  1  0.071063  0  0.111906  0.084761  0  1.003987  0
H  H52  1  0.35870649  0.86462777  0.85262214  1  0.082413  0  0.116282  0.08544  0  0.98811  0
H  H53  1  0.23312810  0.78561988  0.79137969  1  0.130271  0  0.111139  0.123374  0  0.996358  0
H  H54  1  0.38521082  0.61855005  0.75408728  1  0.128227  0  0.10863  0.118308  0  1.014725  0
H  H55  1  0.49708309  0.69564430  0.81889531  1  0.120636  0  0.096718  0.085401  0  1.049935  0
H  H56  1  0.81968917  0.65246195  0.76160145  1  0.124649  0  0.102918  0.083958  0  1.037075  0
H  H57  1  0.99451795  0.66748499  0.76357328  1  0.121413  0  0.107089  0.123053  0  1.019304  0
H  H58  1  0.91964424  0.50768069  0.64077748  1  0.122458  0  0.111318  0.124281  0  1.013515  0
H  H59  1  0.74856684  0.49675399  0.64424841  1  0.098646  0  0.101557  0.092292  0  1.032782  0
H  H60  1  0.91494610  0.71462475  0.55103658  1  0.11167  0  0.101976  0.076397  0  1.03992  0
H  H61  1  0.09489879  0.85330248  0.54091256  1  0.114829  0  0.115087  0.125542  0  0.992081  0
H  H62  1  0.97844338  0.93530981  0.43643959  1  0.12633  0  0.116269  0.126692  0  0.989403  0
H  H63  1  0.80299700  0.79478240  0.45128658  1  0.127333  0  0.112422  0.086622  0  0.995674  0
H  H64  1  0.65793010  0.24232703  0.54683058  1  0.126638  0  0.108089  0.08726  0  1.020573  0
H  H65  1  0.51586343  0.21668993  0.49721906  1  0.142456  0  0.108022  0.13186  0  1.010918  0
H  H66  1  0.33183743  0.92519526  0.54412409  1  0.1229  0  0.115457  0.12661  0  0.987824  0
H  H67  1  0.48358216  0.96082317  0.59076865  1  0.132756  0  0.104628  0.081315  0  1.031661  0
H  H68  1  0.47083309  0.37430708  0.36123587  1  0.112034  0  0.10589  0.07911  0  1.034027  0
H  H69  1  0.44378307  0.25510159  0.41669911  1  0.138363  0  0.110553  0.122664  0  1.005662  0
H  H70  1  0.12103556  0.12924773  0.39438492  1  0.095252  0  0.111876  0.118993  0  0.999385  0
H  H71  1  0.16062231  0.25216961  0.33950787  1  0.085745  0  0.117576  0.088432  0  0.9845  0
H  H72  1  0.60687382  0.52193394  0.41397667  1  0.118247  0  0.100161  0.08305  0  1.047687  0
H  H73  1  0.64301348  0.45108024  0.34666233  1  0.130512  0  0.106644  0.114437  0  1.029736  0
H  H74  1  0.93792278  0.53474576  0.40151521  1  0.13314  0  0.106401  0.123577  0  1.024366  0
H  H75  1  0.88867800  0.59719166  0.46696587  1  0.070984  0  0.111929  0.084827  0  1.003892  0
H  H76  1  0.64129044  0.13537417  0.14737544  1  0.082211  0  0.116257  0.085456  0  0.98808  0
H  H77  1  0.76687023  0.21438357  0.20861668  1  0.130574  0  0.111158  0.123407  0  0.99642  0
H  H78  1  0.61478800  0.38145039  0.24591182  1  0.128646  0  0.108598  0.118315  0  1.014741  0
H  H79  1  0.50291430  0.30435990  0.18110391  1  0.12085  0  0.096729  0.085421  0  1.049814  0
H  H80  1  0.18031137  0.34753399  0.23839875  1  0.124593  0  0.102934  0.083981  0  1.037117  0
H  H81  1  0.00548438  0.33251320  0.23642481  1  0.121045  0  0.107135  0.123125  0  1.019278  0
H  H82  1  0.08035931  0.49232125  0.35922010  1  0.12256  0  0.111312  0.124309  0  1.013468  0
H  H83  1  0.25143425  0.50324570  0.35575066  1  0.098737  0  0.10154  0.092226  0  1.032851  0
H  H84  1  0.79920077  0.71426766  0.05094970  1  0.135944  0  0.102341  0.076376  0  1.038903  0
H  H85  1  0.75830590  0.85311430  0.04065579  1  0.131977  0  0.114619  0.124562  0  0.993214  0
H  H86  1  0.95750766  0.93478984  0.93635735  1  0.118134  0  0.116495  0.127053  0  0.989789  0
H  H87  1  0.99184633  0.79395784  0.95129921  1  0.113854  0  0.112503  0.086445  0  0.996359  0
H  H88  1  0.58452133  0.24190914  0.04669360  1  0.13363  0  0.107865  0.086979  0  1.021799  0
H  H89  1  0.70114092  0.21641511  0.99709287  1  0.157354  0  0.108097  0.132187  0  1.010533  0
H  H90  1  0.59441281  0.92528527  0.04422420  1  0.13001  0  0.115595  0.126218  0  0.987933  0
H  H91  1  0.47818904  0.96082137  0.09090084  1  0.160163  0  0.104974  0.081449  0  1.030964  0
H  H92  1  0.90314443  0.37389474  0.86120481  1  0.108388  0  0.105701  0.07888  0  1.034718  0
H  H93  1  0.81126846  0.25444657  0.91663834  1  0.13989  0  0.110558  0.122465  0  1.006386  0
H  H94  1  0.00917214  0.12974845  0.89422342  1  0.099432  0  0.112021  0.11937  0  0.999001  0
H  H95  1  0.09232510  0.25300288  0.83944078  1  0.100193  0  0.117125  0.087623  0  0.985305  0
H  H96  1  0.91433894  0.52105231  0.91402400  1  0.13504  0  0.100138  0.083067  0  1.047358  0
H  H97  1  0.80729467  0.45018929  0.84673977  1  0.121576  0  0.106486  0.114666  0  1.029968  0
H  H98  1  0.59678814  0.53508393  0.90155066  1  0.155688  0  0.106293  0.123604  0  1.024321  0
H  H99  1  0.70841821  0.59735630  0.96696724  1  0.106783  0  0.112053  0.08488  0  1.003736  0
H  H100  1  0.49397116  0.13505968  0.64735803  1  0.064081  0  0.115947  0.085051  0  0.988077  0
H  H101  1  0.44682452  0.21342681  0.70867460  1  0.141107  0  0.111513  0.124303  0  0.995151  0
H  H102  1  0.76578261  0.38088016  0.74615687  1  0.125022  0  0.108591  0.11866  0  1.015202  0
H  H103  1  0.80112914  0.30425880  0.68131949  1  0.116307  0  0.096903  0.085455  0  1.049065  0
H  H104  1  0.16695751  0.34743203  0.73873396  1  0.135777  0  0.102624  0.083899  0  1.037372  0
H  H105  1  0.32636456  0.33176831  0.73682897  1  0.141531  0  0.107293  0.123143  0  1.018236  0
H  H106  1  0.41206141  0.49295364  0.85935093  1  0.143734  0  0.111147  0.124257  0  1.013732  0
H  H107  1  0.25220158  0.50440077  0.85581996  1  0.144766  0  0.101757  0.09234  0  1.032849  0
C  C108  1  0.15074153  0.88938155  0.05885869  1  1.090111  0  0.264872  0.381342  0  4.000317  0
C  C109  1  0.26811595  0.94400070  0.00847303  1  1.126286  0  0.261957  0.374697  0  4.004893  0
C  C110  1  0.17183788  0.01808983  0.02120227  1  1.115773  0  0.259718  0.371844  0  4.020653  0
C  C111  1  0.16645101  0.23350292  0.97352336  1  0.490871  0  0.045999  0.090532  0  3.936509  0
C  C112  1  0.18900406  0.15757372  0.97941541  1  -0.072409  0  -0.071174  -0.137456  0  3.919957  0
C  C113  1  0.14541213  0.09634981  0.01257707  1  -0.033341  0  0.017268  0.053906  0  3.956887  0
C  C114  1  0.07776612  0.11200403  0.03775816  1  0.047933  0  -0.069669  -0.135757  0  3.916147  0
C  C115  1  0.05908380  0.18948092  0.02972347  1  0.446516  0  0.048587  0.097448  0  3.917482  0
C  C116  1  0.41141188  0.82743758  0.95530906  1  0.453243  0  0.051748  0.098248  0  3.899591  0
C  C117  1  0.34750440  0.84187489  0.98273452  1  -0.035367  0  -0.069525  -0.129016  0  3.896091  0
C  C118  1  0.34288151  0.93094157  0.98263200  1  -0.039548  0  0.018335  0.05631  0  3.932872  0
C  C119  1  0.40651290  0.00422460  0.95616505  1  -0.003831  0  -0.07313  -0.141194  0  3.924741  0
C  C120  1  0.46996712  0.98501688  0.93030969  1  0.428405  0  0.042592  0.082413  0  3.936475  0
C  C121  1  0.07681392  0.68220253  0.13059642  1  0.489936  0  0.049772  0.104418  0  3.89987  0
C  C122  1  0.12673420  0.74744537  0.09990467  1  -0.016567  0  -0.068961  -0.119078  0  3.925148  0
C  C123  1  0.09687294  0.81738493  0.09073254  1  0.005226  0  0.014889  0.051488  0  3.950007  0
C  C124  1  0.01621374  0.81720749  0.11238514  1  0.034068  0  -0.071409  -0.136419  0  3.925711  0
C  C125  1  0.97030092  0.74920114  0.14275441  1  0.445314  0  0.048649  0.090645  0  3.935596  0
C  C126  1  0.37699189  0.55958978  0.16788400  1  1.095729  0  0.261726  0.378128  0  4.013146  0
C  C127  1  0.42141155  0.64818960  0.23133399  1  1.115003  0  0.263781  0.381413  0  3.990843  0
C  C128  1  0.52799113  0.60161673  0.20002553  1  1.11365  0  0.260409  0.373906  0  4.022349  0
C  C129  1  0.15805388  0.47996869  0.08993209  1  0.458811  0  0.04564  0.09568  0  3.907206  0
C  C130  1  0.21712689  0.51856871  0.12703830  1  -0.008812  0  -0.073768  -0.138391  0  3.911682  0
C  C131  1  0.30799090  0.51558279  0.13026182  1  0.002093  0  0.017219  0.055924  0  3.936481  0
C  C132  1  0.33486475  0.47144953  0.09636540  1  -0.006916  0  -0.072888  -0.131003  0  3.910776  0
C  C133  1  0.27242786  0.43581228  0.06037522  1  0.433414  0  0.045464  0.092978  0  3.930993  0
C  C134  1  0.44814991  0.80903305  0.33026972  1  0.477258  0  0.0472  0.093686  0  3.930227  0
C  C135  1  0.47431779  0.76672574  0.29606501  1  -0.023932  0  -0.073398  -0.131015  0  3.938414  0
C  C136  1  0.39724143  0.69717104  0.26759053  1  0.005216  0  0.014786  0.050093  0  3.938838  0
C  C137  1  0.29655306  0.67209040  0.27524733  1  -0.014588  0  -0.070088  -0.128912  0  3.905498  0
C  C138  1  0.27655935  0.71502787  0.31113753  1  0.494606  0  0.045687  0.09699  0  3.903899  0
C  C139  1  0.77606924  0.62198091  0.23538765  1  0.419591  0  0.045945  0.091893  0  3.910841  0
C  C140  1  0.68924286  0.63157571  0.23604309  1  0.030084  0  -0.072255  -0.135924  0  3.909085  0
C  C141  1  0.62080914  0.59194021  0.20124356  1  -0.047887  0  0.01747  0.055505  0  3.936967  0
C  C142  1  0.64071144  0.54095124  0.16773162  1  -0.058676  0  -0.070236  -0.135772  0  3.910274  0
C  C143  1  0.72877279  0.53384877  0.16967543  1  0.468182  0  0.043127  0.083598  0  3.927656  0
C  C144  1  0.73785428  0.88922545  0.55873704  1  1.0835  0  0.265299  0.382733  0  3.996924  0
C  C145  1  0.67509528  0.94394635  0.50842915  1  1.103692  0  0.261987  0.373623  0  4.004809  0
C  C146  1  0.84547333  0.01794604  0.52105368  1  1.134845  0  0.259143  0.370008  0  4.023661  0
C  C147  1  0.06687705  0.23308923  0.47342290  1  0.470499  0  0.046096  0.090372  0  3.936803  0
C  C148  1  0.96824967  0.15726099  0.47923974  1  -0.004437  0  -0.071927  -0.138427  0  3.91907  0
C  C149  1  0.95025315  0.09605851  0.51242572  1  -0.036596  0  0.017801  0.054436  0  3.956813  0
C  C150  1  0.03335271  0.11153772  0.53767361  1  0.01541  0  -0.069279  -0.134402  0  3.914781  0
C  C151  1  0.12965419  0.18884943  0.52969565  1  0.422375  0  0.047705  0.095499  0  3.916618  0
C  C152  1  0.41536121  0.82713753  0.45522497  1  0.450214  0  0.05133  0.097679  0  3.898786  0
C  C153  1  0.49368774  0.84165641  0.48265936  1  -0.003239  0  -0.069215  -0.128889  0  3.895866  0
C  C154  1  0.58727301  0.93087076  0.48262908  1  0.000261  0  0.017619  0.057345  0  3.933199  0
C  C155  1  0.59682849  0.00422983  0.45623405  1  -0.063634  0  -0.072073  -0.142001  0  3.925567  0
C  C156  1  0.51420001  0.98495791  0.43038106  1  0.498126  0  0.042563  0.082879  0  3.935449  0
C  C157  1  0.60521941  0.68198500  0.63054033  1  0.468483  0  0.049296  0.103823  0  3.898965  0
C  C158  1  0.62024139  0.74709450  0.59983190  1  -0.029854  0  -0.068803  -0.119229  0  3.92394  0
C  C159  1  0.71994316  0.81732835  0.59063265  1  0.051573  0  0.014728  0.050483  0  3.951054  0
C  C160  1  0.80060067  0.81754853  0.61228237  1  0.01732  0  -0.071006  -0.134825  0  3.926628  0
C  C161  1  0.77879823  0.74968511  0.64268787  1  0.45778  0  0.048173  0.089049  0  3.935949  0
C  C162  1  0.18266961  0.55916429  0.66800450  1  1.107339  0  0.261965  0.378925  0  4.011103  0
C  C163  1  0.22681291  0.64739159  0.73152729  1  1.059143  0  0.263098  0.379491  0  3.989947  0
C  C164  1  0.07377090  0.60123626  0.70025015  1  1.11416  0  0.261146  0.374685  0  4.020281  0
C  C165  1  0.32187224  0.47931888  0.58997649  1  0.46267  0  0.045733  0.096279  0  3.905255  0
C  C166  1  0.30141717  0.51792976  0.62710053  1  0.01182  0  -0.073608  -0.137727  0  3.910689  0
C  C167  1  0.20768424  0.51525436  0.63032465  1  -0.035518  0  0.016617  0.054587  0  3.936564  0
C  C168  1  0.13683010  0.47147023  0.59640238  1  0.019995  0  -0.072282  -0.130029  0  3.910288  0
C  C169  1  0.16357882  0.43576487  0.56039150  1  0.483499  0  0.045492  0.092953  0  3.930006  0
C  C170  1  0.36075236  0.80863302  0.83031853  1  0.521596  0  0.047054  0.093491  0  3.929153  0
C  C171  1  0.29227629  0.76601298  0.79616190  1  -0.053268  0  -0.072621  -0.129724  0  3.938322  0
C  C172  1  0.29995476  0.69640626  0.76776013  1  -0.027832  0  0.013848  0.049567  0  3.937326  0
C  C173  1  0.37568821  0.67154200  0.77543297  1  -0.008514  0  -0.069803  -0.127657  0  3.90286  0
C  C174  1  0.43860681  0.71476988  0.81130292  1  0.516209  0  0.045636  0.096742  0  3.903418  0
C  C175  1  0.84614267  0.62200999  0.73567683  1  0.441251  0  0.045264  0.091837  0  3.911078  0
C  C176  1  0.94244719  0.63125082  0.73637399  1  -0.003698  0  -0.071991  -0.136158  0  3.907757  0
C  C177  1  0.97137414  0.59182804  0.70151384  1  -0.009459  0  0.01709  0.055995  0  3.934436  0
C  C178  1  0.90067502  0.54138256  0.66791344  1  0.024328  0  -0.071242  -0.136754  0  3.910064  0
C  C179  1  0.80565529  0.53459199  0.66981575  1  0.4702  0  0.044227  0.085156  0  3.92671  0
C  C180  1  0.26214340  0.11077801  0.44126560  1  1.083352  0  0.265369  0.382816  0  3.99676  0
C  C181  1  0.32490022  0.05605936  0.49157418  1  1.103987  0  0.261986  0.373745  0  4.00477  0
C  C182  1  0.15452093  0.98206118  0.47894970  1  1.135093  0  0.259091  0.369978  0  4.023367  0
C  C183  1  0.93311817  0.76691197  0.52657591  1  0.470343  0  0.04612  0.090396  0  3.936501  0
C  C184  1  0.03174253  0.84273946  0.52076155  1  -0.004242  0  -0.07183  -0.138394  0  3.91877  0
C  C185  1  0.04974007  0.90394795  0.48757482  1  -0.036937  0  0.017796  0.054436  0  3.956831  0
C  C186  1  0.96664713  0.88846874  0.46232787  1  0.015357  0  -0.069263  -0.134492  0  3.915076  0
C  C187  1  0.87033725  0.81114952  0.47030433  1  0.422895  0  0.047796  0.095665  0  3.916616  0
C  C188  1  0.58463591  0.17286217  0.54477849  1  0.45024  0  0.051346  0.097788  0  3.898681  0
C  C189  1  0.50630588  0.15834555  0.51734542  1  0.001313  0  -0.069109  -0.128828  0  3.89574  0
C  C190  1  0.41272173  0.06913346  0.51737420  1  0.000189  0  0.017542  0.057164  0  3.93339  0
C  C191  1  0.40316929  0.99576987  0.54376784  1  -0.063116  0  -0.07207  -0.141957  0  3.9258  0
C  C192  1  0.48579561  0.01503878  0.56961791  1  0.497731  0  0.042534  0.082838  0  3.935388  0
C  C193  1  0.39477980  0.31801093  0.36945705  1  0.468529  0  0.049323  0.103797  0  3.898928  0
C  C194  1  0.37975658  0.25290294  0.40016804  1  -0.029884  0  -0.06882  -0.119178  0  3.923944  0
C  C195  1  0.28005774  0.18267360  0.40936837  1  0.051538  0  0.014731  0.050418  0  3.951096  0
C  C196  1  0.19940058  0.18245943  0.38771884  1  0.017193  0  -0.071035  -0.134893  0  3.926693  0
C  C197  1  0.22120172  0.25031759  0.35731286  1  0.457859  0  0.048178  0.089151  0  3.935823  0
C  C198  1  0.81733046  0.44082939  0.33199564  1  1.106065  0  0.261906  0.378893  0  4.010878  0
C  C199  1  0.77318590  0.35260885  0.26847024  1  1.059027  0  0.263077  0.379594  0  3.98982  0
C  C200  1  0.92623096  0.39875967  0.29974598  1  1.114641  0  0.261097  0.374635  0  4.020222  0
C  C201  1  0.67812953  0.52067556  0.41002272  1  0.462434  0  0.045638  0.096258  0  3.905375  0
C  C202  1  0.69858688  0.48206392  0.37289898  1  0.011995  0  -0.073618  -0.137735  0  3.910926  0
C  C203  1  0.79231470  0.48473707  0.36967541  1  -0.034855  0  0.016727  0.054694  0  3.936466  0
C  C204  1  0.86317358  0.52852271  0.40359867  1  0.020714  0  -0.072349  -0.130086  0  3.910498  0
C  C205  1  0.83642504  0.56422580  0.43960697  1  0.482785  0  0.045398  0.092859  0  3.930073  0
C  C206  1  0.63924257  0.19136892  0.16967842  1  0.5217  0  0.047041  0.093403  0  3.92918  0
C  C207  1  0.70772271  0.23399047  0.20383573  1  -0.053367  0  -0.072553  -0.129748  0  3.93838  0
C  C208  1  0.70004547  0.30359569  0.23223776  1  -0.028175  0  0.013823  0.049651  0  3.937245  0
C  C209  1  0.62430824  0.32845769  0.22456579  1  -0.008508  0  -0.069759  -0.127741  0  3.902825  0
C  C210  1  0.56138888  0.28523357  0.18869627  1  0.515724  0  0.045592  0.096693  0  3.903088  0
C  C211  1  0.15385796  0.37798745  0.26432248  1  0.44116  0  0.045384  0.092065  0  3.911055  0
C  C212  1  0.05755476  0.36874661  0.26362407  1  -0.003256  0  -0.072132  -0.136561  0  3.907844  0
C  C213  1  0.02862874  0.40817390  0.29848468  1  -0.009985  0  0.017124  0.056293  0  3.934148  0
C  C214  1  0.09932683  0.45861863  0.33208443  1  0.024581  0  -0.071226  -0.136899  0  3.909999  0
C  C215  1  0.19434788  0.46540920  0.33018242  1  0.47012  0  0.044278  0.085317  0  3.926693  0
C  C216  1  0.84925862  0.11061890  0.94114228  1  1.089463  0  0.2649  0.381451  0  4.000128  0
C  C217  1  0.73188864  0.05600201  0.99152958  1  1.125865  0  0.262024  0.374907  0  4.004663  0
C  C218  1  0.82816633  0.98191212  0.97880031  1  1.115779  0  0.25972  0.371851  0  4.020775  0
C  C219  1  0.83354565  0.76649453  0.02647940  1  0.490731  0  0.045938  0.090535  0  3.936447  0
C  C220  1  0.81099788  0.84242898  0.02058657  1  -0.072137  0  -0.071209  -0.137515  0  3.91989  0
C  C221  1  0.85459001  0.90365064  0.98742516  1  -0.03301  0  0.017316  0.053993  0  3.956953  0
C  C222  1  0.92223318  0.88799342  0.96224272  1  0.047605  0  -0.069622  -0.135797  0  3.916255  0
C  C223  1  0.94091164  0.81051277  0.97027917  1  0.446786  0  0.048595  0.09751  0  3.91743  0
C  C224  1  0.58858827  0.17256287  0.04469098  1  0.453046  0  0.051807  0.098354  0  3.899561  0
C  C225  1  0.65250018  0.15812781  0.01726621  1  -0.035472  0  -0.069523  -0.129057  0  3.8961  0
C  C226  1  0.65712373  0.06906114  0.01736904  1  -0.039187  0  0.018339  0.056276  0  3.932987  0
C  C227  1  0.59348904  0.99577810  0.04383599  1  -0.003751  0  -0.073216  -0.141227  0  3.924733  0
C  C228  1  0.53003170  0.01498357  0.06969098  1  0.428406  0  0.042616  0.082444  0  3.936399  0
C  C229  1  0.92318518  0.31779716  0.86940328  1  0.4899  0  0.049755  0.104336  0  3.899936  0
C  C230  1  0.87326491  0.25255432  0.90009471  1  -0.016288  0  -0.068946  -0.11914  0  3.925153  0
C  C231  1  0.90313014  0.18261476  0.90926685  1  0.005388  0  0.014845  0.05155  0  3.949935  0
C  C232  1  0.98378660  0.18279071  0.88761483  1  0.033978  0  -0.071464  -0.136589  0  3.925949  0
C  C233  1  0.02970018  0.25079856  0.85724529  1  0.44526  0  0.048693  0.090721  0  3.935501  0
C  C234  1  0.62301137  0.44041292  0.83211485  1  1.095697  0  0.261625  0.377954  0  4.013303  0
C  C235  1  0.57859350  0.35181535  0.76866462  1  1.115014  0  0.263757  0.381481  0  3.990753  0
C  C236  1  0.47201409  0.39839122  0.79997381  1  1.113903  0  0.260379  0.374  0  4.021943  0
C  C237  1  0.84194622  0.52001973  0.91006913  1  0.458882  0  0.045646  0.095705  0  3.907574  0
C  C238  1  0.78287545  0.48142422  0.87296212  1  -0.009552  0  -0.073626  -0.138207  0  3.911368  0
C  C239  1  0.69201302  0.48441991  0.86973923  1  0.002149  0  0.017262  0.056016  0  3.9364  0
C  C240  1  0.66514162  0.52855542  0.90363415  1  -0.007527  0  -0.072886  -0.131  0  3.910983  0
C  C241  1  0.72757646  0.56418591  0.93962506  1  0.434471  0  0.045462  0.093091  0  3.930848  0
C  C242  1  0.55184873  0.19096439  0.66972991  1  0.477286  0  0.047179  0.093615  0  3.930206  0
C  C243  1  0.52568141  0.23327546  0.70393568  1  -0.023398  0  -0.073406  -0.130897  0  3.938275  0
C  C244  1  0.60276191  0.30283316  0.73240869  1  0.005184  0  0.014808  0.050023  0  3.938924  0
C  C245  1  0.70344810  0.32791605  0.72475133  1  -0.0152  0  -0.070089  -0.128847  0  3.905404  0
C  C246  1  0.72344154  0.28497408  0.68885973  1  0.494925  0  0.045677  0.097029  0  3.903814  0
C  C247  1  0.22393412  0.37801803  0.76461328  1  0.419438  0  0.045962  0.091926  0  3.910847  0
C  C248  1  0.31076371  0.36842699  0.76395671  1  0.030114  0  -0.072374  -0.136123  0  3.909123  0
C  C249  1  0.37919608  0.40806775  0.79875671  1  -0.048186  0  0.0174  0.055472  0  3.937061  0
C  C250  1  0.35929379  0.45905672  0.83226771  1  -0.058054  0  -0.070152  -0.135711  0  3.910431  0
C  C251  1  0.27123188  0.46615544  0.83032567  1  0.468067  0  0.043106  0.083567  0  3.927862  0
I  I252  1  0.02701701  0.66206323  0.26910050  1  -0.510015  0  -0.257017  -0.419685  0  1.354337  0
I  I253  1  0.93240691  0.42435002  0.16197251  1  -0.497702  0  -0.239736  -0.414943  0  1.390524  0
I  I254  1  0.66489913  0.02259841  0.84718264  1  -0.51179  0  -0.291136  -0.431867  0  1.229561  0
I  I255  1  0.60379112  0.74623587  0.91442038  1  -0.533353  0  -0.285118  -0.436695  0  1.250736  0
I  I256  1  0.22626419  0.48842275  0.94515998  1  -0.520797  0  -0.26862  -0.428531  0  1.351675  0
I  I257  1  0.92365463  0.35176199  0.01776413  1  -0.48154  0  -0.236986  -0.399738  0  1.528923  0
I  I258  1  0.63483939  0.66211852  0.76918219  1  -0.51022  0  -0.257163  -0.419787  0  1.355229  0
I  I259  1  0.49230884  0.42440776  0.66232255  1  -0.498902  0  -0.24047  -0.415605  0  1.388888  0
I  I260  1  0.35776345  0.02257735  0.34705000  1  -0.512652  0  -0.291054  -0.431655  0  1.229611  0
I  I261  1  0.14200324  0.74632577  0.41427247  1  -0.534618  0  -0.285249  -0.436769  0  1.251411  0
I  I262  1  0.26220091  0.48751201  0.44503113  1  -0.519861  0  -0.26881  -0.428635  0  1.351873  0
I  I263  1  0.42838034  0.35180327  0.51785876  1  -0.480534  0  -0.236871  -0.399174  0  1.528429  0
I  I264  1  0.36515247  0.33787065  0.23081593  1  -0.510089  0  -0.257152  -0.419774  0  1.355215  0
I  I265  1  0.50769322  0.57558592  0.33767445  1  -0.498886  0  -0.240468  -0.415577  0  1.388777  0
I  I266  1  0.64222773  0.97741708  0.65294922  1  -0.512676  0  -0.291047  -0.431646  0  1.22964  0
I  I267  1  0.85799397  0.25367543  0.58572790  1  -0.534606  0  -0.285235  -0.436754  0  1.251396  0
I  I268  1  0.73778071  0.51248318  0.55496937  1  -0.519859  0  -0.268799  -0.428641  0  1.351938  0
I  I269  1  0.57161546  0.64819642  0.48213938  1  -0.480405  0  -0.236889  -0.399169  0  1.528297  0
I  I270  1  0.97298054  0.33792143  0.73089966  1  -0.510034  0  -0.257039  -0.419697  0  1.354268  0
I  I271  1  0.06758691  0.57564440  0.83801982  1  -0.497758  0  -0.239719  -0.414916  0  1.390535  0
I  I272  1  0.33509611  0.97739751  0.15280910  1  -0.51178  0  -0.291106  -0.431869  0  1.229628  0
I  I273  1  0.39621373  0.25377134  0.08557799  1  -0.533377  0  -0.285105  -0.436706  0  1.250797  0
I  I274  1  0.77373199  0.51157770  0.05484256  1  -0.520737  0  -0.26858  -0.428493  0  1.351669  0
I  I275  1  0.07634448  0.64823770  0.98223619  1  -0.481699  0  -0.236993  -0.39976  0  1.528887  0
N  N276  1  0.22594157  0.88226098  0.03918841  1  -1.174808  0  -0.29181  -0.378839  0  3.256639  0
N  N277  1  0.24455721  0.01396674  0.99832029  1  -1.198362  0  -0.300294  -0.398929  0  3.211466  0
N  N278  1  0.12048955  0.95572777  0.05086091  1  -1.181393  0  -0.295914  -0.387598  0  3.204137  0
N  N279  1  0.10371286  0.25008849  0.99856644  1  -1.259139  0  -0.326284  -0.195677  0  3.565684  0
N  N280  1  0.47093343  0.89747518  0.92934383  1  -1.253199  0  -0.325953  -0.190303  0  3.568638  0
N  N281  1  0.00036046  0.68315590  0.15194135  1  -1.249737  0  -0.323535  -0.182042  0  3.570541  0
N  N282  1  0.34947686  0.59981317  0.20052488  1  -1.17845  0  -0.29721  -0.387669  0  3.185598  0
N  N283  1  0.51327161  0.65392665  0.23205976  1  -1.182273  0  -0.297136  -0.388809  0  3.217406  0
N  N284  1  0.46433946  0.55701374  0.16650851  1  -1.173898  0  -0.29656  -0.383264  0  3.246729  0
N  N285  1  0.18598235  0.44052161  0.05703100  1  -1.259406  0  -0.325579  -0.187764  0  3.5636  0
N  N286  1  0.35083131  0.78292166  0.33802946  1  -1.255902  0  -0.32452  -0.184932  0  3.559635  0
N  N287  1  0.79622929  0.57511977  0.20255992  1  -1.261853  0  -0.330229  -0.193156  0  3.57346  0
N  N288  1  0.65552246  0.88212512  0.53911973  1  -1.161329  0  -0.29206  -0.379477  0  3.254835  0
N  N289  1  0.76862172  0.01394920  0.49825334  1  -1.207029  0  -0.300554  -0.398436  0  3.210734  0
N  N290  1  0.83443632  0.95553077  0.55067990  1  -1.161991  0  -0.295648  -0.38708  0  3.205615  0
N  N291  1  0.14599283  0.24954986  0.49853106  1  -1.252698  0  -0.324918  -0.194207  0  3.564009  0
N  N292  1  0.42581861  0.89725939  0.42933732  1  -1.26924  0  -0.325915  -0.18993  0  3.567281  0
N  N293  1  0.68279628  0.68334515  0.65189882  1  -1.240812  0  -0.323402  -0.181803  0  3.569241  0
N  N294  1  0.25031694  0.59902879  0.70066400  1  -1.172249  0  -0.296148  -0.385977  0  3.183404  0
N  N295  1  0.14074242  0.65323109  0.73231996  1  -1.1646  0  -0.296968  -0.388145  0  3.217658  0
N  N296  1  0.09287574  0.55685440  0.66665589  1  -1.189466  0  -0.297329  -0.384759  0  3.245987  0
N  N297  1  0.25458877  0.44013149  0.55705615  1  -1.262809  0  -0.32581  -0.18795  0  3.561945  0
N  N298  1  0.43210882  0.78273892  0.83811336  1  -1.259125  0  -0.325345  -0.185592  0  3.559459  0
N  N299  1  0.77937813  0.57569681  0.70276039  1  -1.254745  0  -0.329732  -0.19424  0  3.574164  0
N  N300  1  0.34447172  0.11787533  0.46088218  1  -1.161799  0  -0.292101  -0.379578  0  3.25474  0
N  N301  1  0.23137159  0.98605878  0.50175195  1  -1.206941  0  -0.300503  -0.398363  0  3.210776  0
N  N302  1  0.16556002  0.04447795  0.44932322  1  -1.161994  0  -0.295634  -0.387071  0  3.205486  0
N  N303  1  0.85400153  0.75045358  0.50146500  1  -1.252769  0  -0.325052  -0.194325  0  3.564069  0
N  N304  1  0.57418116  0.10274031  0.57066300  1  -1.269249  0  -0.325989  -0.190096  0  3.567256  0
N  N305  1  0.31720708  0.31665379  0.34810085  1  -1.240884  0  -0.32342  -0.181839  0  3.569249  0
N  N306  1  0.74968161  0.40096714  0.29933339  1  -1.171872  0  -0.296183  -0.386099  0  3.183271  0
N  N307  1  0.85926150  0.34677161  0.26767795  1  -1.164635  0  -0.297031  -0.388268  0  3.217733  0
N  N308  1  0.90712301  0.44313929  0.33334393  1  -1.189392  0  -0.297194  -0.384675  0  3.245879  0
N  N309  1  0.74540989  0.55986069  0.44294393  1  -1.262414  0  -0.325736  -0.18786  0  3.561844  0
N  N310  1  0.56788943  0.21726302  0.16188516  1  -1.259062  0  -0.325325  -0.185469  0  3.559343  0
N  N311  1  0.22062192  0.42430213  0.29723897  1  -1.254799  0  -0.329798  -0.194344  0  3.574167  0
N  N312  1  0.77405990  0.11773947  0.96081382  1  -1.174852  0  -0.291778  -0.37896  0  3.256592  0
N  N313  1  0.75545058  0.98603972  0.00168307  1  -1.198356  0  -0.300409  -0.399112  0  3.211562  0
N  N314  1  0.87951429  0.04427343  0.94914009  1  -1.180805  0  -0.295869  -0.387575  0  3.204067  0
N  N315  1  0.89628002  0.74990670  0.00143530  1  -1.259273  0  -0.326339  -0.195777  0  3.565929  0
N  N316  1  0.52906775  0.10252601  0.07065467  1  -1.253256  0  -0.325988  -0.190412  0  3.568665  0
N  N317  1  0.99963960  0.31684304  0.84805895  1  -1.249632  0  -0.323553  -0.18197  0  3.570493  0
N  N318  1  0.65052611  0.40019028  0.79947399  1  -1.178485  0  -0.297115  -0.387636  0  3.185634  0
N  N319  1  0.48673137  0.34607681  0.76794006  1  -1.181957  0  -0.297184  -0.388957  0  3.21729  0
N  N320  1  0.53566539  0.44299347  0.83349205  1  -1.174332  0  -0.296475  -0.383161  0  3.246365  0
N  N321  1  0.81402077  0.55946756  0.94296930  1  -1.259885  0  -0.325623  -0.18788  0  3.563817  0
N  N322  1  0.64916884  0.21707878  0.66197057  1  -1.256186  0  -0.324492  -0.184909  0  3.559722  0
N  N323  1  0.20377446  0.42487993  0.79744103  1  -1.261432  0  -0.330216  -0.193165  0  3.573347  0
