# generated using pymatgen
data_NiH20C24(NO3)2
_symmetry_space_group_name_H-M   'P 1'
_cell_length_a   7.48641935
_cell_length_b   10.76750480
_cell_length_c   14.24357326
_cell_angle_alpha   106.80982132
_cell_angle_beta   95.74248909
_cell_angle_gamma   105.15764336
_symmetry_Int_Tables_number   1
_chemical_formula_structural   NiH20C24(NO3)2
_chemical_formula_sum   'Ni2 H40 C48 N4 O12'
_cell_volume   1041.52368369
_cell_formula_units_Z   2
loop_
 _symmetry_equiv_pos_site_id
 _symmetry_equiv_pos_as_xyz
  1  'x, y, z'
loop_
 _atom_site_type_symbol
 _atom_site_label
 _atom_site_symmetry_multiplicity
 _atom_site_fract_x
 _atom_site_fract_y
 _atom_site_fract_z
 _atom_site_occupancy
 _atom_site_hle17_ddec_charge
 _atom_site_hle17_ddec_spin_density
 _atom_site_hle17_ddec_sum_bond_order
 _atom_site_hle17_magmom
 _atom_site_hse06_10hf_ddec_charge
 _atom_site_hse06_10hf_ddec_spin_density
 _atom_site_hse06_10hf_ddec_sum_bond_order
 _atom_site_hse06_10hf_magmom
 _atom_site_hse06_ddec_charge
 _atom_site_hse06_ddec_spin_density
 _atom_site_hse06_ddec_sum_bond_order
 _atom_site_hse06_magmom
 _atom_site_pbe_cm5_charge
 _atom_site_pbe_ddec_charge
 _atom_site_pbe_ddec_spin_density
 _atom_site_pbe_ddec_sum_bond_order
 _atom_site_pbe_magmom
Ni  Ni0  1  0.29280075  0.06582721  0.27111872  1  0.650728  0.008933  2.098099  0.004  0.640724  0.025515  2.532862  0.013  0.772422  0.027818  2.426742  0.014  0.591045  0.554669  0.016641  2.605957  0.009
Ni  Ni1  1  0.70720396  0.93416695  0.72887589  1  0.650804  -0.008934  2.098156  -0.004  0.640792  -0.025516  2.532889  -0.013  0.772394  -0.027821  2.426762  -0.014  0.591075  0.554769  -0.016641  2.60599  -0.009
H  H2  1  0.29798801  0.63742723  0.16692862  1  0.374576  6.4e-05  0.918798  0.0  0.350487  9.1e-05  0.987735  0.0  0.362714  7.6e-05  0.974985  0.0  0.295289  0.342009  6.7e-05  0.996289  0.0
H  H3  1  0.70199721  0.36255147  0.83306588  1  0.374571  -6.5e-05  0.918963  0.0  0.350473  -9.1e-05  0.987893  0.0  0.3627  -7.6e-05  0.975142  0.0  0.295265  0.341995  -6.7e-05  0.996449  0.0
H  H4  1  0.94916965  0.31230631  0.07664374  1  0.096661  2.1e-05  0.975323  0.0  0.105674  3.4e-05  1.043675  0.0  0.108496  3.1e-05  1.043489  0.0  0.097675  0.103906  2e-05  1.043604  0.0
H  H5  1  0.05080260  0.68767926  0.92336229  1  0.096603  -2.3e-05  0.975284  0.0  0.105587  -3.4e-05  1.043688  0.0  0.108404  -3.1e-05  1.043526  0.0  0.09767  0.103817  -2e-05  1.043621  0.0
H  H6  1  0.60881203  0.29655904  0.06534210  1  0.07104  6e-06  0.977748  0.0  0.08312  1.5e-05  1.039255  0.0  0.085006  1.5e-05  1.038763  0.0  0.092592  0.081808  1.1e-05  1.039622  0.0
H  H7  1  0.39116226  0.70343464  0.93466936  1  0.071018  -4e-06  0.977868  0.0  0.083102  -1.5e-05  1.039363  0.0  0.084986  -1.5e-05  1.038868  0.0  0.092556  0.081787  -1.1e-05  1.039739  0.0
H  H8  1  0.51224420  0.50603548  0.11907096  1  0.100019  -5e-06  0.989791  0.0  0.108155  -4e-06  1.054774  0.0  0.111785  -3e-06  1.053503  0.0  0.096229  0.105517  -5e-06  1.055898  0.0
H  H9  1  0.48774760  0.49396554  0.88093729  1  0.099878  4e-06  0.989855  0.0  0.108086  4e-06  1.054773  0.0  0.111717  3e-06  1.053501  0.0  0.096198  0.10545  5e-06  1.055895  0.0
H  H10  1  0.75921363  0.73340083  0.18268573  1  0.087523  5.8e-05  0.95832  0.0  0.099637  8e-05  1.018134  0.0  0.102273  7.9e-05  1.015901  0.0  0.100727  0.097953  5.8e-05  1.019376  0.0
H  H11  1  0.24078004  0.26659928  0.81730975  1  0.087519  -5.6e-05  0.958441  0.0  0.099638  -8e-05  1.018235  0.0  0.102271  -7.9e-05  1.016004  0.0  0.10076  0.097954  -5.8e-05  1.019475  0.0
H  H12  1  0.30649182  0.43059432  0.35740418  1  0.109441  3e-05  0.950771  0.0  0.120462  5.7e-05  1.011726  0.0  0.12455  5.2e-05  1.009233  0.0  0.102651  0.117496  4.3e-05  1.013758  0.0
H  H13  1  0.69351772  0.56940797  0.64259879  1  0.10941  -2.9e-05  0.950725  0.0  0.120445  -5.7e-05  1.011671  0.0  0.124532  -5.2e-05  1.00918  0.0  0.102656  0.117477  -4.3e-05  1.013703  0.0
H  H14  1  0.27164523  0.66319865  0.41729034  1  0.072363  0.0  0.971808  0.0  0.082136  -2e-06  1.038195  0.0  0.084221  -3e-06  1.03696  0.0  0.093929  0.080726  -2e-06  1.039057  0.0
H  H15  1  0.72837207  0.33680681  0.58270736  1  0.072386  -1e-06  0.97175  0.0  0.082168  2e-06  1.038121  0.0  0.084244  3e-06  1.036905  0.0  0.093931  0.080759  2e-06  1.038982  0.0
H  H16  1  0.95285328  0.69233614  0.42413131  1  0.077687  -6e-06  0.984408  0.0  0.085157  -1.6e-05  1.054215  0.0  0.087449  -1.2e-05  1.054885  0.0  0.09025  0.083696  -1.3e-05  1.053741  0.0
H  H17  1  0.04716445  0.30767033  0.57586734  1  0.077689  7e-06  0.984337  0.0  0.085176  1.6e-05  1.05413  0.0  0.087471  1.3e-05  1.054798  0.0  0.090262  0.083712  1.3e-05  1.05366  0.0
H  H18  1  0.66908837  0.48667871  0.37021999  1  0.084662  5.8e-05  0.956051  0.0  0.095726  9.5e-05  1.018405  0.0  0.099331  9.2e-05  1.014857  0.0  0.098951  0.093211  6.8e-05  1.02083  0.0
H  H19  1  0.33092784  0.51333382  0.62978207  1  0.084693  -5.8e-05  0.956161  0.0  0.09586  -9.5e-05  1.018386  0.0  0.099463  -9.2e-05  1.014838  0.0  0.09901  0.093323  -6.8e-05  1.020842  0.0
H  H20  1  0.21975657  0.86338854  0.37557988  1  0.081468  -0.000228  0.976107  0.0  0.090431  -0.000304  1.039746  0.0  0.09161  -0.000319  1.038456  0.0  0.119619  0.089381  -0.00021  1.041045  0.0
H  H21  1  0.78018504  0.13660482  0.62442097  1  0.081549  0.000229  0.975999  0.0  0.090451  0.000304  1.039721  0.0  0.091636  0.000318  1.038429  0.0  0.11957  0.089401  0.00021  1.041023  0.0
H  H22  1  0.21816668  0.87065313  0.55127470  1  0.107115  -6.7e-05  0.958842  0.0  0.117516  -8.3e-05  1.017803  0.0  0.119652  -8e-05  1.018429  0.0  0.109391  0.11599  -6e-05  1.017438  0.0
H  H23  1  0.78177917  0.12934737  0.44872865  1  0.107151  6.7e-05  0.95888  0.0  0.117584  8.3e-05  1.017793  0.0  0.119723  8.1e-05  1.018414  0.0  0.109381  0.116058  6e-05  1.017428  0.0
H  H24  1  0.31475314  0.09621821  0.68711064  1  0.115172  -6.6e-05  0.934841  0.0  0.124788  -4.4e-05  0.995046  0.0  0.12766  -4e-05  0.991821  0.0  0.115147  0.122422  -3.3e-05  0.997958  0.0
H  H25  1  0.68526663  0.90378623  0.31289255  1  0.115223  6.6e-05  0.934908  0.0  0.124851  4.4e-05  0.995075  0.0  0.127725  4.1e-05  0.991845  0.0  0.115146  0.122482  3.3e-05  0.997991  0.0
H  H26  1  0.39180988  0.30885604  0.63809255  1  0.10817  -7.7e-05  0.941383  0.0  0.122571  -9.7e-05  0.992497  0.0  0.124839  -9.3e-05  0.992977  0.0  0.113596  0.120833  -7.2e-05  0.992498  0.0
H  H27  1  0.60827059  0.69114609  0.36190921  1  0.107954  7.8e-05  0.941706  0.0  0.122503  9.7e-05  0.992644  0.0  0.124722  9.3e-05  0.993185  0.0  0.113595  0.120765  7.1e-05  0.992646  0.0
H  H28  1  0.37994886  0.28443134  0.45704803  1  0.093237  -0.000249  0.945816  0.0  0.101704  -0.000338  1.007606  0.0  0.103697  -0.000353  1.005467  0.0  0.122992  0.09999  -0.000231  1.009671  0.0
H  H29  1  0.62010184  0.71556333  0.54295288  1  0.093294  0.000248  0.945801  0.0  0.101748  0.000337  1.007623  0.0  0.103748  0.000352  1.00547  0.0  0.122996  0.100032  0.000231  1.009694  0.0
H  H30  1  0.25207260  0.26616716  0.18385444  1  0.097109  -0.000381  0.943666  0.0  0.102931  -0.000556  1.009738  -0.001  0.10402  -0.000586  1.007981  -0.001  0.124576  0.101893  -0.000386  1.011563  0.0
H  H31  1  0.74790970  0.73383074  0.81614708  1  0.09702  0.000382  0.943714  0.001  0.102918  0.000556  1.009706  0.001  0.104009  0.000585  1.007944  0.001  0.124543  0.10188  0.000386  1.011531  0.0
H  H32  1  0.21683104  0.28395021  0.01270302  1  0.114341  -7.6e-05  0.956647  0.0  0.122726  -8.9e-05  1.01838  0.0  0.12497  -8.2e-05  1.018865  0.0  0.111906  0.121138  -7.6e-05  1.018126  0.0
H  H33  1  0.78315204  0.71606290  0.98730337  1  0.114324  7.5e-05  0.956687  0.0  0.122707  8.9e-05  1.018404  0.0  0.124951  8.2e-05  1.018892  0.0  0.111908  0.121122  7.6e-05  1.018149  0.0
H  H34  1  0.21941407  0.08379436  0.86745384  1  0.107643  -8e-05  0.94148  0.0  0.118834  -5.5e-05  0.999903  0.0  0.121423  -4.3e-05  0.997158  0.0  0.113128  0.116813  -4.4e-05  1.002156  0.0
H  H35  1  0.78055907  0.91622476  0.13254575  1  0.10749  8.1e-05  0.94143  0.0  0.118757  5.5e-05  0.999792  0.0  0.121343  4.3e-05  0.997046  0.0  0.113113  0.116736  4.4e-05  1.002049  0.0
H  H36  1  0.27103442  0.88057038  0.90249305  1  0.109891  -8.9e-05  0.962604  0.0  0.118786  -0.00011  1.022944  0.0  0.120789  -0.000104  1.023616  0.0  0.109284  0.117492  -8.4e-05  1.022351  0.0
H  H37  1  0.72896575  0.11945014  0.09749748  1  0.109954  8.9e-05  0.962631  0.0  0.118795  0.00011  1.023037  0.0  0.120798  0.000104  1.02371  0.0  0.109253  0.1175  8.4e-05  1.022441  0.0
H  H38  1  0.30908146  0.87959873  0.07964586  1  0.091262  -0.00033  0.962232  0.0  0.098967  -0.000473  1.026145  -0.001  0.099791  -0.000507  1.025168  -0.001  0.121501  0.098257  -0.000317  1.027153  0.0
H  H39  1  0.69092669  0.12041176  0.92034064  1  0.091258  0.000331  0.962331  0.0  0.098963  0.000473  1.026264  0.001  0.099786  0.000506  1.025289  0.001  0.121487  0.09823  0.000317  1.0273  0.0
H  H40  1  0.89544680  0.13959863  0.27846344  1  0.374799  7.2e-05  0.916798  0.0  0.35192  8.3e-05  0.984261  0.0  0.364663  8.4e-05  0.971396  0.0  0.299089  0.343186  6e-05  0.992876  0.0
H  H41  1  0.10456786  0.86040569  0.72154793  1  0.374875  -7.2e-05  0.916699  0.0  0.351968  -8.3e-05  0.984216  0.0  0.364705  -8.5e-05  0.971354  0.0  0.299086  0.343236  -6e-05  0.99283  0.0
C  C42  1  0.13997794  0.78444128  0.19999217  1  0.613299  5.4e-05  3.897392  0.0  0.570294  0.000689  4.198767  0.0  0.609949  0.000697  4.193804  0.0  0.199349  0.542954  0.000473  4.200933  0.0
C  C43  1  0.86002150  0.21554676  0.79999732  1  0.613351  -5.3e-05  3.897281  0.0  0.570394  -0.000688  4.198641  0.0  0.610043  -0.000694  4.193682  0.0  0.199493  0.543053  -0.000472  4.200799  0.0
C  C44  1  0.99098202  0.65149353  0.16396251  1  -0.229775  0.00018  3.783981  0.0  -0.210309  -8e-06  4.019819  0.0  -0.226133  9.8e-05  4.043339  0.0  -0.044825  -0.199807  -6.3e-05  4.00389  0.0
C  C45  1  0.00900809  0.34849739  0.83603426  1  -0.229561  -0.000158  3.783869  0.0  -0.210213  7e-06  4.01986  0.0  -0.22604  -0.0001  4.043385  0.0  -0.044724  -0.1997  6.3e-05  4.003912  0.0
C  C46  1  0.04448584  0.53054562  0.13451803  1  0.343824  0.000131  3.800872  0.0  0.330815  0.000236  4.05638  0.0  0.345322  0.000229  4.073103  0.0  0.091951  0.320998  0.000167  4.044968  0.0
C  C47  1  0.95549529  0.46943907  0.86548326  1  0.34364  -0.000152  3.801421  0.0  0.330686  -0.000235  4.056904  0.0  0.345195  -0.000227  4.073627  0.0  0.091911  0.320866  -0.000167  4.04549  0.0
C  C48  1  0.90486968  0.40341513  0.09916297  1  -0.19759  -1e-05  3.731265  0.0  -0.2183  -4.8e-05  3.988369  0.0  -0.226991  -2.8e-05  4.009018  0.0  -0.11105  -0.212742  -4.1e-05  3.974283  0.0
C  C49  1  0.09510727  0.59657256  0.90083882  1  -0.197352  4.3e-05  3.731535  0.0  -0.218056  4.7e-05  3.988626  0.0  -0.226755  2.9e-05  4.009268  0.0  -0.111012  -0.212498  4.1e-05  3.97454  0.0
C  C50  1  0.71628413  0.39582517  0.09348753  1  -0.015269  -7.9e-05  3.778515  0.0  -0.033756  -2e-06  4.034006  0.0  -0.029009  -1.9e-05  4.052025  0.0  -0.087859  -0.036459  4e-06  4.021337  0.0
C  C51  1  0.28369260  0.60416859  0.90651632  1  -0.015223  4.5e-05  3.778572  0.0  -0.033697  3e-06  4.03409  0.0  -0.028943  1.9e-05  4.052103  0.0  -0.087773  -0.036399  -4e-06  4.021422  0.0
C  C52  1  0.66100456  0.51397649  0.12362057  1  -0.120515  1.6e-05  3.779484  0.0  -0.137611  -1.1e-05  4.038697  0.0  -0.144762  -2e-06  4.060024  0.0  -0.112522  -0.132841  -9e-06  4.024042  0.0
C  C53  1  0.33898551  0.48602047  0.87638388  1  -0.120552  1.7e-05  3.779542  0.0  -0.137724  1.2e-05  4.038759  0.0  -0.144876  4e-06  4.060087  0.0  -0.112573  -0.132953  9e-06  4.024103  0.0
C  C54  1  0.79846973  0.64018203  0.15848234  1  -0.040401  1.3e-05  3.768098  0.0  -0.063886  0.000173  4.018815  0.0  -0.058543  0.00016  4.037381  0.0  -0.088314  -0.067061  0.000127  4.005537  0.0
C  C55  1  0.20152240  0.35981399  0.84151496  1  -0.040332  -4.6e-05  3.768011  0.0  -0.063771  -0.000174  4.018756  0.0  -0.05843  -0.000161  4.03733  0.0  -0.088329  -0.066951  -0.000127  4.005482  0.0
C  C56  1  0.66070123  0.22218997  0.30180653  1  0.625939  0.000121  3.881843  0.0  0.580466  0.000722  4.182809  0.0  0.620874  0.000735  4.177367  0.0  0.20408  0.552593  0.00048  4.185311  0.0
C  C57  1  0.33930457  0.77781331  0.69819370  1  0.625928  -0.00012  3.88173  0.0  0.58045  -0.000722  4.182696  0.0  0.620853  -0.000728  4.177254  0.0  0.204106  0.55258  -0.00048  4.185202  0.0
C  C58  1  0.82658874  0.34528004  0.33435934  1  -0.233215  -5.6e-05  3.800714  0.0  -0.211452  -0.000281  4.031619  -0.001  -0.226588  -0.000138  4.054054  0.0  -0.044954  -0.201324  -0.000285  4.016364  0.0
C  C59  1  0.17341890  0.65472425  0.66564330  1  -0.23307  4.8e-05  3.800652  0.0  -0.211304  0.000282  4.031634  0.001  -0.226437  0.000138  4.054071  0.0  -0.044969  -0.201179  0.000285  4.016375  0.0
C  C60  1  0.00878163  0.32968896  0.33105869  1  0.337493  8.6e-05  3.800491  0.0  0.325508  7.5e-05  4.056968  0.0  0.339913  8.2e-05  4.073247  0.0  0.089165  0.316122  4.1e-05  4.045378  0.0
C  C61  1  0.99122834  0.67031736  0.66894942  1  0.337264  -7.6e-05  3.800604  0.0  0.325191  -7.6e-05  4.05725  0.0  0.339591  -8.4e-05  4.073531  0.0  0.088997  0.315808  -4.1e-05  4.045661  0.0
C  C62  1  0.16820641  0.44511641  0.36124332  1  -0.20346  -3e-05  3.730569  0.0  -0.22309  -3.6e-05  3.985003  0.0  -0.231805  -5e-06  4.004211  0.0  -0.111055  -0.217368  -4.3e-05  3.971924  0.0
C  C63  1  0.83180399  0.55488790  0.63876155  1  -0.203259  1.7e-05  3.730404  0.0  -0.222846  3.6e-05  3.984843  0.0  -0.231558  7e-06  4.004047  0.0  -0.11093  -0.217127  4.3e-05  3.971767  0.0
C  C64  1  0.14685122  0.57407207  0.39431833  1  -0.01591  -3e-05  3.778771  0.0  -0.033661  7e-06  4.035023  0.0  -0.028854  -1.3e-05  4.053267  0.0  -0.086581  -0.036429  1.4e-05  4.022163  0.0
C  C65  1  0.85316651  0.42593440  0.60568031  1  -0.016165  4.2e-05  3.778746  0.0  -0.033927  -7e-06  4.035074  0.0  -0.029126  1.2e-05  4.053325  0.0  -0.086705  -0.036691  -1.4e-05  4.022202  0.0
C  C66  1  0.96801404  0.59081908  0.39813859  1  -0.114526  -5e-06  3.797022  0.0  -0.13257  -1.7e-05  4.060286  0.0  -0.139739  -1e-06  4.084165  0.0  -0.110558  -0.12786  -1.6e-05  4.043825  0.0
C  C67  1  0.03200371  0.40918739  0.60186076  1  -0.114254  -3e-06  3.79669  0.0  -0.132321  1.6e-05  4.059955  0.0  -0.139491  1e-06  4.083833  0.0  -0.110486  -0.127608  1.6e-05  4.04348  0.0
C  C68  1  0.80995428  0.47686845  0.36835186  1  -0.027146  5e-05  3.776849  0.0  -0.051044  0.000172  4.025056  0.0  -0.045458  0.000161  4.043106  0.0  -0.083425  -0.054743  0.000138  4.012839  0.0
C  C69  1  0.19005897  0.52313998  0.63164985  1  -0.027359  -4.1e-05  3.776956  0.0  -0.051308  -0.000171  4.025141  0.0  -0.045722  -0.00016  4.043191  0.0  -0.083462  -0.054993  -0.000138  4.012932  0.0
C  C70  1  0.25437783  0.95986641  0.43544716  1  0.115031  0.001283  3.683038  0.001  0.086213  2.7e-05  3.931903  0.0  0.097463  0.000382  3.953444  0.0  0.046396  0.078083  -0.000106  3.918399  0.0
C  C71  1  0.74560230  0.04012944  0.56455380  1  0.115101  -0.001284  3.683157  -0.001  0.086298  -2.7e-05  3.932061  0.0  0.097539  -0.000379  3.953606  0.0  0.046517  0.078168  0.000106  3.918554  0.0
C  C72  1  0.25489919  0.96501206  0.53394089  1  -0.114904  -0.001469  3.725834  -0.001  -0.127553  -0.000689  3.975558  -0.001  -0.136349  -0.000875  3.996822  -0.001  -0.082586  -0.121844  -0.000426  3.962144  0.0
C  C73  1  0.74507947  0.03498682  0.46606069  1  -0.115086  0.001468  3.726005  0.001  -0.127757  0.000689  3.975744  0.001  -0.136559  0.000871  3.997013  0.001  -0.082625  -0.122045  0.000426  3.962329  0.0
C  C74  1  0.30618786  0.09086790  0.60929643  1  0.020292  0.001583  3.679443  0.001  -0.004753  0.000378  3.933773  0.0  0.003413  0.000671  3.947302  0.001  -0.057362  -0.011356  0.000165  3.926206  0.0
C  C75  1  0.69383163  0.90913248  0.39070584  1  0.020237  -0.00158  3.679251  -0.001  -0.004819  -0.000378  3.933601  0.0  0.00334  -0.000668  3.94714  -0.001  -0.057351  -0.01142  -0.000165  3.926029  0.0
C  C76  1  0.35127775  0.20800911  0.58198841  1  -0.127961  -0.001513  3.743378  -0.001  -0.1352  -0.000798  3.988179  -0.001  -0.143601  -0.00099  4.007712  -0.001  -0.079994  -0.129816  -0.000499  3.976037  -0.001
C  C77  1  0.64877503  0.79199065  0.41801444  1  -0.127673  0.001511  3.743193  0.001  -0.135016  0.000798  3.987994  0.001  -0.143382  0.000987  4.007546  0.001  -0.080013  -0.129633  0.000499  3.97585  0.001
C  C78  1  0.34538068  0.19582450  0.48169993  1  0.113048  0.001066  3.665866  0.001  0.084142  -0.000261  3.915411  0.0  0.095357  6.8e-05  3.935338  0.0  0.046789  0.076022  -0.000294  3.903016  0.0
C  C79  1  0.65465832  0.80417104  0.51830138  1  0.112975  -0.001064  3.665818  -0.001  0.08404  0.000261  3.915427  0.0  0.095255  -6.4e-05  3.93534  0.0  0.046778  0.075922  0.000294  3.903035  0.0
C  C80  1  0.25402405  0.18289951  0.11932807  1  0.117681  0.001035  3.651952  0.001  0.087639  -0.000268  3.90429  0.0  0.09848  0.000145  3.925014  0.001  0.050551  0.079854  -0.000352  3.891272  0.0
C  C81  1  0.74595974  0.81710249  0.88067022  1  0.117778  -0.001057  3.65195  -0.001  0.08765  0.000268  3.904341  0.0  0.098488  -0.000142  3.925063  -0.001  0.050603  0.079866  0.000352  3.891326  0.0
C  C82  1  0.23326871  0.19111413  0.02342012  1  -0.12546  -0.001846  3.72847  -0.002  -0.133595  -0.001307  3.975701  -0.001  -0.14148  -0.001545  3.995722  -0.002  -0.079765  -0.128532  -0.000812  3.962751  -0.001
C  C83  1  0.76671527  0.80889497  0.97658049  1  -0.125524  0.001865  3.728593  0.002  -0.133611  0.001307  3.975844  0.001  -0.141496  0.001544  3.995864  0.002  -0.079784  -0.128551  0.000812  3.962899  0.001
C  C84  1  0.23655906  0.08098475  0.94347689  1  0.013827  0.001512  3.6834  0.001  -0.009485  0.000563  3.932757  0.0  -0.002942  0.000883  3.948186  0.001  -0.06063  -0.014387  0.000269  3.923088  0.0
C  C85  1  0.76342897  0.91903152  0.05652059  1  0.014094  -0.00153  3.682986  -0.001  -0.009302  -0.000562  3.932362  0.0  -0.002751  -0.000879  3.947784  -0.001  -0.060641  -0.014207  -0.000269  3.922696  0.0
C  C86  1  0.26330407  0.96687506  0.96280909  1  -0.124263  -0.001783  3.746612  -0.002  -0.135382  -0.001214  3.99745  -0.001  -0.143861  -0.001443  4.019511  -0.001  -0.083984  -0.129791  -0.000759  3.982848  -0.001
C  C87  1  0.73668798  0.03313825  0.03718368  1  -0.124486  0.001803  3.746468  0.002  -0.135585  0.001214  3.997399  0.001  -0.144068  0.001441  4.01946  0.001  -0.083978  -0.129988  0.000759  3.982784  0.001
C  C88  1  0.28362797  0.96496765  0.06032930  1  0.1103  0.001194  3.669319  0.001  0.080516  4e-05  3.921365  0.0  0.091146  0.000458  3.943375  0.001  0.047189  0.073052  -0.000124  3.907024  0.0
C  C89  1  0.71637187  0.03504170  0.93966221  1  0.110331  -0.001215  3.66937  -0.001  0.080532  -3.9e-05  3.921388  0.0  0.09116  -0.000453  3.943396  -0.001  0.047209  0.073085  0.000124  3.907053  0.0
N  N90  1  0.29944888  0.07336446  0.40887586  1  -0.249379  -0.009965  3.344728  -0.009  -0.200561  -0.009448  3.634012  -0.007  -0.241683  -0.01055  3.656709  -0.008  -0.330174  -0.174052  -0.006139  3.620241  -0.005
N  N91  1  0.70055324  0.92662964  0.59112214  1  -0.249476  0.009968  3.345095  0.009  -0.200627  0.009449  3.634374  0.007  -0.24173  0.010545  3.657043  0.007  -0.330201  -0.174126  0.006138  3.620616  0.005
N  N92  1  0.27706927  0.07089458  0.13736327  1  -0.236628  -0.012547  3.361367  -0.012  -0.188497  -0.012262  3.649494  -0.011  -0.231342  -0.013494  3.675388  -0.011  -0.332847  -0.160655  -0.007879  3.633068  -0.007
N  N93  1  0.72292519  0.92910757  0.86263200  1  -0.236515  0.012566  3.361176  0.012  -0.188397  0.012259  3.649382  0.011  -0.231217  0.013486  3.675248  0.011  -0.332815  -0.160564  0.007875  3.632953  0.007
O  O94  1  0.08883108  0.89417807  0.22512146  1  -0.548319  0.012712  2.061185  0.013  -0.525356  0.011976  2.348115  0.012  -0.57918  0.012755  2.341749  0.012  -0.299916  -0.486337  0.008006  2.35059  0.008
O  O95  1  0.91118037  0.10581617  0.77487345  1  -0.548375  -0.012715  2.061225  -0.013  -0.525417  -0.011976  2.34814  -0.012  -0.579213  -0.012758  2.341745  -0.012  -0.29994  -0.486422  -0.008004  2.350659  -0.008
O  O96  1  0.31261054  0.78804152  0.20606465  1  -0.603217  -0.000731  1.950561  -0.001  -0.561104  -0.000685  2.176234  -0.001  -0.587796  -0.000672  2.164774  -0.001  -0.312449  -0.542742  -0.000444  2.184196  -0.001
O  O97  1  0.68738674  0.21193842  0.79391591  1  -0.603338  0.000734  1.950554  0.001  -0.561215  0.000686  2.17625  0.001  -0.5879  0.000674  2.164784  0.001  -0.312622  -0.54285  0.000444  2.184212  0.001
O  O98  1  0.22660762  0.53470060  0.13968043  1  -0.527932  -9.4e-05  2.114772  0.0  -0.478119  -4.6e-05  2.326655  0.0  -0.499308  -3.3e-05  2.319333  0.0  -0.352286  -0.462961  -8e-06  2.331219  0.0
O  O99  1  0.77337150  0.46527900  0.86032103  1  -0.527931  9.1e-05  2.11498  0.0  -0.478127  4.6e-05  2.326899  0.0  -0.499315  3e-05  2.319573  0.0  -0.352289  -0.46297  8e-06  2.33147  0.0
O  O100  1  0.49711790  0.23738563  0.31364397  1  -0.548764  0.012131  2.091519  0.012  -0.523327  0.012028  2.379834  0.012  -0.578226  0.012921  2.374659  0.012  -0.292641  -0.483508  0.008113  2.381271  0.008
O  O101  1  0.50288581  0.76261255  0.68635361  1  -0.548775  -0.012132  2.091386  -0.012  -0.52332  -0.012028  2.379726  -0.012  -0.578202  -0.012922  2.374539  -0.012  -0.292662  -0.483506  -0.008111  2.381163  -0.008
O  O102  1  0.68256407  0.10567022  0.26442322  1  -0.601403  -0.001181  1.996973  -0.002  -0.5595  -0.001351  2.233966  -0.002  -0.586924  -0.001345  2.222482  -0.002  -0.303321  -0.54065  -0.001028  2.24209  -0.001
O  O103  1  0.31744793  0.89433516  0.73557704  1  -0.601457  0.001181  1.996901  0.002  -0.559567  0.001353  2.233942  0.002  -0.586983  0.001346  2.222453  0.002  -0.30337  -0.540721  0.001028  2.242069  0.001
O  O104  1  0.03130225  0.20478421  0.29935037  1  -0.52963  -0.001185  2.141445  -0.001  -0.489954  -0.002226  2.374222  -0.001  -0.512698  -0.002399  2.358968  -0.002  -0.345944  -0.474813  -0.001501  2.385439  -0.001
O  O105  1  0.96871099  0.79522313  0.70066303  1  -0.529571  0.001186  2.141482  0.001  -0.48987  0.002226  2.374339  0.001  -0.512602  0.0024  2.359081  0.002  -0.345811  -0.474716  0.0015  2.385527  0.001
