# generated using pymatgen
data_CoH12C12(NCl)2
_symmetry_space_group_name_H-M   'P 1'
_cell_length_a   5.35175376
_cell_length_b   8.86031753
_cell_length_c   13.61174881
_cell_angle_alpha   84.95692626
_cell_angle_beta   82.80181604
_cell_angle_gamma   83.35173448
_symmetry_Int_Tables_number   1
_chemical_formula_structural   CoH12C12(NCl)2
_chemical_formula_sum   'Co2 H24 C24 N4 Cl4'
_cell_volume   634.28542775
_cell_formula_units_Z   2
loop_
 _symmetry_equiv_pos_site_id
 _symmetry_equiv_pos_as_xyz
  1  'x, y, z'
loop_
 _atom_site_type_symbol
 _atom_site_label
 _atom_site_symmetry_multiplicity
 _atom_site_fract_x
 _atom_site_fract_y
 _atom_site_fract_z
 _atom_site_occupancy
 _atom_site_pbe_cm5_charge
 _atom_site_pbe_ddec_charge
 _atom_site_pbe_ddec_spin_density
 _atom_site_pbe_ddec_sum_bond_order
 _atom_site_pbe_magmom
Co  Co0  1  0.85968778  0.53740308  0.74222413  1  0.542912  0.641902  -2.738483  2.828518  -2.426
Co  Co1  1  0.14031970  0.46259126  0.25777726  1  0.542938  0.641905  -2.738477  2.828489  -2.426
H  H2  1  0.44518897  0.52501045  0.61710375  1  0.105416  0.074336  -0.001278  1.044505  -0.002
H  H3  1  0.55481114  0.47499413  0.38289829  1  0.105436  0.074386  -0.001278  1.044474  -0.002
H  H4  1  0.26463719  0.32726395  0.53836648  1  0.097992  0.118404  -0.000428  1.032663  -0.001
H  H5  1  0.73535982  0.67274876  0.46163171  1  0.097979  0.11836  -0.000428  1.032709  -0.001
H  H6  1  0.80633777  0.99197583  0.66673044  1  0.096005  0.111904  -0.000418  1.041102  -0.001
H  H7  1  0.19364928  0.00803040  0.33326109  1  0.09598  0.111861  -0.000418  1.041028  -0.001
H  H8  1  0.97181257  0.20656921  0.74002051  1  0.104948  0.074477  -0.001034  1.042562  -0.001
H  H9  1  0.02817837  0.79342298  0.25998021  1  0.10496  0.074466  -0.001034  1.042647  -0.001
H  H10  1  0.22179779  0.05287564  0.53496963  1  0.090831  0.100538  -0.000452  1.003076  0.0
H  H11  1  0.77819704  0.94714089  0.46501895  1  0.09087  0.100631  -0.000452  1.002944  0.0
H  H12  1  0.41993961  0.91377894  0.59918599  1  0.089176  0.093836  -0.000192  1.021745  0.0
H  H13  1  0.58003441  0.08622617  0.40080689  1  0.089186  0.093918  -0.000192  1.021843  0.0
H  H14  1  0.39339045  0.73904979  0.71341600  1  0.104963  0.072633  -0.001297  1.057852  -0.002
H  H15  1  0.60662244  0.26094558  0.28658731  1  0.104963  0.072644  -0.001297  1.057927  -0.002
H  H16  1  0.06160514  0.89109396  0.81499724  1  0.107049  0.118917  -0.000345  1.000762  0.0
H  H17  1  0.93840075  0.10889798  0.18500725  1  0.107065  0.118964  -0.000345  1.0007  0.0
H  H18  1  0.45437354  0.73383562  0.07017884  1  0.102006  0.119619  -0.00113  1.017715  -0.001
H  H19  1  0.54564276  0.26616204  0.92982351  1  0.102031  0.119662  -0.00113  1.017778  -0.001
H  H20  1  0.77564012  0.58834020  0.95699874  1  0.103786  0.081289  -0.001349  1.047521  -0.001
H  H21  1  0.22436428  0.41166088  0.04300472  1  0.103765  0.081258  -0.001349  1.047422  -0.001
H  H22  1  0.85438087  0.85950833  0.02629965  1  0.091218  0.100996  -0.000239  1.016635  0.0
H  H23  1  0.14562848  0.14048597  0.97370239  1  0.091221  0.101016  -0.000239  1.016569  0.0
H  H24  1  0.08691853  0.90867426  0.09395868  1  0.091913  0.090765  -6.7e-05  1.009675  0.0
H  H25  1  0.91308296  0.09132103  0.90604808  1  0.091942  0.090757  -6.7e-05  1.009739  0.0
C  C26  1  0.52263295  0.40601075  0.62641691  1  0.044416  0.100236  -0.001264  3.953885  -0.001
C  C27  1  0.47735588  0.59399391  0.37358489  1  0.044427  0.100233  -0.001264  3.953775  -0.001
C  C28  1  0.42079463  0.29463570  0.58299976  1  -0.085024  -0.179601  -0.003383  3.920941  -0.005
C  C29  1  0.57919897  0.70537472  0.41699941  1  -0.085024  -0.179597  -0.003383  3.920729  -0.005
C  C30  1  0.51864502  0.14185157  0.59704121  1  0.015219  0.178483  0.001077  3.916588  0.001
C  C31  1  0.48133670  0.85816231  0.40295834  1  0.015248  0.178637  0.001077  3.916225  0.001
C  C32  1  0.72036388  0.10907995  0.65483126  1  -0.090368  -0.186037  -0.002263  3.933391  -0.003
C  C33  1  0.27962750  0.89092284  0.34516022  1  -0.09037  -0.186017  -0.002263  3.933139  -0.003
C  C34  1  0.81376039  0.22641675  0.69539077  1  0.037575  0.087114  -0.001417  3.956353  -0.002
C  C35  1  0.18623902  0.77358248  0.30460343  1  0.037524  0.087112  -0.001418  3.956295  -0.002
C  C36  1  0.41857196  0.01830942  0.54942537  1  -0.15697  -0.191478  -0.000826  3.909432  -0.001
C  C37  1  0.58141594  0.98170237  0.45056885  1  -0.157049  -0.191891  -0.000826  3.909706  -0.001
C  C38  1  0.40438540  0.74327178  0.79246172  1  0.039804  0.086359  -0.000888  3.985416  -0.001
C  C39  1  0.59561825  0.25672248  0.20754205  1  0.039876  0.086399  -0.000889  3.985434  -0.001
C  C40  1  0.21805287  0.82848818  0.85044757  1  -0.084825  -0.177801  -0.003079  3.927856  -0.005
C  C41  1  0.78194834  0.17149812  0.14955661  1  -0.084916  -0.1779  -0.003079  3.927937  -0.005
C  C42  1  0.22935499  0.82889332  0.95279577  1  0.014865  0.177741  0.002339  3.913718  0.002
C  C43  1  0.77065938  0.17110428  0.04720813  1  0.014831  0.177679  0.002338  3.913775  0.002
C  C44  1  0.43429586  0.74063938  0.99109210  1  -0.085297  -0.18005  -0.002689  3.921509  -0.004
C  C45  1  0.56571008  0.25935263  0.00891092  1  -0.085327  -0.180163  -0.002689  3.921572  -0.004
C  C46  1  0.61506231  0.65816126  0.92863228  1  0.04278  0.098336  -0.00131  3.93108  -0.002
C  C47  1  0.38494925  0.34184208  0.07137079  1  0.042799  0.098388  -0.001311  3.93083  -0.002
C  C48  1  0.02877226  0.91644416  0.01902639  1  -0.158745  -0.194989  -0.000563  3.941056  -0.001
C  C49  1  0.97124136  0.08354661  0.98097780  1  -0.158798  -0.194983  -0.000564  3.941064  -0.001
N  N50  1  0.71640869  0.37356095  0.68204429  1  -0.346556  -0.240539  -0.040026  3.666071  -0.052
N  N51  1  0.28358564  0.62643350  0.31795620  1  -0.346569  -0.240575  -0.040025  3.665935  -0.052
N  N52  1  0.60185423  0.65930072  0.83018432  1  -0.349783  -0.241321  -0.039958  3.675826  -0.053
N  N53  1  0.39815093  0.34069581  0.16981929  1  -0.349755  -0.241231  -0.039957  3.67564  -0.053
Cl  Cl54  1  0.98772873  0.70179247  0.61753312  1  -0.284944  -0.471384  -0.077479  1.244283  -0.096
Cl  Cl55  1  0.01227025  0.29820756  0.38246916  1  -0.284941  -0.471401  -0.077483  1.244334  -0.096
Cl  Cl56  1  0.13097348  0.41680405  0.84047804  1  -0.280336  -0.464611  -0.08156  1.317251  -0.102
Cl  Cl57  1  0.86903629  0.58318804  0.15952260  1  -0.28032  -0.464592  -0.081562  1.317187  -0.102
