# generated using pymatgen
data_Zn2H10C39(I3O14)2
_symmetry_space_group_name_H-M   'P 1'
_cell_length_a   12.23533823
_cell_length_b   12.08865998
_cell_length_c   23.32771225
_cell_angle_alpha   93.05823243
_cell_angle_beta   88.03264838
_cell_angle_gamma   89.65071317
_symmetry_Int_Tables_number   1
_chemical_formula_structural   Zn2H10C39(I3O14)2
_chemical_formula_sum   'Zn4 H20 C78 I12 O56'
_cell_volume   3443.32144373
_cell_formula_units_Z   2
loop_
 _symmetry_equiv_pos_site_id
 _symmetry_equiv_pos_as_xyz
  1  'x, y, z'
loop_
 _atom_site_type_symbol
 _atom_site_label
 _atom_site_symmetry_multiplicity
 _atom_site_fract_x
 _atom_site_fract_y
 _atom_site_fract_z
 _atom_site_occupancy
 _atom_site_pbe_bader_charge
 _atom_site_pbe_bader_spin_density
 _atom_site_pbe_cm5_charge
 _atom_site_pbe_ddec_charge
 _atom_site_pbe_ddec_spin_density
 _atom_site_pbe_ddec_sum_bond_order
 _atom_site_pbe_magmom
Zn  Zn0  1  0.51255164  0.89235993  0.48963743  1  1.328057  0  0.738294  0.970303  0  2.1551  0
Zn  Zn1  1  0.49432209  0.11926016  0.50876443  1  1.329283  0  0.743311  0.98971  0  2.080138  0
Zn  Zn2  1  0.10446588  0.49158460  0.98939977  1  1.32525  0  0.750153  0.994738  0  2.076691  0
Zn  Zn3  1  0.88311094  0.49404636  0.00916790  1  1.312077  0  0.735027  0.968471  0  2.105494  0
H  H4  1  0.33338345  0.82825814  0.74182612  1  0.624447  0  0.344806  0.389024  0  0.836881  0
H  H5  1  0.19502918  0.67457120  0.43343902  1  0.611224  0  0.349626  0.392841  0  0.834844  0
H  H6  1  0.31609907  0.58868728  0.84019326  1  0.615517  0  0.357832  0.39429  0  0.82535  0
H  H7  1  0.76993672  0.45735401  0.15566931  1  0.63738  0  0.355996  0.392341  0  0.82654  0
H  H8  1  0.81202632  0.51215589  0.83406055  1  0.60915  0  0.284454  0.30931  0  1.016557  0
H  H9  1  0.11159985  0.46530989  0.17491921  1  0.603208  0  0.329415  0.361632  0  0.888807  0
H  H10  1  0.94440979  0.12534239  0.02821092  1  0.676736  0  0.31392  0.385306  0  0.942179  0
H  H11  1  0.96877649  0.87150820  0.97754262  1  0.661259  0  0.325919  0.393862  0  0.892403  0
H  H12  1  0.36140835  0.33165899  0.66998619  1  0.61177  0  0.351991  0.396197  0  0.829935  0
H  H13  1  0.61748688  0.74757807  0.35211202  1  0.607597  0  0.343546  0.387124  0  0.843502  0
H  H14  1  0.48634240  0.79630696  0.64716975  1  0.600055  0  0.295224  0.320769  0  0.984106  0
H  H15  1  0.73259230  0.27352567  0.27399162  1  0.621623  0  0.339182  0.377815  0  0.854477  0
H  H16  1  0.51079967  0.20124507  0.35384465  1  0.61006  0  0.332926  0.368204  0  0.874779  0
H  H17  1  0.65936003  0.15481507  0.72143416  1  0.629714  0  0.349166  0.409013  0  0.819493  0
H  H18  1  0.18785151  0.67870716  0.30956551  1  0.627542  0  0.334077  0.390347  0  0.860115  0
H  H19  1  0.21560747  0.91198812  0.87362731  1  0.666146  0  0.328496  0.391907  0  0.874286  0
H  H20  1  0.79402033  0.13553123  0.13636837  1  0.649121  0  0.322096  0.386405  0  0.900892  0
H  H21  1  0.83414551  0.63489102  0.73641793  1  0.628985  0  0.348731  0.398832  0  0.824528  0
H  H22  1  0.20040971  0.33304312  0.26063656  1  0.64515  0  0.348251  0.392246  0  0.829285  0
H  H23  1  0.79865931  0.24634739  0.52853366  1  0.625887  0  0.30154  0.339277  0  0.950551  0
C  C24  1  0.63537543  0.07038419  0.42014451  1  1.568424  0  0.225818  0.621327  0  4.114588  0
C  C25  1  0.12989836  0.11940435  0.16993443  1  -0.163694  0  -0.050206  -0.037263  0  3.792139  0
C  C26  1  0.89848056  0.75443460  0.85842883  1  -0.190988  0  -0.042764  0.015469  0  3.809791  0
C  C27  1  0.14684837  0.20788175  0.13261056  1  -0.189986  0  -0.044167  0.018799  0  3.831824  0
C  C28  1  0.18341763  0.07021373  0.72076605  1  -0.144448  0  -0.042358  -0.006679  0  3.787207  0
C  C29  1  0.80838108  0.97756552  0.28735306  1  -0.180648  0  -0.040394  -0.004968  0  3.767415  0
C  C30  1  0.26939485  0.08329722  0.68018302  1  0.027018  0  -0.017305  -0.06694  0  3.934217  0
C  C31  1  0.72458012  0.98475393  0.33013226  1  0.082471  0  -0.015741  -0.053852  0  3.909102  0
C  C32  1  0.81064439  0.88808843  0.69863896  1  -0.061683  0  -0.006604  -0.076116  0  3.858524  0
C  C33  1  0.20577778  0.07918862  0.29853128  1  0.061919  0  -0.004407  -0.0728  0  3.86039  0
C  C34  1  0.73055994  0.88916658  0.65667074  1  0.055413  0  0.002653  -0.044687  0  3.884595  0
C  C35  1  0.37098624  0.02644823  0.58675191  1  1.568421  0  0.225634  0.625135  0  4.093221  0
C  C36  1  0.28574724  0.06621601  0.33973092  1  0.027533  0  0.009611  -0.029941  0  3.849817  0
C  C37  1  0.98682831  0.97635548  0.74760735  1  0.064434  0  0.025948  0.051728  0  3.537968  0
C  C38  1  0.01830117  0.02268074  0.25290305  1  0.049076  0  0.027769  0.051398  0  3.530002  0
C  C39  1  0.65388264  0.96294664  0.56711431  1  1.559208  0  0.227901  0.617837  0  4.117732  0
C  C40  1  0.36143597  0.97052018  0.42308135  1  1.597573  0  0.232199  0.625466  0  4.099321  0
C  C41  1  0.10167147  0.98592570  0.71197626  1  0.016299  0  -0.014185  0.004356  0  3.751591  0
C  C42  1  0.90701171  0.04196388  0.29247178  1  0.013015  0  -0.012995  0.000844  0  3.719254  0
C  C43  1  0.29155502  0.00351823  0.63510204  1  0.06927  0  -0.014645  -0.064957  0  3.927349  0
C  C44  1  0.71902904  0.07404671  0.37146128  1  0.00679  0  -0.016635  -0.06638  0  3.930316  0
C  C45  1  0.89563265  0.96962023  0.70057097  1  0.046283  0  -0.0069  0.014752  0  3.779234  0
C  C46  1  0.87977571  0.25586263  0.82842019  1  -0.005585  0  0.003098  -0.049533  0  3.896796  0
C  C47  1  0.11141315  0.01006167  0.29684650  1  0.044952  0  -0.005156  0.024528  0  3.808806  0
C  C48  1  0.73606058  0.96413696  0.61320765  1  0.064143  0  0.000924  -0.045353  0  3.919702  0
C  C49  1  0.27955317  0.97979524  0.37729881  1  0.034439  0  0.008905  -0.024542  0  3.875055  0
C  C50  1  0.98797480  0.87148424  0.78624511  1  0.048432  0  -0.001471  0.023633  0  3.753201  0
C  C51  1  0.03982131  0.12144759  0.21123177  1  0.025086  0  -0.004133  0.021957  0  3.76454  0
C  C52  1  0.99849094  0.70186049  0.86896372  1  0.075336  0  -0.010481  -0.059008  0  3.906582  0
C  C53  1  0.05842202  0.27888323  0.12265943  1  0.035976  0  -0.018116  -0.08311  0  3.939125  0
C  C54  1  0.96217452  0.07676917  0.79374321  1  -0.017847  0  -0.007299  0.012855  0  3.782262  0
C  C55  1  0.01507823  0.91737765  0.20803021  1  -0.003227  0  -0.003334  0.016301  0  3.778029  0
C  C56  1  0.92913778  0.25082658  0.88110710  1  -0.002393  0  0.002516  -0.041813  0  3.921266  0
C  C57  1  0.05642307  0.72494013  0.17265604  1  0.000293  0  0.001879  -0.048727  0  3.888668  0
C  C58  1  0.99404599  0.73653821  0.12416959  1  0.001059  0  0.002546  -0.04155  0  3.920628  0
C  C59  1  0.92967736  0.34494878  0.92579374  1  1.580721  0  0.225005  0.614788  0  4.13493  0
C  C60  1  0.98059244  0.64336353  0.07995626  1  1.574797  0  0.227447  0.619038  0  4.137871  0
C  C61  1  0.01441337  0.62807069  0.91796350  1  1.58223  0  0.225516  0.615419  0  4.110237  0
C  C62  1  0.05166506  0.35307987  0.07300312  1  1.567321  0  0.22198  0.602191  0  4.12844  0
C  C63  1  0.12663932  0.90743428  0.66484172  1  -0.206301  0  -0.052198  -0.044045  0  3.812477  0
C  C64  1  0.90399734  0.12207927  0.34068756  1  -0.156636  0  -0.048128  -0.029117  0  3.759407  0
C  C65  1  0.22863065  0.90715763  0.63378432  1  -0.174156  0  -0.043639  0.01889  0  3.814941  0
C  C66  1  0.80407581  0.15008762  0.37126637  1  -0.158364  0  -0.048491  0.011441  0  3.857363  0
C  C67  1  0.89749781  0.04572692  0.65522611  1  -0.197518  0  -0.042542  -0.032115  0  3.795104  0
C  C68  1  0.00820163  0.07268395  0.84957823  1  0.073023  0  -0.015577  -0.099605  0  3.923772  0
C  C69  1  0.10179205  0.93138727  0.34042506  1  -0.233074  0  -0.043494  -0.035336  0  3.810733  0
C  C70  1  0.81987507  0.04163288  0.61210731  1  0.055999  0  -0.005356  -0.045048  0  3.925613  0
C  C71  1  0.18779248  0.91217641  0.37714210  1  0.068257  0  -0.00923  -0.054889  0  3.943954  0
C  C72  1  0.08197644  0.80221489  0.78991586  1  0.011093  0  -0.003378  -0.070801  0  3.844988  0
C  C73  1  0.96395346  0.21017943  0.20798309  1  0.014544  0  -0.01161  -0.081888  0  3.89074  0
C  C74  1  0.08980493  0.72897780  0.83481603  1  -0.00847  0  0.002895  -0.044822  0  3.870849  0
C  C75  1  0.96558227  0.27565416  0.15980656  1  0.005368  0  -0.007492  -0.067236  0  3.904676  0
C  C76  1  0.88899377  0.16708983  0.78633492  1  0.012584  0  -0.007375  -0.086418  0  3.871942  0
C  C77  1  0.07003159  0.81369560  0.21352488  1  0.034958  0  -0.009179  -0.088992  0  3.88399  0
C  C78  1  0.18510705  0.78731719  0.75173208  1  1.532411  0  0.217448  0.54525  0  4.16767  0
C  C79  1  0.96126061  0.92872262  0.15516428  1  -0.004506  0  -0.012514  -0.094085  0  3.925346  0
C  C80  1  0.88216227  0.25816954  0.25282812  1  1.521946  0  0.218787  0.552473  0  4.162913  0
C  C81  1  0.80510225  0.18827601  0.74108027  1  1.567926  0  0.220525  0.561298  0  4.154388  0
C  C82  1  0.15947518  0.78326717  0.25390537  1  1.554478  0  0.21924  0.556047  0  4.152135  0
C  C83  1  0.07643954  0.98266719  0.87456983  1  1.567397  0  0.231466  0.576715  0  4.145156  0
C  C84  1  0.91126073  0.03092051  0.13166162  1  1.586832  0  0.235579  0.580386  0  4.143104  0
C  C85  1  0.79042966  0.78305692  0.73108165  1  1.547068  0  0.217411  0.552284  0  4.154056  0
C  C86  1  0.23412300  0.18309237  0.26670524  1  1.538229  0  0.216467  0.545742  0  4.160335  0
C  C87  1  0.82829648  0.10841855  0.55880241  1  1.551789  0  0.215888  0.570291  0  4.158051  0
C  C88  1  0.17897394  0.82782675  0.42246322  1  1.503515  0  0.220262  0.569349  0  4.163083  0
C  C89  1  0.20403622  0.69594265  0.85095594  1  1.582736  0  0.237694  0.598177  0  4.118272  0
C  C90  1  0.98574407  0.15474753  0.89293422  1  0.006046  0  -0.002033  -0.052721  0  3.939674  0
C  C91  1  0.85790434  0.32875143  0.14578602  1  1.560094  0  0.238704  0.603197  0  4.106569  0
C  C92  1  0.80578261  0.35495492  0.82293078  1  1.559604  0  0.229906  0.592624  0  4.097056  0
C  C93  1  0.12461581  0.62073041  0.17410839  1  1.496654  0  0.227139  0.582322  0  4.127923  0
C  C94  1  0.01989833  0.14290952  0.95407618  1  1.595344  0  0.22163  0.582794  0  4.135575  0
C  C95  1  0.90767724  0.85978372  0.05539260  1  1.584688  0  0.226447  0.583419  0  4.135797  0
C  C96  1  0.34804370  0.18008937  0.68445414  1  1.549663  0  0.21702  0.579285  0  4.176454  0
C  C97  1  0.63726209  0.89575304  0.33272988  1  1.533225  0  0.210559  0.564633  0  4.171918  0
C  C98  1  0.64159580  0.80279450  0.65192221  1  1.556857  0  0.226516  0.59747  0  4.102211  0
C  C99  1  0.36406242  0.16028448  0.35166179  1  1.573301  0  0.229748  0.594441  0  4.119591  0
C  C100  1  0.95474887  0.84113065  0.11339165  1  0.062741  0  -0.001666  -0.054611  0  3.930349  0
C  C101  1  0.89761715  0.84909245  0.82499996  1  -0.184414  0  -0.048748  -0.040562  0  3.791412  0
I  I102  1  0.29121069  0.75662544  0.59323297  1  0.204681  0  0.133922  0.052431  0  1.810206  0
I  I103  1  0.30032944  0.22995276  0.09227993  1  0.258694  0  0.130707  0.07717  0  1.636454  0
I  I104  1  0.02069461  0.78940152  0.62569098  1  0.236585  0  0.154426  0.112405  0  1.834596  0
I  I105  1  0.03459416  0.19625444  0.38694707  1  0.240936  0  0.149143  0.099815  0  1.847876  0
I  I106  1  0.78064442  0.30747851  0.41537495  1  0.162611  0  0.107792  0.006939  0  1.711679  0
I  I107  1  0.01347230  0.17188051  0.63831956  1  0.21557  0  0.153877  0.081443  0  1.769842  0
I  I108  1  0.96166165  0.83840629  0.36456581  1  0.220909  0  0.154346  0.08304  0  1.777818  0
I  I109  1  0.76240707  0.95664108  0.84666942  1  0.249351  0  0.169403  0.11981  0  1.823897  0
I  I110  1  0.24281764  0.98758971  0.15597150  1  0.269338  0  0.177547  0.129434  0  1.840178  0
I  I111  1  0.18784213  0.20301899  0.78451056  1  0.213898  0  0.148607  0.073437  0  1.718083  0
I  I112  1  0.76865115  0.84566164  0.22706390  1  0.206593  0  0.150433  0.065167  0  1.751504  0
I  I113  1  0.74755315  0.69221476  0.88983089  1  0.222995  0  0.161385  0.083063  0  1.765215  0
O  O114  1  0.61463292  0.97379246  0.43520720  1  -1.1601  0  -0.293272  -0.540678  0  2.430727  0
O  O115  1  0.88241605  0.61181476  0.07038300  1  -1.108328  0  -0.30745  -0.522105  0  2.245799  0
O  O116  1  0.93232772  0.60388776  0.94879573  1  -1.187923  0  -0.308715  -0.576602  0  2.526  0
O  O117  1  0.13861633  0.38505350  0.04715398  1  -1.12295  0  -0.300219  -0.51196  0  2.384883  0
O  O118  1  0.11248827  0.59558032  0.92696119  1  -1.117374  0  -0.292951  -0.508039  0  2.286794  0
O  O119  1  0.95502262  0.38031696  0.06052618  1  -1.153877  0  -0.293988  -0.556534  0  2.415379  0
O  O120  1  0.84050168  0.38316053  0.94974074  1  -1.113584  0  -0.301376  -0.503908  0  2.233029  0
O  O121  1  0.06723883  0.60536204  0.05517414  1  -1.159941  0  -0.296235  -0.541953  0  2.351624  0
O  O122  1  0.19578675  0.70439764  0.71980568  1  -1.119265  0  -0.28086  -0.475405  0  2.231256  0
O  O123  1  0.26884556  0.85612692  0.76439442  1  -1.103963  0  -0.320161  -0.452816  0  2.322646  0
O  O124  1  0.90919958  0.33357847  0.28601198  1  -1.097986  0  -0.275082  -0.455712  0  2.18875  0
O  O125  1  0.38858517  0.12770138  0.57495050  1  -1.1088  0  -0.300109  -0.505783  0  2.240623  0
O  O126  1  0.77688785  0.22696647  0.24621111  1  -1.114805  0  -0.322244  -0.454969  0  2.306172  0
O  O127  1  0.81036288  0.26844343  0.71153954  1  -1.128667  0  -0.284188  -0.466447  0  2.170079  0
O  O128  1  0.71625711  0.12301105  0.74459768  1  -1.112721  0  -0.323747  -0.473878  0  2.32354  0
O  O129  1  0.25081862  0.82191091  0.25531807  1  -1.115659  0  -0.267556  -0.438472  0  2.195145  0
O  O130  1  0.12853948  0.69447787  0.28368367  1  -1.119598  0  -0.337413  -0.48965  0  2.343123  0
O  O131  1  0.03813724  0.92846537  0.91343068  1  -1.15618  0  -0.269457  -0.496858  0  2.282163  0
O  O132  1  0.18023644  0.97648713  0.85625365  1  -1.157617  0  -0.313333  -0.449247  0  2.371818  0
O  O133  1  0.95749352  0.06974927  0.08951374  1  -1.157975  0  -0.262884  -0.487498  0  2.315467  0
O  O134  1  0.81544462  0.06421664  0.15402864  1  -1.139709  0  -0.310136  -0.445787  0  2.371639  0
O  O135  1  0.70249310  0.76656452  0.75541339  1  -1.125244  0  -0.284374  -0.487423  0  2.247825  0
O  O136  1  0.61491940  0.05666812  0.55648783  1  -1.159347  0  -0.301892  -0.550711  0  2.380122  0
O  O137  1  0.86654358  0.70210747  0.72138975  1  -1.134438  0  -0.326427  -0.468264  0  2.343075  0
O  O138  1  0.32274278  0.19333052  0.24190492  1  -1.123852  0  -0.282108  -0.47834  0  2.202807  0
O  O139  1  0.16359990  0.26907464  0.27656950  1  -1.146123  0  -0.325451  -0.465115  0  2.376336  0
O  O140  1  0.85905420  0.06469913  0.51257925  1  -1.114894  0  -0.286293  -0.471619  0  2.116474  0
O  O141  1  0.79285036  0.21391766  0.56653921  1  -1.132657  0  -0.333361  -0.452718  0  2.308197  0
O  O142  1  0.15815520  0.85106011  0.47300480  1  -1.107212  0  -0.275194  -0.466424  0  2.168745  0
O  O143  1  0.20319535  0.72275596  0.40105512  1  -1.106924  0  -0.331514  -0.489287  0  2.259136  0
O  O144  1  0.26069045  0.76168834  0.87851297  1  -1.122028  0  -0.272071  -0.474365  0  2.09935  0
O  O145  1  0.24067737  0.59781226  0.82808551  1  -1.09545  0  -0.317501  -0.446423  0  2.241016  0
O  O146  1  0.78453395  0.27344862  0.12378534  1  -1.128247  0  -0.275009  -0.476784  0  2.131324  0
O  O147  1  0.40015446  0.87436695  0.43261603  1  -1.125561  0  -0.305676  -0.520994  0  2.275834  0
O  O148  1  0.84361765  0.43411701  0.16559044  1  -1.122989  0  -0.313544  -0.44274  0  2.286668  0
O  O149  1  0.70654183  0.35087090  0.82191444  1  -1.096093  0  -0.284647  -0.455016  0  2.050967  0
O  O150  1  0.86427296  0.44994885  0.82494239  1  -1.1335  0  -0.340186  -0.466216  0  2.288129  0
O  O151  1  0.22402472  0.61881029  0.16935039  1  -1.061212  0  -0.283295  -0.456849  0  2.061752  0
O  O152  1  0.06201951  0.52964509  0.17868652  1  -1.093265  0  -0.326302  -0.452177  0  2.29506  0
O  O153  1  0.11383330  0.13764574  0.96962185  1  -1.122558  0  -0.291486  -0.463656  0  2.09315  0
O  O154  1  0.92879802  0.14250359  0.98764814  1  -1.167859  0  -0.335848  -0.478176  0  2.2734  0
O  O155  1  0.81318785  0.88521847  0.04738474  1  -1.115728  0  -0.289749  -0.468391  0  2.073436  0
O  O156  1  0.98815371  0.84380165  0.01505273  1  -1.145882  0  -0.328155  -0.463061  0  2.273486  0
O  O157  1  0.44106407  0.17116789  0.70097953  1  -1.129361  0  -0.290107  -0.476988  0  2.074861  0
O  O158  1  0.62978723  0.86934508  0.54235166  1  -1.115842  0  -0.301529  -0.506427  0  2.265497  0
O  O159  1  0.30520178  0.27459826  0.66565802  1  -1.096912  0  -0.336968  -0.48495  0  2.277019  0
O  O160  1  0.54402347  0.90535479  0.31740314  1  -1.110379  0  -0.274626  -0.445181  0  2.144993  0
O  O161  1  0.67646888  0.80184080  0.35555508  1  -1.106391  0  -0.349503  -0.498681  0  2.275411  0
O  O162  1  0.65784837  0.70561064  0.63765929  1  -1.120154  0  -0.293729  -0.466457  0  2.054832  0
O  O163  1  0.54131876  0.85011619  0.66116305  1  -1.117507  0  -0.339533  -0.46388  0  2.282955  0
O  O164  1  0.33087733  0.24992351  0.37236355  1  -1.122463  0  -0.299388  -0.484898  0  2.06314  0
O  O165  1  0.46973981  0.13696413  0.33886744  1  -1.105697  0  -0.319005  -0.437619  0  2.303335  0
O  O166  1  0.38455353  0.06053094  0.44991975  1  -1.16916  0  -0.296913  -0.551237  0  2.371219  0
O  O167  1  0.59357703  0.15948600  0.44434426  1  -1.141003  0  -0.313642  -0.550586  0  2.375758  0
O  O168  1  0.41244942  0.94438951  0.55800056  1  -1.196767  0  -0.313685  -0.584113  0  2.564133  0
O  O169  1  0.02523606  0.37767397  0.93730062  1  -1.162037  0  -0.302205  -0.55989  0  2.355496  0
