# generated using pymatgen
data_Al2H18C30N3O11F
_symmetry_space_group_name_H-M   'P 1'
_cell_length_a   6.69219691
_cell_length_b   22.38580342
_cell_length_c   25.53373640
_cell_angle_alpha   90.65799907
_cell_angle_beta   90.13229890
_cell_angle_gamma   90.04940600
_symmetry_Int_Tables_number   1
_chemical_formula_structural   Al2H18C30N3O11F
_chemical_formula_sum   'Al4 H36 C60 N6 O22 F2'
_cell_volume   3824.95031673
_cell_formula_units_Z   2
loop_
 _symmetry_equiv_pos_site_id
 _symmetry_equiv_pos_as_xyz
  1  'x, y, z'
loop_
 _atom_site_type_symbol
 _atom_site_label
 _atom_site_symmetry_multiplicity
 _atom_site_fract_x
 _atom_site_fract_y
 _atom_site_fract_z
 _atom_site_occupancy
 _atom_site_pbe_bader_charge
 _atom_site_pbe_bader_spin_density
 _atom_site_pbe_cm5_charge
 _atom_site_pbe_ddec_charge
 _atom_site_pbe_ddec_spin_density
 _atom_site_pbe_ddec_sum_bond_order
 _atom_site_pbe_magmom
Al  Al0  1  0.28443932  0.25414654  0.74721072  1  2.504371  0  0.40094  1.650733  0  2.571257  0
Al  Al1  1  0.71555492  0.74585232  0.25278988  1  2.504437  0  0.400886  1.650689  0  2.571334  0
Al  Al2  1  0.78387808  0.25254684  0.74697718  1  2.504071  0  0.399979  1.647062  0  2.579535  0
Al  Al3  1  0.21611467  0.74745246  0.25302343  1  2.504183  0  0.399951  1.646995  0  2.579676  0
H  H4  1  0.75566621  0.16043058  0.89074260  1  0.105877  0  0.114448  0.118984  0  0.980445  0
H  H5  1  0.24432652  0.83956872  0.10925957  1  0.106454  0  0.114439  0.118993  0  0.980506  0
H  H6  1  0.79089949  0.01929884  0.01861281  1  0.060959  0  0.101909  0.098395  0  1.005565  0
H  H7  1  0.20905147  0.98069149  0.98138337  1  0.061249  0  0.101929  0.098466  0  1.005642  0
H  H8  1  0.33493132  0.02330035  0.90544976  1  0.074483  0  0.106855  0.109629  0  0.999654  0
H  H9  1  0.66504651  0.97669269  0.09455000  1  0.074506  0  0.106799  0.109514  0  0.999775  0
H  H10  1  0.23246683  0.91148300  0.03690827  1  0.035091  0  0.106387  0.1037  0  0.998047  0
H  H11  1  0.76752445  0.08851227  0.96308996  1  0.035032  0  0.106395  0.103752  0  0.998087  0
H  H12  1  0.72204104  0.12644096  0.62868012  1  0.077287  0  0.109492  0.113739  0  1.002778  0
H  H13  1  0.27795021  0.87356147  0.37131856  1  0.077319  0  0.109476  0.113674  0  1.002905  0
H  H14  1  0.73403811  0.05089048  0.55472487  1  0.091191  0  0.104276  0.102789  0  1.036508  0
H  H15  1  0.26595614  0.94910837  0.44527456  1  0.091226  0  0.104301  0.102808  0  1.036521  0
H  H16  1  0.62610186  0.93734630  0.44669575  1  0.114082  0  0.107321  0.109861  0  1.010729  0
H  H17  1  0.37388939  0.06264274  0.55331025  1  0.114021  0  0.107365  0.109834  0  1.010844  0
H  H18  1  0.63756225  0.86161357  0.37242778  1  0.102506  0  0.111004  0.116931  0  1.002379  0
H  H19  1  0.36243051  0.13837725  0.62757471  1  0.102508  0  0.111004  0.116958  0  1.002384  0
H  H20  1  0.77780851  0.62220950  0.13189567  1  0.115454  0  0.107145  0.10984  0  1.007882  0
H  H21  1  0.22219768  0.37780007  0.86810034  1  0.115511  0  0.107109  0.109771  0  1.008045  0
H  H22  1  0.76582601  0.54919519  0.05606820  1  0.12273  0  0.103581  0.101717  0  1.037648  0
H  H23  1  0.23417868  0.45081662  0.94392704  1  0.122712  0  0.103612  0.101777  0  1.037612  0
H  H24  1  0.87346307  0.43666706  0.94764118  1  0.095624  0  0.107251  0.109926  0  1.010949  0
H  H25  1  0.12654314  0.56334072  0.05235285  1  0.092121  0  0.1073  0.109983  0  1.010867  0
H  H26  1  0.86201361  0.36424201  0.87091237  1  0.091616  0  0.10887  0.112372  0  1.005023  0
H  H27  1  0.13798662  0.63576041  0.12908475  1  0.09147  0  0.108789  0.112219  0  1.005238  0
H  H28  1  0.77566302  0.61550121  0.36617949  1  0.091442  0  0.108693  0.115465  0  1.0021  0
H  H29  1  0.22433572  0.38450121  0.63381685  1  0.091647  0  0.108684  0.115482  0  1.002028  0
H  H30  1  0.76136052  0.54306743  0.44057312  1  0.145129  0  0.107407  0.114451  0  1.036444  0
H  H31  1  0.23866212  0.45693590  0.55942325  1  0.145265  0  0.107392  0.114361  0  1.036353  0
H  H32  1  0.85819881  0.35459897  0.61927194  1  0.134914  0  0.120333  0.149354  0  0.985126  0
H  H33  1  0.14179987  0.64540213  0.38073339  1  0.135093  0  0.120327  0.149435  0  0.985148  0
H  H34  1  0.69361821  0.90159130  0.21980093  1  0.053472  0  0.107983  0.044413  0  0.969827  0
H  H35  1  0.30638348  0.09840712  0.78020360  1  0.053576  0  0.107996  0.044402  0  0.969981  0
H  H36  1  0.53535294  0.17792269  0.76418859  1  0.625517  0  0.347936  0.424701  0  0.871019  0
H  H37  1  0.46465029  0.82207438  0.23581005  1  0.625579  0  0.347899  0.424556  0  0.871246  0
H  H38  1  0.03041527  0.33207414  0.75343997  1  0.604275  0  0.357245  0.435262  0  0.844209  0
H  H39  1  0.96959093  0.66792517  0.24656026  1  0.604278  0  0.357242  0.4353  0  0.844123  0
C  C40  1  0.53534544  0.32578825  0.81896399  1  1.558043  0  0.266803  0.640615  0  4.100622  0
C  C41  1  0.46466674  0.67421106  0.18103586  1  1.557971  0  0.266758  0.640574  0  4.100802  0
C  C42  1  0.53627825  0.32353994  0.67605098  1  1.56261  0  0.271341  0.642515  0  4.0859  0
C  C43  1  0.46370851  0.67646069  0.32395042  1  1.562543  0  0.271365  0.642506  0  4.085868  0
C  C44  1  0.03669389  0.18054414  0.67642959  1  1.544881  0  0.266467  0.634309  0  4.104451  0
C  C45  1  0.96330334  0.81945560  0.32356985  1  1.545129  0  0.26649  0.634366  0  4.10476  0
C  C46  1  0.03182951  0.17991326  0.81666355  1  1.551782  0  0.267748  0.639395  0  4.101684  0
C  C47  1  0.96816174  0.82008470  0.18333782  1  1.551826  0  0.267789  0.639359  0  4.101344  0
C  C48  1  0.03698379  0.13333633  0.85777111  1  0.027633  0  -0.003195  -0.067338  0  3.927811  0
C  C49  1  0.96301491  0.86666521  0.14223187  1  0.027736  0  -0.003121  -0.067038  0  3.927469  0
C  C50  1  0.88232037  0.13024508  0.89453166  1  -0.016786  0  -0.070482  -0.066898  0  3.975691  0
C  C51  1  0.11766944  0.86974974  0.10546460  1  -0.017509  0  -0.070448  -0.067016  0  3.975647  0
C  C52  1  0.89047321  0.08975097  0.93521196  1  0.005859  0  -0.073266  -0.106619  0  3.924518  0
C  C53  1  0.10950616  0.91023849  0.06478346  1  0.00595  0  -0.073347  -0.106542  0  3.924483  0
C  C54  1  0.05401228  0.05048829  0.94059440  1  -0.017568  0  -0.005046  0.115913  0  4.044324  0
C  C55  1  0.94595814  0.94950026  0.05939865  1  -0.017429  0  -0.005044  0.115637  0  4.044485  0
C  C56  1  0.20811491  0.05382345  0.90337375  1  0.015783  0  -0.074  -0.148465  0  3.905465  0
C  C57  1  0.79186147  0.94616912  0.09662012  1  0.015446  0  -0.073849  -0.148085  0  3.905643  0
C  C58  1  0.20056790  0.09390064  0.86193501  1  -0.050399  0  -0.010792  0.014448  0  3.981522  0
C  C59  1  0.79942934  0.90610134  0.13806249  1  -0.050261  0  -0.010971  0.014047  0  3.981792  0
C  C60  1  0.06959816  0.00613407  0.98166430  1  -0.096777  0  -0.086646  -0.126164  0  3.992235  0
C  C61  1  0.93035135  0.99385045  0.01832987  1  -0.010767  0  -0.086491  -0.125706  0  3.991979  0
C  C62  1  0.95821449  0.86351439  0.36779997  1  -0.047778  0  -0.010027  -0.039168  0  3.957168  0
C  C63  1  0.04179170  0.13648537  0.63220026  1  -0.047984  0  -0.009974  -0.039189  0  3.956974  0
C  C64  1  0.13630976  0.88788043  0.38825126  1  0.00523  0  -0.075948  -0.075683  0  3.964194  0
C  C65  1  0.86369046  0.11211887  0.61174857  1  0.005107  0  -0.075952  -0.075765  0  3.96398  0
C  C66  1  0.13038134  0.92942073  0.42891036  1  0.021619  0  -0.081177  -0.13942  0  3.942662  0
C  C67  1  0.86962037  0.07057857  0.57108947  1  0.021622  0  -0.081153  -0.139384  0  3.942512  0
C  C68  1  0.94464030  0.94715180  0.44977206  1  0.278004  0  0.091578  0.17641  0  4.031841  0
C  C69  1  0.05536142  0.05284393  0.55022970  1  0.279151  0  0.091639  0.176477  0  4.031486  0
C  C70  1  0.76696661  0.92269764  0.42951654  1  0.01261  0  -0.076807  -0.136746  0  3.950267  0
C  C71  1  0.23303659  0.07729452  0.57048794  1  0.012014  0  -0.076933  -0.136847  0  3.950279  0
C  C72  1  0.77355339  0.88112803  0.38874353  1  -0.048614  0  -0.077839  -0.081844  0  3.969496  0
C  C73  1  0.22644982  0.11886591  0.61125782  1  -0.048076  0  -0.077818  -0.081713  0  3.969429  0
C  C74  1  0.54157057  0.36749137  0.86496775  1  -0.052522  0  -0.010374  -0.037496  0  3.952567  0
C  C75  1  0.45842516  0.63251373  0.13503017  1  -0.052569  0  -0.010381  -0.03768  0  3.952948  0
C  C76  1  0.36377290  0.39127908  0.88578429  1  -0.037453  0  -0.077754  -0.077348  0  3.969718  0
C  C77  1  0.63622582  0.60872870  0.11421170  1  -0.037067  0  -0.077831  -0.077333  0  3.969534  0
C  C78  1  0.36966056  0.43134912  0.92753754  1  -0.070448  0  -0.080747  -0.137941  0  3.944261  0
C  C79  1  0.63034116  0.56866045  0.07245651  1  -0.071222  0  -0.080697  -0.137973  0  3.944245  0
C  C80  1  0.55530652  0.44782914  0.94945522  1  0.377153  0  0.091259  0.175929  0  4.03641  0
C  C81  1  0.44469371  0.55218221  0.05053728  1  0.378058  0  0.091328  0.17626  0  4.036039  0
C  C82  1  0.73270426  0.42333220  0.92936603  1  -0.032733  0  -0.077495  -0.137968  0  3.949466  0
C  C83  1  0.26730194  0.57668005  0.07062766  1  -0.028865  0  -0.077441  -0.138001  0  3.949197  0
C  C84  1  0.72602330  0.38356476  0.88721038  1  -0.029364  0  -0.078866  -0.081022  0  3.967568  0
C  C85  1  0.27397543  0.61644436  0.11278405  1  -0.029636  0  -0.078842  -0.0809  0  3.967779  0
C  C86  1  0.54024129  0.36582347  0.63134691  1  0.003143  0  -0.006539  -0.00969  0  3.967619  0
C  C87  1  0.45976191  0.63417539  0.36865449  1  0.00323  0  -0.006512  -0.009605  0  3.967663  0
C  C88  1  0.36492410  0.39435647  0.61432124  1  0.006675  0  -0.083089  -0.09927  0  3.977255  0
C  C89  1  0.63508359  0.60564506  0.38567784  1  0.00677  0  -0.083117  -0.099198  0  3.977389  0
C  C90  1  0.37217380  0.43432028  0.57334895  1  -0.048108  0  -0.075808  -0.114646  0  3.943454  0
C  C91  1  0.62785481  0.56568261  0.42665016  1  -0.048049  0  -0.07588  -0.114849  0  3.943641  0
C  C92  1  0.55417908  0.44627051  0.54777701  1  0.374925  0  0.086363  0.066123  0  4.043958  0
C  C93  1  0.44585104  0.55372837  0.45222207  1  0.374703  0  0.086451  0.06627  0  4.043654  0
C  C94  1  0.72663948  0.41629737  0.56506008  1  0.40884  0  0.11301  0.239012  0  4.024808  0
C  C95  1  0.27337867  0.58369926  0.43494170  1  0.408815  0  0.113154  0.239222  0  4.024266  0
C  C96  1  0.72259290  0.37696610  0.60646232  1  0.050169  0  -0.090294  -0.220909  0  3.970172  0
C  C97  1  0.27741029  0.62303187  0.39354103  1  0.050168  0  -0.090301  -0.221158  0  3.970253  0
C  C98  1  0.64294649  0.91094302  0.17917240  1  0.946463  0  0.101255  0.276881  0  3.969101  0
C  C99  1  0.35705971  0.08905227  0.82082858  1  0.946489  0  0.101239  0.276771  0  3.969622  0
N  N100  1  0.91931967  0.98915128  0.49096772  1  -0.454224  0  -0.147381  -0.135532  0  3.277639  0
N  N101  1  0.08066860  0.01084355  0.50903441  1  -0.505363  0  -0.147309  -0.1354  0  3.277559  0
N  N102  1  0.58041179  0.48841514  0.99167494  1  -0.509031  0  -0.147614  -0.135181  0  3.277463  0
N  N103  1  0.41959591  0.51159488  0.00831794  1  -0.457401  0  -0.147618  -0.135283  0  3.277384  0
N  N104  1  0.57777133  0.48498050  0.50532979  1  -0.41595  0  -0.144583  -0.109204  0  3.267512  0
N  N105  1  0.42225877  0.51502061  0.49467087  1  -0.461831  0  -0.144342  -0.108952  0  3.267407  0
O  O106  1  0.70461907  0.30481852  0.69234090  1  -1.261131  0  -0.232511  -0.587301  0  2.353159  0
O  O107  1  0.29536318  0.69518480  0.30766365  1  -1.261321  0  -0.232615  -0.587389  0  2.353327  0
O  O108  1  0.36365750  0.30945626  0.80227217  1  -1.255241  0  -0.238851  -0.59898  0  2.336236  0
O  O109  1  0.63635170  0.69054483  0.19772495  1  -1.255304  0  -0.238886  -0.599009  0  2.336335  0
O  O110  1  0.20109469  0.19752478  0.79956967  1  -1.25415  0  -0.232451  -0.602058  0  2.374546  0
O  O111  1  0.79889505  0.80247854  0.20043136  1  -1.254276  0  -0.232385  -0.602052  0  2.374543  0
O  O112  1  0.36659565  0.30977964  0.69497155  1  -1.252934  0  -0.233021  -0.587409  0  2.333789  0
O  O113  1  0.63337768  0.69022188  0.30502670  1  -1.252735  0  -0.232894  -0.587298  0  2.333725  0
O  O114  1  0.20504770  0.19953583  0.69312330  1  -1.256732  0  -0.235349  -0.593869  0  2.368983  0
O  O115  1  0.79496149  0.80046125  0.30687809  1  -1.256885  0  -0.235301  -0.593823  0  2.369278  0
O  O116  1  0.70326992  0.31039375  0.79959378  1  -1.255852  0  -0.23902  -0.603143  0  2.355815  0
O  O117  1  0.29674074  0.68960288  0.20041035  1  -1.255777  0  -0.238972  -0.603069  0  2.355745  0
O  O118  1  0.53333868  0.21700596  0.74819865  1  -1.428547  0  -0.448936  -0.991322  0  2.193841  0
O  O119  1  0.46666302  0.78299379  0.25180354  1  -1.428666  0  -0.448886  -0.991103  0  2.194101  0
O  O120  1  0.86660300  0.19534655  0.69478164  1  -1.260038  0  -0.23419  -0.585548  0  2.333885  0
O  O121  1  0.13339573  0.80465944  0.30521355  1  -1.260086  0  -0.234233  -0.585593  0  2.333873  0
O  O122  1  0.86159258  0.19868486  0.80190699  1  -1.254035  0  -0.23179  -0.5856  0  2.341372  0
O  O123  1  0.13840319  0.80130863  0.19809122  1  -1.254032  0  -0.231837  -0.585577  0  2.341208  0
O  O124  1  0.03333218  0.28930030  0.74757236  1  -1.407596  0  -0.448431  -0.995527  0  2.206935  0
O  O125  1  0.96666504  0.71069900  0.25242943  1  -1.407581  0  -0.448448  -0.995595  0  2.20683  0
O  O126  1  0.47118346  0.92723937  0.17055073  1  -1.082883  0  -0.266789  -0.365273  0  2.128029  0
O  O127  1  0.52881079  0.07275591  0.82945062  1  -1.083012  0  -0.266773  -0.365189  0  2.128326  0
F  F128  1  0.90312867  0.42646504  0.54072548  1  -0.625971  0  -0.088055  -0.130632  0  1.377375  0
F  F129  1  0.09688947  0.57352803  0.45928058  1  -0.625863  0  -0.088217  -0.130802  0  1.377182  0
