# generated using pymatgen
data_NaH9C7SO7
_symmetry_space_group_name_H-M   'P 1'
_cell_length_a   7.03906124
_cell_length_b   11.93946592
_cell_length_c   11.96848516
_cell_angle_alpha   90.00038568
_cell_angle_beta   103.85954615
_cell_angle_gamma   90.00001541
_symmetry_Int_Tables_number   1
_chemical_formula_structural   NaH9C7SO7
_chemical_formula_sum   'Na4 H36 C28 S4 O28'
_cell_volume   976.57814846
_cell_formula_units_Z   4
loop_
 _symmetry_equiv_pos_site_id
 _symmetry_equiv_pos_as_xyz
  1  'x, y, z'
loop_
 _atom_site_type_symbol
 _atom_site_label
 _atom_site_symmetry_multiplicity
 _atom_site_fract_x
 _atom_site_fract_y
 _atom_site_fract_z
 _atom_site_occupancy
 _atom_site_hle17_bader_spin_density
 _atom_site_hle17_ddec_charge
 _atom_site_hle17_ddec_spin_density
 _atom_site_hle17_ddec_sum_bond_order
 _atom_site_hle17_magmom
 _atom_site_hse06_10hf_bader_spin_density
 _atom_site_hse06_10hf_ddec_charge
 _atom_site_hse06_10hf_ddec_spin_density
 _atom_site_hse06_10hf_ddec_sum_bond_order
 _atom_site_hse06_10hf_magmom
 _atom_site_hse06_bader_spin_density
 _atom_site_hse06_ddec_charge
 _atom_site_hse06_ddec_spin_density
 _atom_site_hse06_ddec_sum_bond_order
 _atom_site_hse06_magmom
 _atom_site_pbe_bader_spin_density
 _atom_site_pbe_cm5_charge
 _atom_site_pbe_ddec_charge
 _atom_site_pbe_ddec_spin_density
 _atom_site_pbe_ddec_sum_bond_order
 _atom_site_pbe_magmom
Na  Na0  1  0.30700998  0.25340386  0.16038808  1  0  0.899437  0  0.392071  0  0  0.860746  0  0.542147  0  0  0.869596  0  0.521139  0  0  0.67986  0.85412  0  0.557303  0
Na  Na1  1  0.19298961  0.75340757  0.83961499  1  0  0.899421  0  0.392071  0  0  0.860703  0  0.542193  0  0  0.869555  0  0.521178  0  0  0.679853  0.854085  0  0.55735  0
Na  Na2  1  0.69298929  0.74659323  0.83961156  1  0  0.899433  0  0.392072  0  0  0.860745  0  0.542147  0  0  0.869591  0  0.521143  0  0  0.679878  0.854131  0  0.557305  0
Na  Na3  1  0.80701260  0.24659287  0.16038673  1  0  0.899447  0  0.392079  0  0  0.860717  0  0.542196  0  0  0.869572  0  0.521186  0  0  0.679865  0.854092  0  0.557355  0
H  H4  1  0.62270910  0.14767377  0.38134241  1  0  0.384181  0  0.888541  0  0  0.35572  0  0.964288  0  0  0.367866  0  0.9515  0  0  0.313566  0.347152  0  0.973175  0
H  H5  1  0.87729679  0.64767183  0.61864741  1  0  0.384223  0  0.888482  0  0  0.355775  0  0.964205  0  0  0.367919  0  0.951414  0  0  0.313594  0.347231  0  0.973066  0
H  H6  1  0.37728432  0.85233253  0.61865558  1  0  0.384286  0  0.888313  0  0  0.355806  0  0.964088  0  0  0.367955  0  0.951293  0  0  0.313591  0.34724  0  0.972977  0
H  H7  1  0.12270246  0.35232778  0.38134805  1  0  0.384193  0  0.888512  0  0  0.355744  0  0.96425  0  0  0.367889  0  0.951457  0  0  0.313582  0.34719  0  0.973117  0
H  H8  1  0.19814285  0.01765707  0.14501405  1  0  0.424236  0  0.871483  0  0  0.39879  0  0.926416  0  0  0.407945  0  0.912943  0  0  0.293447  0.392288  0  0.935984  0
H  H9  1  0.30185010  0.51765923  0.85498819  1  0  0.424117  0  0.871659  0  0  0.398706  0  0.926517  0  0  0.407856  0  0.913052  0  0  0.293414  0.392205  0  0.936082  0
H  H10  1  0.80185061  0.98233834  0.85498980  1  0  0.424132  0  0.871642  0  0  0.398729  0  0.926488  0  0  0.407879  0  0.913025  0  0  0.293421  0.392228  0  0.936053  0
H  H11  1  0.69815064  0.48234037  0.14501165  1  0  0.424163  0  0.871601  0  0  0.398753  0  0.926458  0  0  0.407904  0  0.912993  0  0  0.293415  0.392251  0  0.936026  0
H  H12  1  0.41737104  0.01546182  0.13710070  1  0  0.423353  0  0.87293  0  0  0.396455  0  0.930316  0  0  0.40593  0  0.91634  0  0  0.292376  0.389707  0  0.94027  0
H  H13  1  0.08262339  0.51546232  0.86290424  1  0  0.423254  0  0.87305  0  0  0.396353  0  0.930442  0  0  0.40583  0  0.916464  0  0  0.292322  0.389606  0  0.940394  0
H  H14  1  0.58262096  0.98453527  0.86290211  1  0  0.423307  0  0.872986  0  0  0.396373  0  0.930441  0  0  0.405852  0  0.916458  0  0  0.292319  0.389627  0  0.940392  0
H  H15  1  0.91737879  0.48453728  0.13709330  1  0  0.423384  0  0.872891  0  0  0.396421  0  0.930404  0  0  0.405909  0  0.916405  0  0  0.292314  0.389672  0  0.940358  0
H  H16  1  0.45436779  0.19435792  0.97638135  1  0  0.427204  0  0.876471  0  0  0.39743  0  0.939355  0  0  0.40728  0  0.924699  0  0  0.290924  0.39047  0  0.949707  0
H  H17  1  0.04563303  0.69435694  0.02361648  1  0  0.427249  0  0.876418  0  0  0.397465  0  0.939316  0  0  0.407322  0  0.92465  0  0  0.290947  0.390506  0  0.949666  0
H  H18  1  0.54563295  0.80563666  0.02361850  1  0  0.42724  0  0.876429  0  0  0.397447  0  0.939343  0  0  0.407298  0  0.924688  0  0  0.290963  0.390485  0  0.949698  0
H  H19  1  0.95436624  0.30563931  0.97638232  1  0  0.427212  0  0.876463  0  0  0.397438  0  0.939347  0  0  0.40729  0  0.924687  0  0  0.290949  0.390476  0  0.9497  0
H  H20  1  0.51086411  0.32280001  0.97542495  1  0  0.430081  0  0.869691  0  0  0.401479  0  0.929982  0  0  0.411141  0  0.915618  0  0  0.292817  0.394636  0  0.940149  0
H  H21  1  0.98913074  0.82279743  0.02457454  1  0  0.43013  0  0.869629  0  0  0.401536  0  0.929903  0  0  0.411198  0  0.915541  0  0  0.292825  0.394695  0  0.940069  0
H  H22  1  0.48914249  0.67719624  0.02457653  1  0  0.430015  0  0.869766  0  0  0.401468  0  0.929945  0  0  0.411128  0  0.915587  0  0  0.292858  0.394628  0  0.940109  0
H  H23  1  0.01086415  0.17719798  0.97542449  1  0  0.430096  0  0.869659  0  0  0.401511  0  0.929919  0  0  0.411173  0  0.915556  0  0  0.292845  0.394671  0  0.940085  0
H  H24  1  0.66857518  0.47207922  0.57450083  1  0  0.111032  0  0.969968  0  0  0.115634  0  1.04177  0  0  0.118961  0  1.039224  0  0  0.109015  0.113227  0  1.043579  0
H  H25  1  0.83141722  0.97207429  0.42549431  1  0  0.11103  0  0.969933  0  0  0.115629  0  1.041734  0  0  0.118952  0  1.039197  0  0  0.109005  0.113222  0  1.043542  0
H  H26  1  0.33143877  0.52792290  0.42550669  1  0  0.111123  0  0.969977  0  0  0.115723  0  1.041762  0  0  0.11905  0  1.039218  0  0  0.109083  0.113315  0  1.043566  0
H  H27  1  0.16858060  0.02792698  0.57450596  1  0  0.111071  0  0.970006  0  0  0.115672  0  1.041792  0  0  0.118995  0  1.039255  0  0  0.109023  0.113265  0  1.043605  0
H  H28  1  0.61345631  0.06741654  0.66934390  1  0  0.13098  0  0.955709  0  0  0.136926  0  1.021195  0  0  0.14156  0  1.01818  0  0  0.110594  0.133532  0  1.023628  0
H  H29  1  0.88655806  0.56741517  0.33064489  1  0  0.131004  0  0.95571  0  0  0.13692  0  1.021232  0  0  0.141549  0  1.018224  0  0  0.110598  0.133533  0  1.023648  0
H  H30  1  0.38654147  0.93258055  0.33065220  1  0  0.13101  0  0.955719  0  0  0.13697  0  1.021197  0  0  0.141607  0  1.018158  0  0  0.110613  0.133553  0  1.023651  0
H  H31  1  0.11344996  0.43258778  0.66935178  1  0  0.131067  0  0.955594  0  0  0.13695  0  1.021156  0  0  0.141577  0  1.018146  0  0  0.110618  0.133557  0  1.023585  0
H  H32  1  0.63734922  0.21147709  0.81920515  1  0  0.104502  0  0.936231  0  0  0.115284  0  0.995855  0  0  0.118583  0  0.992743  0  0  0.11553  0.112767  0  0.998221  0
H  H33  1  0.86265395  0.71147555  0.18078389  1  0  0.104544  0  0.936177  0  0  0.115274  0  0.99584  0  0  0.118583  0  0.992719  0  0  0.115516  0.112756  0  0.998205  0
H  H34  1  0.36264566  0.78851999  0.18079305  1  0  0.104468  0  0.936257  0  0  0.115226  0  0.995912  0  0  0.118558  0  0.992754  0  0  0.115517  0.112714  0  0.998283  0
H  H35  1  0.13732918  0.28852740  0.81920683  1  0  0.104612  0  0.936191  0  0  0.115345  0  0.995856  0  0  0.118635  0  0.99275  0  0  0.11555  0.112828  0  0.99822  0
H  H36  1  0.66876349  0.42480089  0.37713065  1  0  0.060952  0  0.90766  0  0  0.069225  0  0.973868  0  0  0.071519  0  0.96868  0  0  0.11941  0.067315  0  0.97779  0
H  H37  1  0.83124192  0.92479646  0.62286682  1  0  0.061005  0  0.907698  0  0  0.069262  0  0.973936  0  0  0.071575  0  0.96873  0  0  0.119394  0.067357  0  0.977858  0
H  H38  1  0.33125340  0.57520792  0.62287895  1  0  0.061012  0  0.907611  0  0  0.069308  0  0.973795  0  0  0.071593  0  0.968618  0  0  0.119392  0.0674  0  0.977714  0
H  H39  1  0.16875300  0.07520063  0.37713640  1  0  0.060937  0  0.907701  0  0  0.069221  0  0.973932  0  0  0.071519  0  0.968743  0  0  0.119387  0.067314  0  0.977854  0
C  C40  1  0.65199857  0.35156506  0.70577142  1  0  -0.167909  0  3.771535  0  0  -0.144533  0  4.030603  0  0  -0.157294  0  4.055392  0  0  -0.032337  -0.136441  0  4.014094  0
C  C41  1  0.84799489  0.85156176  0.29422474  1  0  -0.16811  0  3.771819  0  0  -0.144715  0  4.030824  0  0  -0.157492  0  4.055643  0  0  -0.032444  -0.136626  0  4.014322  0
C  C42  1  0.34800810  0.64843203  0.29423927  1  0  -0.168058  0  3.771488  0  0  -0.144615  0  4.030435  0  0  -0.157376  0  4.05525  0  0  -0.032333  -0.136528  0  4.013937  0
C  C43  1  0.15199562  0.14844035  0.70577536  1  0  -0.16809  0  3.771547  0  0  -0.144686  0  4.030557  0  0  -0.157453  0  4.055339  0  0  -0.032429  -0.136596  0  4.014056  0
C  C44  1  0.65213174  0.38424621  0.59505394  1  0  -0.038265  0  3.724218  0  0  -0.075439  0  3.979155  0  0  -0.068974  0  3.99841  0  0  -0.070974  -0.079325  0  3.966053  0
C  C45  1  0.84786032  0.88424199  0.40493556  1  0  -0.038301  0  3.724473  0  0  -0.075468  0  3.979405  0  0  -0.068996  0  3.998648  0  0  -0.071042  -0.07935  0  3.966302  0
C  C46  1  0.34787928  0.61575423  0.40495150  1  0  -0.038376  0  3.724418  0  0  -0.075562  0  3.979297  0  0  -0.069106  0  3.998554  0  0  -0.071078  -0.079441  0  3.966185  0
C  C47  1  0.15212867  0.11575929  0.59505765  1  0  -0.038279  0  3.724471  0  0  -0.075447  0  3.979411  0  0  -0.068979  0  3.998661  0  0  -0.071003  -0.079334  0  3.966316  0
C  C48  1  0.63945073  0.30273725  0.50815910  1  0  -0.170436  0  3.81662  0  0  -0.151762  0  4.060187  0  0  -0.168861  0  4.087173  0  0  -0.040351  -0.140545  0  4.042002  0
C  C49  1  0.86055570  0.80273110  0.49183435  1  0  -0.170615  0  3.816579  0  0  -0.151875  0  4.060191  0  0  -0.168976  0  4.087177  0  0  -0.040354  -0.140662  0  4.042019  0
C  C50  1  0.36055879  0.69726906  0.49184279  1  0  -0.170679  0  3.816568  0  0  -0.151897  0  4.060112  0  0  -0.168993  0  4.087091  0  0  -0.04042  -0.140684  0  4.041938  0
C  C51  1  0.13944794  0.19726767  0.50816256  1  0  -0.170659  0  3.816779  0  0  -0.151968  0  4.060431  0  0  -0.169068  0  4.087412  0  0  -0.040397  -0.14075  0  4.04225  0
C  C52  1  0.62634397  0.18716182  0.53542041  1  0  0.352138  0  3.758556  0  0  0.335301  0  4.015542  0  0  0.352482  0  4.030898  0  0  0.108566  0.323799  0  4.004869  0
C  C53  1  0.87367525  0.68715632  0.46457570  1  0  0.352486  0  3.75793  0  0  0.335518  0  4.015139  0  0  0.352703  0  4.03048  0  0  0.108672  0.32401  0  4.004478  0
C  C54  1  0.37366407  0.81284197  0.46457794  1  0  0.352396  0  3.758328  0  0  0.335372  0  4.015533  0  0  0.352552  0  4.030883  0  0  0.108638  0.323866  0  4.004863  0
C  C55  1  0.12633425  0.31284412  0.53542368  1  0  0.352294  0  3.758228  0  0  0.335439  0  4.015288  0  0  0.352622  0  4.030633  0  0  0.108652  0.323935  0  4.004619  0
C  C56  1  0.62488150  0.15560970  0.64817810  1  0  -0.187856  0  3.682502  0  0  -0.206788  0  3.941999  0  0  -0.217305  0  3.961823  0  0  -0.096883  -0.200021  0  3.92888  0
C  C57  1  0.87513612  0.65560679  0.35181340  1  0  -0.187901  0  3.682241  0  0  -0.206784  0  3.94182  0  0  -0.217296  0  3.961636  0  0  -0.096884  -0.200019  0  3.928678  0
C  C58  1  0.37511483  0.84438572  0.35181779  1  0  -0.18801  0  3.682595  0  0  -0.206927  0  3.942188  0  0  -0.217435  0  3.962016  0  0  -0.096979  -0.200139  0  3.929079  0
C  C59  1  0.12486752  0.34439616  0.64818350  1  0  -0.187934  0  3.682319  0  0  -0.206822  0  3.941877  0  0  -0.217334  0  3.961691  0  0  -0.096922  -0.200052  0  3.928748  0
C  C60  1  0.63793876  0.23707007  0.73187311  1  0  0.016718  0  3.690554  0  0  -0.014001  0  3.947755  0  0  -0.007548  0  3.965804  0  0  -0.061754  -0.017804  0  3.935416  0
C  C61  1  0.86207039  0.73706576  0.26812194  1  0  0.016844  0  3.690486  0  0  -0.013818  0  3.947654  0  0  -0.007368  0  3.965694  0  0  -0.061584  -0.017623  0  3.935315  0
C  C62  1  0.36206783  0.76293120  0.26812670  1  0  0.016934  0  3.690405  0  0  -0.013788  0  3.94762  0  0  -0.007359  0  3.96565  0  0  -0.061673  -0.017601  0  3.935288  0
C  C63  1  0.13792447  0.26293719  0.73187375  1  0  0.01684  0  3.690471  0  0  -0.013833  0  3.947629  0  0  -0.007369  0  3.96567  0  0  -0.061574  -0.017638  0  3.935288  0
C  C64  1  0.64946086  0.33515707  0.39400519  1  0  0.367135  0  3.653605  0  0  0.316244  0  3.931253  0  0  0.342708  0  3.928005  0  0  0.101128  0.298374  0  3.933428  0
C  C65  1  0.85055151  0.83515337  0.60598679  1  0  0.367045  0  3.653892  0  0  0.316132  0  3.931568  0  0  0.342575  0  3.928323  0  0  0.10104  0.298265  0  3.933758  0
C  C66  1  0.35055309  0.66485174  0.60600149  1  0  0.367117  0  3.653587  0  0  0.316167  0  3.931281  0  0  0.342634  0  3.928032  0  0  0.101123  0.298302  0  3.933463  0
C  C67  1  0.14944339  0.16484456  0.39401392  1  0  0.367237  0  3.653667  0  0  0.316271  0  3.931414  0  0  0.342724  0  3.928173  0  0  0.101095  0.298397  0  3.9336  0
S  S68  1  0.68826219  0.45107911  0.81942481  1  0  1.320914  0  5.64075  0  0  1.219172  0  6.159249  0  0  1.267314  0  6.136212  0  0  0.528231  1.186009  0  6.174082  0
S  S69  1  0.81173310  0.95107923  0.18057645  1  0  1.32101  0  5.64069  0  0  1.219286  0  6.159152  0  0  1.26743  0  6.136105  0  0  0.528217  1.186123  0  6.173985  0
S  S70  1  0.31174006  0.54892050  0.18058109  1  0  1.32098  0  5.640637  0  0  1.219196  0  6.159155  0  0  1.267351  0  6.136116  0  0  0.528219  1.186038  0  6.173977  0
S  S71  1  0.18826179  0.04892205  0.81942426  1  0  1.320948  0  5.640888  0  0  1.219215  0  6.159361  0  0  1.267357  0  6.136316  0  0  0.528227  1.186054  0  6.174193  0
O  O72  1  0.68224620  0.56166260  0.76620360  1  0  -0.697567  0  1.975717  0  0  -0.652409  0  2.237232  0  0  -0.67266  0  2.22243  0  0  -0.386184  -0.637968  0  2.246843  0
O  O73  1  0.81775508  0.06166190  0.23379503  1  0  -0.697585  0  1.975831  0  0  -0.6524  0  2.237308  0  0  -0.672652  0  2.22251  0  0  -0.386161  -0.637957  0  2.24691  0
O  O74  1  0.31775749  0.43833616  0.23379916  1  0  -0.697575  0  1.975703  0  0  -0.652402  0  2.237216  0  0  -0.672649  0  2.222409  0  0  -0.386199  -0.63796  0  2.246813  0
O  O75  1  0.18223980  0.93834021  0.76620317  1  0  -0.697564  0  1.975943  0  0  -0.652385  0  2.237431  0  0  -0.672638  0  2.222633  0  0  -0.38615  -0.63794  0  2.247037  0
O  O76  1  0.52998002  0.43282303  0.87911702  1  0  -0.683313  0  2.007162  0  0  -0.618686  0  2.242363  0  0  -0.641157  0  2.227813  0  0  -0.321324  -0.602816  0  2.251919  0
O  O77  1  0.97000784  0.93282026  0.12087641  1  0  -0.683334  0  2.007071  0  0  -0.618735  0  2.242304  0  0  -0.641212  0  2.227752  0  0  -0.321341  -0.602852  0  2.251835  0
O  O78  1  0.47001927  0.56717489  0.12088513  1  0  -0.683332  0  2.007048  0  0  -0.618751  0  2.242284  0  0  -0.641224  0  2.227733  0  0  -0.321346  -0.602867  0  2.251803  0
O  O79  1  0.02998558  0.06717850  0.87912242  1  0  -0.683346  0  2.007122  0  0  -0.618755  0  2.242319  0  0  -0.641228  0  2.227767  0  0  -0.321378  -0.602885  0  2.251875  0
O  O80  1  0.88303881  0.42495676  0.89404348  1  0  -0.682136  0  2.006938  0  0  -0.616954  0  2.242221  0  0  -0.639846  0  2.227509  0  0  -0.319972  -0.600767  0  2.251855  0
O  O81  1  0.61695492  0.92495467  0.10595571  1  0  -0.682234  0  2.006936  0  0  -0.617045  0  2.242217  0  0  -0.639936  0  2.22751  0  0  -0.319965  -0.600858  0  2.251851  0
O  O82  1  0.11696632  0.57504451  0.10595780  1  0  -0.682189  0  2.007042  0  0  -0.616948  0  2.242328  0  0  -0.63988  0  2.227638  0  0  -0.319941  -0.600765  0  2.251957  0
O  O83  1  0.38303996  0.07504576  0.89404165  1  0  -0.682186  0  2.006988  0  0  -0.616981  0  2.24227  0  0  -0.639865  0  2.227549  0  0  -0.319956  -0.60079  0  2.251901  0
O  O84  1  0.64104190  0.26506070  0.31459597  1  0  -0.525751  0  2.045978  0  0  -0.473489  0  2.283363  0  0  -0.492611  0  2.275343  0  0  -0.328656  -0.460655  0  2.288795  0
O  O85  1  0.85894681  0.76506172  0.68538975  1  0  -0.525726  0  2.046175  0  0  -0.47346  0  2.283587  0  0  -0.492579  0  2.275574  0  0  -0.328586  -0.46064  0  2.289029  0
O  O86  1  0.35895005  0.73494392  0.68540098  1  0  -0.525681  0  2.046034  0  0  -0.473435  0  2.283518  0  0  -0.492551  0  2.275484  0  0  -0.328599  -0.460604  0  2.288956  0
O  O87  1  0.14103632  0.23493620  0.31460097  1  0  -0.525846  0  2.045956  0  0  -0.473528  0  2.283313  0  0  -0.492649  0  2.275297  0  0  -0.328669  -0.4607  0  2.288747  0
O  O88  1  0.61549017  0.10766050  0.45490211  1  0  -0.487054  0  2.122192  0  0  -0.432602  0  2.339162  0  0  -0.454547  0  2.330441  0  0  -0.320982  -0.417006  0  2.344648  0
O  O89  1  0.88453022  0.60765723  0.54509112  1  0  -0.487219  0  2.122147  0  0  -0.432715  0  2.339161  0  0  -0.454657  0  2.330433  0  0  -0.321014  -0.417128  0  2.344612  0
O  O90  1  0.38450614  0.89234664  0.54509210  1  0  -0.487236  0  2.121992  0  0  -0.432669  0  2.33898  0  0  -0.454613  0  2.330255  0  0  -0.321003  -0.417061  0  2.344458  0
O  O91  1  0.11548072  0.39234238  0.45490429  1  0  -0.487077  0  2.122248  0  0  -0.432631  0  2.339242  0  0  -0.454572  0  2.330514  0  0  -0.321003  -0.417045  0  2.344707  0
O  O92  1  0.32325029  0.05792195  0.16941728  1  0  -0.874853  0  1.748643  0  0  -0.831914  0  1.905023  0  0  -0.847884  0  1.875939  0  0  -0.659019  -0.820447  0  1.925386  0
O  O93  1  0.17674431  0.55792476  0.83059046  1  0  -0.874666  0  1.74889  0  0  -0.83172  0  1.905274  0  0  -0.847689  0  1.876193  0  0  -0.658926  -0.820251  0  1.925639  0
O  O94  1  0.67674465  0.94207430  0.83058761  1  0  -0.874732  0  1.748844  0  0  -0.831776  0  1.905208  0  0  -0.847751  0  1.876141  0  0  -0.658935  -0.820308  0  1.925573  0
O  O95  1  0.82325935  0.44207401  0.16940811  1  0  -0.874825  0  1.748723  0  0  -0.831852  0  1.905111  0  0  -0.847826  0  1.876023  0  0  -0.658933  -0.82039  0  1.92548  0
O  O96  1  0.50082338  0.25942714  0.02685362  1  0  -0.937646  0  1.755962  0  0  -0.899776  0  1.932391  0  0  -0.914145  0  1.89849  0  0  -0.717043  -0.889569  0  1.95623  0
O  O97  1  0.99917418  0.75942510  0.97314666  1  0  -0.937741  0  1.755896  0  0  -0.899873  0  1.932357  0  0  -0.914233  0  1.898431  0  0  -0.717067  -0.889658  0  1.956181  0
O  O98  1  0.49918177  0.74056743  0.97314934  1  0  -0.937603  0  1.756032  0  0  -0.899751  0  1.93248  0  0  -0.914116  0  1.898567  0  0  -0.717117  -0.889537  0  1.956309  0
O  O99  1  0.00082364  0.24057199  0.02685361  1  0  -0.937684  0  1.755958  0  0  -0.899825  0  1.932391  0  0  -0.914193  0  1.898484  0  0  -0.717108  -0.889616  0  1.956226  0
