# generated using pymatgen
data_CdH24C30(N3O4)2
_symmetry_space_group_name_H-M   'P 1'
_cell_length_a   10.02503964
_cell_length_b   17.98782947
_cell_length_c   17.30918466
_cell_angle_alpha   89.99874035
_cell_angle_beta   90.00041366
_cell_angle_gamma   90.00157297
_symmetry_Int_Tables_number   1
_chemical_formula_structural   CdH24C30(N3O4)2
_chemical_formula_sum   'Cd4 H96 C120 N24 O32'
_cell_volume   3121.34282460
_cell_formula_units_Z   4
loop_
 _symmetry_equiv_pos_site_id
 _symmetry_equiv_pos_as_xyz
  1  'x, y, z'
loop_
 _atom_site_type_symbol
 _atom_site_label
 _atom_site_symmetry_multiplicity
 _atom_site_fract_x
 _atom_site_fract_y
 _atom_site_fract_z
 _atom_site_occupancy
 _atom_site_pbe_bader_charge
 _atom_site_pbe_bader_spin_density
 _atom_site_pbe_cm5_charge
 _atom_site_pbe_ddec_charge
 _atom_site_pbe_ddec_spin_density
 _atom_site_pbe_ddec_sum_bond_order
 _atom_site_pbe_magmom
Cd  Cd0  1  0.50002101  0.75001161  0.70516743  1  1.288095  0  0.773254  0.937601  0  2.097613  0
Cd  Cd1  1  0.00001134  0.24999204  0.79483132  1  1.288029  0  0.773259  0.937631  0  2.097484  0
Cd  Cd2  1  0.49999311  0.25000356  0.29482666  1  1.287867  0  0.773252  0.937642  0  2.097446  0
Cd  Cd3  1  0.00000075  0.75000209  0.20517120  1  1.287832  0  0.773223  0.937617  0  2.097393  0
H  H4  1  0.94860887  0.02633267  0.83573072  1  0.053985  0  0.106745  0.115035  0  0.987927  0
H  H5  1  0.55140459  0.52634511  0.66427149  1  0.054193  0  0.106766  0.115054  0  0.987815  0
H  H6  1  0.05140042  0.47365822  0.83572515  1  0.054277  0  0.106788  0.115122  0  0.987921  0
H  H7  1  0.44857704  0.97365454  0.66426749  1  0.054292  0  0.106761  0.115015  0  0.987773  0
H  H8  1  0.05140126  0.97365694  0.16428129  1  0.053603  0  0.106798  0.115147  0  0.987897  0
H  H9  1  0.44859157  0.47365672  0.33573358  1  0.054143  0  0.106742  0.115023  0  0.987736  0
H  H10  1  0.94859874  0.52634250  0.16426779  1  0.054112  0  0.106754  0.115042  0  0.987719  0
H  H11  1  0.55141115  0.02634840  0.33572372  1  0.053565  0  0.106797  0.115077  0  0.987847  0
H  H12  1  0.82277594  0.05748795  0.71683082  1  0.073728  0  0.099245  0.10372  0  1.014222  0
H  H13  1  0.67721711  0.55749696  0.78317417  1  0.073475  0  0.099251  0.103668  0  1.01421  0
H  H14  1  0.17719190  0.44250386  0.71682644  1  0.073683  0  0.099246  0.103728  0  1.014075  0
H  H15  1  0.32275611  0.94250177  0.78316631  1  0.073398  0  0.099221  0.103611  0  1.014174  0
H  H16  1  0.17723918  0.94251555  0.28317598  1  0.073519  0  0.09926  0.103691  0  1.014178  0
H  H17  1  0.32277906  0.44250654  0.21683148  1  0.073596  0  0.099242  0.103661  0  1.014187  0
H  H18  1  0.82279130  0.55749075  0.28316997  1  0.073739  0  0.09927  0.10374  0  1.014228  0
H  H19  1  0.67722809  0.05750284  0.21682201  1  0.073323  0  0.099205  0.10361  0  1.014079  0
H  H20  1  0.81000544  0.96429438  0.60913457  1  0.07378  0  0.093078  0.087465  0  1.038399  0
H  H21  1  0.68998856  0.46430565  0.89087007  1  0.073792  0  0.093084  0.087383  0  1.038389  0
H  H22  1  0.18996649  0.53569147  0.60912654  1  0.074237  0  0.09308  0.087373  0  1.038476  0
H  H23  1  0.30999753  0.03569126  0.89085789  1  0.073793  0  0.093053  0.087316  0  1.038471  0
H  H24  1  0.19000668  0.03570857  0.39086646  1  0.073612  0  0.093038  0.087354  0  1.038403  0
H  H25  1  0.31001260  0.53570230  0.10913847  1  0.073766  0  0.093022  0.087277  0  1.038627  0
H  H26  1  0.81001871  0.46429479  0.39086640  1  0.07435  0  0.093112  0.087456  0  1.038405  0
H  H27  1  0.68998667  0.96430668  0.10913332  1  0.073743  0  0.093068  0.087344  0  1.038573  0
H  H28  1  0.92121806  0.84150816  0.62365446  1  0.132737  0  0.108114  0.126248  0  1.018928  0
H  H29  1  0.57879986  0.34151249  0.87634829  1  0.132727  0  0.108135  0.126236  0  1.018949  0
H  H30  1  0.07878200  0.65848515  0.62364673  1  0.132685  0  0.10811  0.126253  0  1.018857  0
H  H31  1  0.42119601  0.15848307  0.87634827  1  0.132836  0  0.108131  0.126267  0  1.018963  0
H  H32  1  0.07879507  0.15849256  0.37634946  1  0.132716  0  0.108107  0.126244  0  1.018914  0
H  H33  1  0.42120628  0.65849435  0.12365448  1  0.132722  0  0.108137  0.126252  0  1.018904  0
H  H34  1  0.92121317  0.34150112  0.37634448  1  0.132655  0  0.108129  0.126209  0  1.018958  0
H  H35  1  0.57880116  0.84151431  0.12365565  1  0.132823  0  0.108162  0.126277  0  1.019031  0
H  H36  1  0.14839284  0.72680724  0.84625799  1  0.076111  0  0.111239  0.109848  0  0.981529  0
H  H37  1  0.35161943  0.22681283  0.65374532  1  0.076334  0  0.111256  0.109915  0  0.981496  0
H  H38  1  0.85162910  0.77319068  0.84625539  1  0.07637  0  0.111247  0.109897  0  0.981639  0
H  H39  1  0.64839745  0.27318647  0.65374482  1  0.076293  0  0.111218  0.109849  0  0.981459  0
H  H40  1  0.85160732  0.27318403  0.15374189  1  0.076372  0  0.111221  0.109886  0  0.981505  0
H  H41  1  0.64838871  0.77319067  0.34626264  1  0.076259  0  0.111219  0.109869  0  0.981395  0
H  H42  1  0.14837804  0.22681171  0.15374101  1  0.076306  0  0.111245  0.1099  0  0.981522  0
H  H43  1  0.35160969  0.72681703  0.34625159  1  0.076446  0  0.111234  0.109897  0  0.981533  0
H  H44  1  0.37197863  0.78928379  0.86334808  1  0.130009  0  0.117429  0.090608  0  1.025597  0
H  H45  1  0.12800777  0.28928354  0.63664691  1  0.13017  0  0.117462  0.090648  0  1.025418  0
H  H46  1  0.62801061  0.71072264  0.86334657  1  0.130054  0  0.117426  0.090575  0  1.025463  0
H  H47  1  0.87197397  0.21070669  0.63664636  1  0.129842  0  0.117458  0.090675  0  1.025389  0
H  H48  1  0.62801255  0.21071749  0.13664544  1  0.130098  0  0.117458  0.090671  0  1.025522  0
H  H49  1  0.87198840  0.71072163  0.36335008  1  0.129965  0  0.117428  0.090599  0  1.025527  0
H  H50  1  0.37196461  0.28928697  0.13665388  1  0.129645  0  0.117529  0.090723  0  1.025527  0
H  H51  1  0.12803616  0.78929904  0.36334254  1  0.129888  0  0.117512  0.090735  0  1.02572  0
H  H52  1  0.37834554  0.87514343  0.97712200  1  0.139533  0  0.118592  0.138433  0  1.002243  0
H  H53  1  0.12162111  0.37515445  0.52287744  1  0.139767  0  0.118598  0.138473  0  1.002318  0
H  H54  1  0.62162125  0.62485385  0.97711890  1  0.139829  0  0.118581  0.138519  0  1.002285  0
H  H55  1  0.87835015  0.12484214  0.52287824  1  0.139742  0  0.118541  0.138374  0  1.002206  0
H  H56  1  0.62165062  0.12485173  0.02287556  1  0.139577  0  0.118548  0.138368  0  1.002296  0
H  H57  1  0.87834313  0.62485294  0.47712532  1  0.139512  0  0.118592  0.13841  0  1.00223  0
H  H58  1  0.37832205  0.37515465  0.02288097  1  0.139417  0  0.118575  0.138316  0  1.002249  0
H  H59  1  0.12167694  0.87515247  0.47711701  1  0.139499  0  0.118584  0.138342  0  1.002293  0
H  H60  1  0.72537244  0.97769824  0.87400982  1  0.100144  0  0.110793  0.122367  0  1.018718  0
H  H61  1  0.77462222  0.47769491  0.62602053  1  0.100688  0  0.110735  0.12243  0  1.018769  0
H  H62  1  0.27461495  0.52230463  0.87398335  1  0.100554  0  0.110761  0.122419  0  1.018855  0
H  H63  1  0.22537734  0.02230889  0.62600369  1  0.100322  0  0.110752  0.122334  0  1.018932  0
H  H64  1  0.27462174  0.02230527  0.12599756  1  0.100081  0  0.110748  0.12235  0  1.018795  0
H  H65  1  0.22536098  0.52230915  0.37401228  1  0.100365  0  0.110801  0.122318  0  1.018765  0
H  H66  1  0.72536526  0.47769498  0.12598301  1  0.100227  0  0.110768  0.122256  0  1.018807  0
H  H67  1  0.77463180  0.97768683  0.37401236  1  0.100303  0  0.110772  0.122246  0  1.018874  0
H  H68  1  0.70672515  0.88556087  0.76493923  1  0.119065  0  0.111413  0.080478  0  1.045199  0
H  H69  1  0.79329093  0.38554990  0.73508045  1  0.118696  0  0.111442  0.080575  0  1.045168  0
H  H70  1  0.29327975  0.61444716  0.76491831  1  0.118568  0  0.111413  0.080498  0  1.045235  0
H  H71  1  0.20672402  0.11444541  0.73507016  1  0.118855  0  0.111422  0.080465  0  1.045218  0
H  H72  1  0.29328099  0.11444319  0.23506295  1  0.119119  0  0.111439  0.080489  0  1.045192  0
H  H73  1  0.20671920  0.61444749  0.26494022  1  0.119173  0  0.111428  0.080387  0  1.045213  0
H  H74  1  0.70672240  0.38555690  0.23505672  1  0.119144  0  0.111418  0.080396  0  1.045264  0
H  H75  1  0.79329110  0.88556143  0.26493665  1  0.119174  0  0.11145  0.080526  0  1.045211  0
H  H76  1  0.06045368  0.93993552  0.91016834  1  0.451553  0  0.330845  0.287676  0  0.903418  0
H  H77  1  0.43957600  0.43994831  0.58982852  1  0.451499  0  0.330858  0.287627  0  0.903345  0
H  H78  1  0.93955912  0.56004932  0.91017082  1  0.451348  0  0.330862  0.287684  0  0.903378  0
H  H79  1  0.56043505  0.06005794  0.58983585  1  0.451624  0  0.330939  0.287748  0  0.903366  0
H  H80  1  0.93954049  0.06005074  0.08984136  1  0.452042  0  0.330864  0.287748  0  0.903415  0
H  H81  1  0.56042416  0.56006075  0.41017483  1  0.451455  0  0.330924  0.28769  0  0.903433  0
H  H82  1  0.06043406  0.43994139  0.08982443  1  0.451496  0  0.330874  0.287662  0  0.903358  0
H  H83  1  0.43955413  0.93994556  0.41015767  1  0.452185  0  0.330921  0.287781  0  0.903331  0
H  H84  1  0.56937358  0.80023111  0.55198071  1  0.614565  0  0.299458  0.38625  0  0.927347  0
H  H85  1  0.93066726  0.30023928  0.94801370  1  0.614216  0  0.299478  0.386229  0  0.927376  0
H  H86  1  0.43068837  0.69976933  0.55197924  1  0.614094  0  0.299461  0.386181  0  0.927439  0
H  H87  1  0.06936446  0.19977751  0.94802294  1  0.614307  0  0.299477  0.38629  0  0.927294  0
H  H88  1  0.43064055  0.19978129  0.44801859  1  0.614386  0  0.299565  0.386346  0  0.927224  0
H  H89  1  0.06934786  0.69976589  0.05198328  1  0.614271  0  0.299508  0.386297  0  0.927302  0
H  H90  1  0.56935168  0.30023195  0.44801775  1  0.614435  0  0.299539  0.38632  0  0.927257  0
H  H91  1  0.93064367  0.80021877  0.05198040  1  0.614392  0  0.299546  0.386298  0  0.927287  0
H  H92  1  0.69678825  0.77560768  0.60100145  1  0.661975  0  0.28247  0.379112  0  0.964873  0
H  H93  1  0.80324539  0.27560329  0.89900448  1  0.662477  0  0.282386  0.378958  0  0.965031  0
H  H94  1  0.30326038  0.72440225  0.60098391  1  0.662148  0  0.282423  0.379053  0  0.964906  0
H  H95  1  0.19678070  0.22439900  0.89900443  1  0.662054  0  0.282446  0.379119  0  0.96487  0
H  H96  1  0.30322387  0.22440138  0.39900304  1  0.662037  0  0.282432  0.379034  0  0.965001  0
H  H97  1  0.19676873  0.72439910  0.10099135  1  0.66224  0  0.282507  0.379186  0  0.964775  0
H  H98  1  0.69676871  0.27560014  0.39900730  1  0.662229  0  0.2825  0.379134  0  0.964842  0
H  H99  1  0.80323043  0.77559727  0.10099949  1  0.662232  0  0.282442  0.379113  0  0.964922  0
C  C100  1  0.99459627  0.91452619  0.79895090  1  0.281985  0  0.091323  0.183212  0  4.038858  0
C  C101  1  0.50542123  0.41452987  0.70104618  1  0.282362  0  0.091419  0.183354  0  4.038758  0
C  C102  1  0.00541607  0.58547164  0.79895779  1  0.282326  0  0.091337  0.183238  0  4.038659  0
C  C103  1  0.49457732  0.08546840  0.70104345  1  0.282414  0  0.091381  0.18319  0  4.03891  0
C  C104  1  0.00540688  0.08547064  0.20105013  1  0.281985  0  0.091314  0.183315  0  4.039163  0
C  C105  1  0.49458491  0.58547419  0.29896005  1  0.282264  0  0.091371  0.183167  0  4.038933  0
C  C106  1  0.99458309  0.41452630  0.20104613  1  0.282251  0  0.091388  0.183274  0  4.038787  0
C  C107  1  0.50541586  0.91453454  0.29894949  1  0.281991  0  0.09133  0.183256  0  4.039019  0
C  C108  1  0.93875477  0.98536543  0.78944349  1  -0.063849  0  -0.103184  -0.197725  0  4.016314  0
C  C109  1  0.56125223  0.48537143  0.71055838  1  -0.063918  0  -0.103305  -0.197784  0  4.016025  0
C  C110  1  0.06124647  0.51463206  0.78944177  1  -0.064259  0  -0.10329  -0.197888  0  4.016307  0
C  C111  1  0.43873946  0.01462997  0.71055353  1  -0.064632  0  -0.103366  -0.197775  0  4.016004  0
C  C112  1  0.06125038  0.01463363  0.21056331  1  -0.06323  0  -0.10327  -0.197942  0  4.016196  0
C  C113  1  0.43874194  0.51463319  0.28944670  1  -0.0641  0  -0.103249  -0.197723  0  4.01581  0
C  C114  1  0.93874870  0.48536644  0.21055406  1  -0.064211  0  -0.103166  -0.19763  0  4.015913  0
C  C115  1  0.56125472  0.98537464  0.28943479  1  -0.063208  0  -0.103326  -0.197847  0  4.016101  0
C  C116  1  0.86933406  0.00299418  0.72229972  1  -0.010149  0  -0.094908  -0.070345  0  4.035932  0
C  C117  1  0.63066829  0.50300259  0.77770706  1  -0.009859  0  -0.094886  -0.07036  0  4.035723  0
C  C118  1  0.13065181  0.49700251  0.72228990  1  -0.009672  0  -0.094883  -0.070378  0  4.035821  0
C  C119  1  0.36931882  0.99699848  0.77770107  1  -0.009626  0  -0.0948  -0.070269  0  4.035527  0
C  C120  1  0.13067408  0.99700932  0.27771056  1  -0.010085  0  -0.09493  -0.070345  0  4.035703  0
C  C121  1  0.36932588  0.49700480  0.22229570  1  -0.010093  0  -0.094896  -0.070408  0  4.035806  0
C  C122  1  0.86933937  0.50299376  0.27770247  1  -0.009761  0  -0.09504  -0.070617  0  4.036055  0
C  C123  1  0.63066937  0.00300335  0.22228436  1  -0.009797  0  -0.094818  -0.070245  0  4.035563  0
C  C124  1  0.86184666  0.95090959  0.66269541  1  -0.010095  0  -0.105665  -0.105591  0  4.037704  0
C  C125  1  0.63816264  0.45091901  0.83730896  1  -0.010501  0  -0.105627  -0.105382  0  4.037719  0
C  C126  1  0.13814293  0.54908232  0.66268514  1  -0.01101  0  -0.105555  -0.105366  0  4.038005  0
C  C127  1  0.36183470  0.04908018  0.83730420  1  -0.010385  0  -0.105568  -0.105215  0  4.037784  0
C  C128  1  0.13816447  0.04909225  0.33731313  1  -0.010059  0  -0.105576  -0.105324  0  4.037472  0
C  C129  1  0.36183651  0.54908783  0.16269438  1  -0.010115  0  -0.105521  -0.1051  0  4.037743  0
C  C130  1  0.86184924  0.45090950  0.33730665  1  -0.011005  0  -0.105566  -0.105324  0  4.037521  0
C  C131  1  0.63815947  0.95091943  0.16268412  1  -0.010558  0  -0.105624  -0.105402  0  4.038286  0
C  C132  1  0.92352158  0.88168372  0.67060308  1  -0.063205  0  -0.088661  -0.107199  0  3.952656  0
C  C133  1  0.57649630  0.38168848  0.82939473  1  -0.063188  0  -0.088719  -0.107282  0  3.95299  0
C  C134  1  0.07648208  0.61831079  0.67060201  1  -0.063334  0  -0.088708  -0.107247  0  3.952808  0
C  C135  1  0.42350293  0.11830922  0.82939446  1  -0.063287  0  -0.088702  -0.107358  0  3.953135  0
C  C136  1  0.07648955  0.11831533  0.32940026  1  -0.063599  0  -0.088653  -0.107265  0  3.952655  0
C  C137  1  0.42350884  0.61831502  0.17060861  1  -0.0632  0  -0.088767  -0.107497  0  3.953051  0
C  C138  1  0.92351808  0.38168159  0.32939266  1  -0.063456  0  -0.088772  -0.107373  0  3.952779  0
C  C139  1  0.57649822  0.88169373  0.17059675  1  -0.063397  0  -0.088701  -0.107249  0  3.953105  0
C  C140  1  0.98667838  0.86077654  0.73948074  1  0.000256  0  -0.013655  -0.021289  0  3.904409  0
C  C141  1  0.51334646  0.36078072  0.76051522  1  0.00035  0  -0.013599  -0.021329  0  3.904472  0
C  C142  1  0.01334314  0.63921703  0.73948358  1  0.000764  0  -0.013605  -0.021171  0  3.904476  0
C  C143  1  0.48665387  0.13921237  0.76051416  1  0.000693  0  -0.013608  -0.021191  0  3.904153  0
C  C144  1  0.01333275  0.13921639  0.26051971  1  0.000506  0  -0.013595  -0.021292  0  3.904372  0
C  C145  1  0.48665868  0.63922167  0.23948812  1  0.00023  0  -0.013532  -0.021024  0  3.904146  0
C  C146  1  0.98666499  0.36077758  0.26051340  1  0.000378  0  -0.013525  -0.021131  0  3.904567  0
C  C147  1  0.51335028  0.86079002  0.23948052  1  0.000725  0  -0.013607  -0.021279  0  3.903615  0
C  C148  1  0.05099251  0.78479285  0.75006429  1  0.015379  0  0.005622  -0.032753  0  3.681363  0
C  C149  1  0.44903057  0.28479896  0.74993600  1  1.7e-05  0  0.005529  -0.03261  0  3.681397  0
C  C150  1  0.94902217  0.71519715  0.75005528  1  -0.000147  0  0.005609  -0.032818  0  3.681423  0
C  C151  1  0.55098757  0.21520102  0.74994044  1  0.015223  0  0.005631  -0.032734  0  3.681025  0
C  C152  1  0.94900565  0.21520231  0.24993905  1  0.015508  0  0.005587  -0.032755  0  3.681236  0
C  C153  1  0.55099652  0.71520676  0.25005867  1  0.015391  0  0.005607  -0.032832  0  3.681318  0
C  C154  1  0.05097799  0.28479690  0.24994055  1  0.000174  0  0.005491  -0.032823  0  3.68127  0
C  C155  1  0.44901857  0.78479359  0.25006001  1  6.5e-05  0  0.00557  -0.032569  0  3.680984  0
C  C156  1  0.17807187  0.78054484  0.69977683  1  1.588174  0  0.204378  0.5717  0  4.200224  0
C  C157  1  0.32196098  0.28054567  0.80021835  1  1.588595  0  0.204231  0.571359  0  4.200545  0
C  C158  1  0.82195212  0.71945182  0.69978052  1  1.588572  0  0.204194  0.571435  0  4.200508  0
C  C159  1  0.67806082  0.21944543  0.80022204  1  1.588002  0  0.204064  0.571288  0  4.200754  0
C  C160  1  0.82193626  0.21944866  0.30022304  1  1.588164  0  0.204126  0.571372  0  4.200607  0
C  C161  1  0.67805713  0.71945283  0.19977863  1  1.588415  0  0.204277  0.571584  0  4.200663  0
C  C162  1  0.17804704  0.28054890  0.30022571  1  1.58854  0  0.204134  0.571281  0  4.200464  0
C  C163  1  0.32195630  0.78055140  0.19977841  1  1.588382  0  0.204011  0.571043  0  4.200736  0
C  C164  1  0.07017765  0.76856774  0.83746550  1  0.01129  0  -0.079548  -0.167887  0  3.832032  0
C  C165  1  0.42985063  0.26857213  0.66253168  1  -0.010953  0  -0.079514  -0.168059  0  3.831947  0
C  C166  1  0.92984716  0.73142369  0.83747339  1  -0.010954  0  -0.079512  -0.168162  0  3.831738  0
C  C167  1  0.57016038  0.23142809  0.66253641  1  0.011423  0  -0.079566  -0.168198  0  3.832334  0
C  C168  1  0.92983847  0.23142464  0.16253033  1  0.011385  0  -0.079586  -0.168234  0  3.832173  0
C  C169  1  0.57016050  0.73142748  0.33747050  1  -0.010742  0  -0.079482  -0.167999  0  3.831833  0
C  C170  1  0.07015499  0.26857092  0.16253342  1  -0.010961  0  -0.079553  -0.167989  0  3.831867  0
C  C171  1  0.42984077  0.76857708  0.33746693  1  0.011192  0  -0.07955  -0.168217  0  3.83208  0
C  C172  1  0.08763880  0.82907148  0.89589916  1  1.398732  0  0.240608  0.516955  0  4.108322  0
C  C173  1  0.41237748  0.32908688  0.60409090  1  1.398506  0  0.240696  0.516908  0  4.108052  0
C  C174  1  0.91236683  0.67090700  0.89591294  1  1.398866  0  0.240532  0.516738  0  4.108597  0
C  C175  1  0.58762778  0.17091128  0.60409589  1  1.399162  0  0.240746  0.516936  0  4.108371  0
C  C176  1  0.91236036  0.17090422  0.10409609  1  1.398577  0  0.240682  0.517  0  4.108443  0
C  C177  1  0.58761171  0.67090884  0.39591244  1  1.398566  0  0.24063  0.516754  0  4.108383  0
C  C178  1  0.08762235  0.32908816  0.10409560  1  1.399043  0  0.240715  0.516942  0  4.108233  0
C  C179  1  0.41237138  0.82909500  0.39589936  1  1.399708  0  0.240716  0.517067  0  4.108214  0
C  C180  1  0.44909460  0.83142393  0.86844622  1  0.486786  0  0.047003  0.10411  0  3.953948  0
C  C181  1  0.05089286  0.33142204  0.63155766  1  0.485872  0  0.0471  0.104343  0  3.953948  0
C  C182  1  0.55089371  0.66857850  0.86843956  1  0.485648  0  0.047097  0.104407  0  3.953715  0
C  C183  1  0.94909280  0.16856940  0.63155315  1  0.486806  0  0.047099  0.104292  0  3.953866  0
C  C184  1  0.55089957  0.16857901  0.13154903  1  0.48614  0  0.047043  0.10412  0  3.954092  0
C  C185  1  0.94909732  0.66858035  0.36844799  1  0.486077  0  0.047033  0.104191  0  3.954076  0
C  C186  1  0.44908151  0.33142889  0.13155338  1  0.48713  0  0.047057  0.104027  0  3.954117  0
C  C187  1  0.05092132  0.83143132  0.36844268  1  0.486838  0  0.046942  0.103869  0  3.954576  0
C  C188  1  0.45159593  0.87948188  0.93084378  1  -0.008501  0  -0.069264  -0.180225  0  3.892801  0
C  C189  1  0.04837693  0.37948353  0.56915846  1  -0.00784  0  -0.069456  -0.180704  0  3.893064  0
C  C190  1  0.54837724  0.62051586  0.93083875  1  -0.007826  0  -0.069391  -0.180691  0  3.893061  0
C  C191  1  0.95160592  0.12050816  0.56915791  1  -0.008189  0  -0.069402  -0.180493  0  3.892902  0
C  C192  1  0.54839824  0.12051996  0.06915205  1  -0.008529  0  -0.069253  -0.180186  0  3.89277  0
C  C193  1  0.95159530  0.62051941  0.43084661  1  -0.008564  0  -0.069195  -0.180154  0  3.892825  0
C  C194  1  0.45158102  0.37948931  0.06915477  1  -0.008594  0  -0.069336  -0.180042  0  3.892837  0
C  C195  1  0.04841917  0.87948700  0.43084080  1  -0.008652  0  -0.069317  -0.180025  0  3.892929  0
C  C196  1  0.55051259  0.93440644  0.93120964  1  0.335728  0  0.109289  0.202811  0  4.0549  0
C  C197  1  0.94946199  0.43440650  0.56880086  1  0.336095  0  0.109324  0.20324  0  4.054521  0
C  C198  1  0.44945958  0.56559518  0.93119735  1  0.336108  0  0.109253  0.203162  0  4.054672  0
C  C199  1  0.05052983  0.06559243  0.56879682  1  0.335733  0  0.109341  0.203014  0  4.055022  0
C  C200  1  0.44947459  0.06559484  0.06879081  1  0.335856  0  0.109296  0.202814  0  4.054742  0
C  C201  1  0.05050924  0.56559700  0.43121345  1  0.33564  0  0.109143  0.202566  0  4.055057  0
C  C202  1  0.55050566  0.43440610  0.06878692  1  0.335424  0  0.109166  0.202495  0  4.055134  0
C  C203  1  0.94948828  0.93440162  0.43121172  1  0.335763  0  0.109254  0.202553  0  4.054813  0
C  C204  1  0.64759016  0.93558750  0.87344858  1  7.1e-05  0  -0.075746  -0.186537  0  3.919363  0
C  C205  1  0.85239744  0.43558203  0.62657172  1  -0.000761  0  -0.07552  -0.186506  0  3.919474  0
C  C206  1  0.35239223  0.56441538  0.87342958  1  -0.000277  0  -0.075568  -0.186539  0  3.919584  0
C  C207  1  0.14759614  0.06441398  0.62655769  1  -0.000119  0  -0.075634  -0.186401  0  3.919652  0
C  C208  1  0.35239902  0.06441767  0.12655649  1  0.000174  0  -0.075732  -0.18657  0  3.919528  0
C  C209  1  0.14759074  0.56442036  0.37345242  1  0.00055  0  -0.075652  -0.186364  0  3.919419  0
C  C210  1  0.64758798  0.43558423  0.12654777  1  0.000223  0  -0.075598  -0.186193  0  3.919169  0
C  C211  1  0.85240701  0.93558008  0.37344681  1  0.000145  0  -0.075649  -0.186224  0  3.919448  0
C  C212  1  0.63627686  0.88512507  0.81293096  1  0.485388  0  0.048002  0.099989  0  3.963112  0
C  C213  1  0.86372823  0.38511733  0.68708584  1  0.485418  0  0.047907  0.099828  0  3.963249  0
C  C214  1  0.36372269  0.61488025  0.81291550  1  0.484648  0  0.047907  0.099863  0  3.963229  0
C  C215  1  0.13627412  0.11487791  0.68707469  1  0.485371  0  0.047998  0.100044  0  3.962972  0
C  C216  1  0.36372131  0.11487955  0.18707065  1  0.485232  0  0.048006  0.100044  0  3.963216  0
C  C217  1  0.13627492  0.61488339  0.31293425  1  0.484956  0  0.048001  0.100132  0  3.963235  0
C  C218  1  0.63627447  0.38512214  0.18706588  1  0.485491  0  0.047955  0.100035  0  3.96324  0
C  C219  1  0.86372803  0.88512337  0.31292923  1  0.485235  0  0.047878  0.099821  0  3.963436  0
N  N220  1  0.55671383  0.99104250  0.98718336  1  -0.478812  0  -0.121715  -0.099034  0  3.249787  0
N  N221  1  0.94326153  0.49104869  0.51282705  1  -0.430346  0  -0.121795  -0.099414  0  3.249647  0
N  N222  1  0.44326607  0.50895956  0.98716883  1  -0.430223  0  -0.12162  -0.099074  0  3.249857  0
N  N223  1  0.05672855  0.00895813  0.51282659  1  -0.430187  0  -0.121826  -0.099389  0  3.24978  0
N  N224  1  0.44326838  0.00895043  0.01281767  1  -0.430508  0  -0.121709  -0.099196  0  3.249593  0
N  N225  1  0.05670471  0.50895648  0.48718496  1  -0.47902  0  -0.121697  -0.098965  0  3.250062  0
N  N226  1  0.55670017  0.49104449  0.01281544  1  -0.478968  0  -0.121812  -0.099238  0  3.250478  0
N  N227  1  0.94329055  0.99104148  0.48718715  1  -0.479167  0  -0.121681  -0.09891  0  3.249833  0
N  N228  1  0.05589980  0.89851903  0.87018713  1  -1.268665  0  -0.395521  -0.369616  0  3.577303  0
N  N229  1  0.44412685  0.39852991  0.62980776  1  -1.268757  0  -0.395545  -0.369536  0  3.577505  0
N  N230  1  0.94411446  0.60147002  0.87019795  1  -1.268999  0  -0.395467  -0.369472  0  3.577639  0
N  N231  1  0.55588173  0.10147214  0.62981242  1  -1.268861  0  -0.39561  -0.36961  0  3.577912  0
N  N232  1  0.94410235  0.10146668  0.12981506  1  -1.269092  0  -0.395459  -0.36964  0  3.578073  0
N  N233  1  0.55587630  0.60147248  0.37019558  1  -1.268681  0  -0.395549  -0.369448  0  3.578113  0
N  N234  1  0.05587871  0.39852681  0.12980655  1  -1.268558  0  -0.39554  -0.369515  0  3.577731  0
N  N235  1  0.44411842  0.89853248  0.37018283  1  -1.269195  0  -0.395555  -0.369709  0  3.578005  0
N  N236  1  0.53743809  0.83487203  0.80972377  1  -1.247426  0  -0.325042  -0.250242  0  3.48614  0
N  N237  1  0.96256653  0.33486742  0.69028374  1  -1.247549  0  -0.325098  -0.250362  0  3.486425  0
N  N238  1  0.46256142  0.66513391  0.80970933  1  -1.246893  0  -0.325091  -0.250403  0  3.486119  0
N  N239  1  0.03742988  0.16512664  0.69028148  1  -1.247484  0  -0.325069  -0.250402  0  3.486202  0
N  N240  1  0.46256207  0.16512980  0.19026975  1  -1.247243  0  -0.325111  -0.250291  0  3.486252  0
N  N241  1  0.03743562  0.66513442  0.30972769  1  -1.247229  0  -0.325064  -0.2503  0  3.486177  0
N  N242  1  0.53742976  0.33487460  0.19027495  1  -1.247361  0  -0.325036  -0.250228  0  3.486318  0
N  N243  1  0.96257726  0.83487964  0.30972417  1  -1.247351  0  -0.324953  -0.250082  0  3.486285  0
O  O244  1  0.28636014  0.78726480  0.73812309  1  -1.180772  0  -0.336712  -0.585358  0  2.319955  0
O  O245  1  0.21367304  0.28725146  0.76187021  1  -1.181268  0  -0.336653  -0.585279  0  2.319974  0
O  O246  1  0.71366835  0.71274159  0.73812938  1  -1.181203  0  -0.336643  -0.585219  0  2.319894  0
O  O247  1  0.78634426  0.21272158  0.76187679  1  -1.18059  0  -0.336565  -0.585177  0  2.319997  0
O  O248  1  0.71364999  0.21274371  0.26187447  1  -1.180774  0  -0.33666  -0.585232  0  2.319985  0
O  O249  1  0.78634208  0.71274204  0.23812677  1  -1.180926  0  -0.3367  -0.58531  0  2.319935  0
O  O250  1  0.28633380  0.28725969  0.26187627  1  -1.181077  0  -0.336614  -0.585167  0  2.319927  0
O  O251  1  0.21366687  0.78725913  0.23812597  1  -1.181023  0  -0.336644  -0.585191  0  2.319895  0
O  O252  1  0.16757746  0.77156502  0.62798266  1  -1.148547  0  -0.315258  -0.532082  0  2.159269  0
O  O253  1  0.33244498  0.27157001  0.87201619  1  -1.148277  0  -0.31522  -0.531903  0  2.159303  0
O  O254  1  0.83243861  0.72842875  0.62798387  1  -1.148309  0  -0.315159  -0.5319  0  2.159318  0
O  O255  1  0.66756978  0.22842842  0.87201560  1  -1.148472  0  -0.315119  -0.531847  0  2.15938  0
O  O256  1  0.83243267  0.22842236  0.37201895  1  -1.148383  0  -0.315043  -0.5318  0  2.159249  0
O  O257  1  0.66757114  0.72843127  0.12798253  1  -1.148548  0  -0.315153  -0.531939  0  2.159374  0
O  O258  1  0.16756753  0.27157364  0.37202293  1  -1.148386  0  -0.315073  -0.531786  0  2.159328  0
O  O259  1  0.33244234  0.77157619  0.12798196  1  -1.148257  0  -0.315047  -0.531732  0  2.159379  0
O  O260  1  0.12270216  0.81719743  0.96359059  1  -1.150136  0  -0.310173  -0.512305  0  2.069264  0
O  O261  1  0.37732651  0.31720598  0.53639974  1  -1.150248  0  -0.310268  -0.51227  0  2.069095  0
O  O262  1  0.87731334  0.68278347  0.96360571  1  -1.149941  0  -0.310185  -0.512218  0  2.069282  0
O  O263  1  0.62269082  0.18279032  0.53640633  1  -1.150642  0  -0.310283  -0.512288  0  2.069326  0
O  O264  1  0.87730399  0.18278216  0.03640293  1  -1.150052  0  -0.310256  -0.512319  0  2.069217  0
O  O265  1  0.62264672  0.68278863  0.46360880  1  -1.150325  0  -0.310301  -0.512314  0  2.069025  0
O  O266  1  0.12267784  0.31721336  0.03640226  1  -1.150682  0  -0.31032  -0.512407  0  2.069023  0
O  O267  1  0.37729936  0.81721874  0.46358892  1  -1.15123  0  -0.310318  -0.512371  0  2.068997  0
O  O268  1  0.61431557  0.80832694  0.60132850  1  -1.250432  0  -0.587202  -0.756483  0  2.034244  0
O  O269  1  0.88571868  0.30831994  0.89866631  1  -1.250346  0  -0.587174  -0.756339  0  2.034465  0
O  O270  1  0.38572908  0.69168465  0.60132298  1  -1.249939  0  -0.587216  -0.756339  0  2.034514  0
O  O271  1  0.11430641  0.19168347  0.89867706  1  -1.250212  0  -0.587225  -0.756539  0  2.034202  0
O  O272  1  0.38570055  0.19169213  0.39867080  1  -1.250221  0  -0.587314  -0.756545  0  2.034296  0
O  O273  1  0.11429644  0.69168412  0.10132952  1  -1.250297  0  -0.587296  -0.756605  0  2.034172  0
O  O274  1  0.61429701  0.30831274  0.39866938  1  -1.250464  0  -0.587344  -0.75659  0  2.034201  0
O  O275  1  0.88570273  0.80831447  0.10132628  1  -1.250275  0  -0.587296  -0.756546  0  2.03421  0
