# generated using pymatgen
data_CuH11C12NO6
_symmetry_space_group_name_H-M   'P 1'
_cell_length_a   8.58612346
_cell_length_b   13.31328169
_cell_length_c   13.66645913
_cell_angle_alpha   119.07626892
_cell_angle_beta   90.96470800
_cell_angle_gamma   89.96140840
_symmetry_Int_Tables_number   1
_chemical_formula_structural   CuH11C12NO6
_chemical_formula_sum   'Cu4 H44 C48 N4 O24'
_cell_volume   1365.08271021
_cell_formula_units_Z   4
loop_
 _symmetry_equiv_pos_site_id
 _symmetry_equiv_pos_as_xyz
  1  'x, y, z'
loop_
 _atom_site_type_symbol
 _atom_site_label
 _atom_site_symmetry_multiplicity
 _atom_site_fract_x
 _atom_site_fract_y
 _atom_site_fract_z
 _atom_site_occupancy
 _atom_site_pbe_bader_charge
 _atom_site_pbe_bader_spin_density
 _atom_site_pbe_cm5_charge
 _atom_site_pbe_ddec_charge
 _atom_site_pbe_ddec_spin_density
 _atom_site_pbe_ddec_sum_bond_order
 _atom_site_pbe_magmom
Cu  Cu0  1  0.54897569  0.41168573  0.40885586  1  1.060364  0.537833  0.674515  0.747671  0.687291  2.375743  0.536
Cu  Cu1  1  0.95158501  0.00261388  0.59034496  1  1.067316  0.578549  0.678156  0.75336  0.744157  2.371654  0.58
Cu  Cu2  1  0.45103388  0.58831259  0.59113822  1  1.059876  -0.537531  0.674508  0.747586  -0.71822  2.375909  -0.535
Cu  Cu3  1  0.04841879  0.99738549  0.40965363  1  1.067394  0.578516  0.678161  0.753317  0.744104  2.371647  0.58
H  H4  1  0.91584092  0.58263933  0.74080926  1  0.064207  0.002088  0.092326  0.105187  0.00099  0.986201  0.001
H  H5  1  0.58307925  0.84162960  0.25872947  1  -0.003611  0.002201  0.092121  0.105579  0.001074  0.985841  0.001
H  H6  1  0.08415591  0.41736996  0.25919154  1  0.064256  -0.001952  0.092314  0.105186  -0.00099  0.986238  -0.001
H  H7  1  0.41693159  0.15838711  0.74127456  1  -0.003568  0.002374  0.092124  0.10557  0.001185  0.985854  0.001
H  H8  1  0.00969194  0.58459790  0.62740671  1  0.099202  1.1e-05  0.106586  0.133841  -6.3e-05  0.990529  0.0
H  H9  1  0.48874100  0.95669875  0.37195754  1  0.084523  0.000182  0.106353  0.134491  8e-05  0.991332  0.0
H  H10  1  0.99032356  0.41540231  0.37259537  1  0.099244  0.000884  0.106559  0.133852  0.000477  0.990629  0.0
H  H11  1  0.51125586  0.04330706  0.62804494  1  0.084638  -0.000435  0.106326  0.134423  -0.000253  0.991371  0.0
H  H12  1  0.86466013  0.37530642  0.72287564  1  0.071407  0.002177  0.089927  0.102836  0.001173  1.01565  0.001
H  H13  1  0.63535873  0.65290864  0.27717972  1  0.060121  -0.001385  0.089419  0.101611  -0.000673  1.016416  -0.001
H  H14  1  0.13532851  0.62468979  0.27712145  1  0.071325  0.002166  0.089955  0.102897  0.001161  1.015582  0.001
H  H15  1  0.36463930  0.34710027  0.72282416  1  0.060051  0.001411  0.089454  0.101592  0.000627  1.016387  0.001
H  H16  1  0.77005256  0.33525232  0.59278980  1  0.087116  0.000136  0.106096  0.131336  -1.5e-05  0.985419  0.0
H  H17  1  0.72945233  0.74264173  0.40754481  1  0.05208  0.000471  0.10584  0.130212  0.000184  0.985995  0.0
H  H18  1  0.22994766  0.66473931  0.40720182  1  0.087516  0.000304  0.106101  0.131355  9.3e-05  0.985444  0.0
H  H19  1  0.27054105  0.25736506  0.59245951  1  0.052069  -0.000536  0.105819  0.130167  -0.000299  0.98601  0.0
H  H20  1  0.90624972  0.21676605  0.06137424  1  0.08746  -3.2e-05  0.101663  0.10856  -2.2e-05  1.03013  0.0
H  H21  1  0.59410652  0.15508229  0.93825063  1  0.088929  -9e-06  0.101842  0.108331  2e-06  1.031019  0.0
H  H22  1  0.09376459  0.78323435  0.93862630  1  0.087454  3.1e-05  0.101661  0.108541  1.8e-05  1.030161  0.0
H  H23  1  0.40588914  0.84491850  0.06174938  1  0.088921  -4e-06  0.10186  0.10835  3e-06  1.030961  0.0
H  H24  1  0.63683638  0.16407800  0.34763408  1  0.091873  -3.5e-05  0.116362  0.092565  -1.5e-05  0.995382  0.0
H  H25  1  0.86321424  0.81624985  0.65224642  1  0.097909  2e-06  0.116108  0.092462  3.2e-05  0.995228  0.0
H  H26  1  0.36316156  0.83591962  0.65236187  1  0.091813  1.4e-05  0.116356  0.09253  -1.2e-05  0.995441  0.0
H  H27  1  0.13678613  0.18374894  0.34775677  1  0.097872  -1.1e-05  0.116106  0.092477  2e-05  0.995221  0.0
H  H28  1  0.01687429  0.37365290  0.51995768  1  0.084746  0.000382  0.093511  0.093244  0.000299  0.99679  0.0
H  H29  1  0.48279642  0.85355689  0.48000051  1  0.087174  -0.000132  0.093581  0.093705  -0.000128  0.996409  0.0
H  H30  1  0.98311321  0.62634832  0.48004186  1  0.084766  4.1e-05  0.093543  0.093316  3e-05  0.996717  0.0
H  H31  1  0.51720039  0.14645331  0.51999949  1  0.086999  0.000392  0.093573  0.093712  0.000298  0.996374  0.0
H  H32  1  0.10767984  0.42415022  0.65278254  1  0.040186  -0.000701  0.091046  0.091591  -0.000446  0.999631  0.0
H  H33  1  0.39156975  0.77123237  0.34743821  1  0.037087  0.000959  0.090726  0.090879  0.000483  0.999838  0.001
H  H34  1  0.89231692  0.57584832  0.34721260  1  0.040294  0.000956  0.091054  0.091614  0.000468  0.999625  0.001
H  H35  1  0.60842591  0.22877454  0.65256192  1  0.037137  0.001007  0.090741  0.090931  0.000516  0.999793  0.001
H  H36  1  0.72940654  0.36323620  0.19932880  1  0.071129  -7.7e-05  0.110612  0.083104  -4.2e-05  1.008345  0.0
H  H37  1  0.77066546  0.16348602  0.80009694  1  0.110109  -3e-05  0.110826  0.08329  1.1e-05  1.008663  0.0
H  H38  1  0.27060546  0.63676683  0.80067352  1  0.071098  8.1e-05  0.110628  0.083171  3.6e-05  1.008308  0.0
H  H39  1  0.22932433  0.83651203  0.19989855  1  0.1101  -3e-05  0.110818  0.083328  1.2e-05  1.008626  0.0
H  H40  1  0.97956554  0.93127579  0.06289028  1  0.073326  1e-06  0.102317  0.10486  -2e-06  1.025589  0.0
H  H41  1  0.52035632  0.86851280  0.93725069  1  0.056003  -2e-06  0.102466  0.104446  0.0  1.026471  0.0
H  H42  1  0.02044998  0.06872497  0.93711408  1  0.073248  -4e-06  0.102337  0.104807  -5e-06  1.025699  0.0
H  H43  1  0.47964404  0.13149211  0.06275262  1  0.055962  -4e-06  0.102458  0.104465  -2e-06  1.026421  0.0
H  H44  1  0.81078688  0.00825063  0.21780751  1  0.135257  2.3e-05  0.10547  0.124426  9.7e-05  1.035764  0.0
H  H45  1  0.68940362  0.79047581  0.78235528  1  0.104293  -5.4e-05  0.105254  0.123947  -8.3e-05  1.035772  0.0
H  H46  1  0.18921696  0.99174954  0.78219449  1  0.135276  6e-05  0.10548  0.124455  0.000111  1.035751  0.0
H  H47  1  0.31059444  0.20952725  0.21764962  1  0.104297  2.8e-05  0.105273  0.124004  6.8e-05  1.035672  0.0
C  C48  1  0.92853197  0.53498816  0.64945057  1  -0.078183  0.000603  -0.161322  -0.287694  0.00029  3.893131  0.0
C  C49  1  0.57039878  0.88534889  0.35010654  1  -0.003371  0.018663  -0.16335  -0.293269  0.013373  3.896875  0.015
C  C50  1  0.07146954  0.46501858  0.35055113  1  -0.078175  0.001465  -0.161259  -0.287663  0.000965  3.893317  0.001
C  C51  1  0.42960038  0.11465757  0.64989402  1  -0.00347  0.017084  -0.163361  -0.293174  0.012309  3.897017  0.014
C  C52  1  0.88416124  0.33918514  0.63292005  1  -0.084428  0.017673  -0.168574  -0.299804  0.012644  3.910136  0.014
C  C53  1  0.61560949  0.70642951  0.36709283  1  -0.032669  0.001056  -0.167404  -0.294969  0.00073  3.908192  0.001
C  C54  1  0.11583439  0.66081228  0.36707742  1  -0.084964  0.017832  -0.168571  -0.299972  0.012731  3.910328  0.014
C  C55  1  0.38438736  0.29357794  0.63290958  1  -0.032844  -0.000898  -0.16735  -0.294734  -0.000884  3.907855  -0.001
C  C56  1  0.77090024  0.53103602  0.59514439  1  1.545244  0.000791  0.213398  0.623331  0.000546  4.117561  0.001
C  C57  1  0.72746505  0.93608907  0.40453770  1  1.545087  -0.001025  0.211946  0.624093  0.000673  4.116099  -0.004
C  C58  1  0.22910935  0.46896611  0.40485184  1  1.545082  -0.000631  0.213406  0.623207  -0.000666  4.117677  -0.001
C  C59  1  0.27253647  0.06391228  0.59546462  1  1.545059  -0.001085  0.211859  0.623822  0.000613  4.116273  -0.004
C  C60  1  0.84806114  0.19990529  0.12218107  1  -0.051401  0.000239  -0.087311  -0.184239  0.00014  3.948548  0.0
C  C61  1  0.65223177  0.07744342  0.87749909  1  -0.080746  0.000354  -0.087576  -0.183825  0.000239  3.949769  0.0
C  C62  1  0.15194502  0.80009818  0.87782081  1  -0.050999  -0.000214  -0.087236  -0.184057  -0.000134  3.948563  0.0
C  C63  1  0.34776623  0.92255811  0.12250166  1  -0.080943  0.000363  -0.08762  -0.183861  0.000245  3.949716  0.0
C  C64  1  0.93253900  0.21504332  0.58632985  1  1.543156  -0.001091  0.216428  0.630983  0.000801  4.103148  -0.004
C  C65  1  0.56776302  0.62858276  0.41377561  1  1.557769  -0.000288  0.215927  0.630131  -0.000338  4.110964  -0.001
C  C66  1  0.06746829  0.78495652  0.41366836  1  1.543143  -0.001057  0.216463  0.631226  0.000845  4.102876  -0.004
C  C67  1  0.43223733  0.37142306  0.58622689  1  1.558039  0.000287  0.215924  0.63009  9.1e-05  4.110838  0.001
C  C68  1  0.69779585  0.17126107  0.28189286  1  0.500067  -0.000551  0.046457  0.109175  -0.000375  3.93817  0.0
C  C69  1  0.80225785  0.88916969  0.71788457  1  0.471883  -0.000432  0.046901  0.109774  -0.000294  3.936071  0.0
C  C70  1  0.30220560  0.82873894  0.71810377  1  0.500133  0.000562  0.046399  0.109175  0.000368  3.938192  0.0
C  C71  1  0.19774252  0.11083074  0.28211854  1  0.473657  -0.000405  0.046938  0.109795  -0.000271  3.936128  0.0
C  C72  1  0.99491799  0.41489614  0.60999712  1  -0.023624  0.000376  -0.165331  -0.098505  0.000351  3.919129  0.0
C  C73  1  0.50446678  0.80476254  0.38993787  1  -0.023452  0.003558  -0.165313  -0.097961  0.002387  3.919191  0.002
C  C74  1  0.00507303  0.58510490  0.39000399  1  -0.023638  0.003671  -0.165387  -0.098565  0.002472  3.919149  0.003
C  C75  1  0.49552886  0.19524173  0.61006046  1  -0.023316  0.0007  -0.16534  -0.098115  0.000559  3.919256  0.0
C  C76  1  0.74902092  0.28183398  0.19842550  1  0.489432  -0.000585  0.036212  0.084851  -0.000425  3.99056  0.0
C  C77  1  0.75109550  0.08303220  0.80106536  1  0.479825  -0.000361  0.036519  0.08516  -0.000262  3.990561  0.0
C  C78  1  0.25099105  0.71816687  0.80157462  1  0.489185  0.000591  0.03608  0.084592  0.000407  3.990643  0.0
C  C79  1  0.24889898  0.91696759  0.19893277  1  0.479997  -0.000362  0.036535  0.085139  -0.000263  3.990554  0.0
C  C80  1  0.87082149  0.09629185  0.12452854  1  -0.00855  -0.000562  0.004901  0.143252  -0.000372  4.030758  0.0
C  C81  1  0.62938496  0.97164740  0.87537454  1  0.032866  -0.000529  0.005558  0.143755  -0.000352  4.029172  0.0
C  C82  1  0.12918817  0.90370880  0.87547310  1  0.018771  0.000596  0.004883  0.143126  0.000375  4.030774  0.0
C  C83  1  0.37061538  0.02835559  0.12462770  1  0.032829  -0.000502  0.005529  0.143702  -0.000334  4.029162  0.0
C  C84  1  0.96587489  0.00246677  0.04527881  1  0.010521  0.000615  -0.080582  -0.115426  0.000392  3.951888  0.0
C  C85  1  0.53416571  0.95721455  0.95476021  1  -0.089754  -0.000183  -0.080719  -0.114693  -0.000128  3.948433  0.0
C  C86  1  0.03413831  0.99753470  0.95472626  1  -0.114627  -0.00062  -0.080591  -0.115224  -0.000418  3.951803  0.0
C  C87  1  0.46583349  0.04278752  0.04524283  1  0.06092  -0.000213  -0.080607  -0.114551  -0.00015  3.948401  0.0
C  C88  1  0.79484443  0.08457611  0.20877883  1  -0.028964  0.000498  -0.08244  -0.172454  0.000321  3.90598  0.0
C  C89  1  0.70532014  0.87570967  0.79118958  1  -0.01979  0.000101  -0.081711  -0.172387  7.1e-05  3.90523  0.0
C  C90  1  0.20515704  0.91542252  0.79121901  1  -0.028974  -0.000189  -0.08244  -0.172482  -0.000139  3.905961  0.0
C  C91  1  0.29468025  0.12429176  0.20881540  1  -0.021581  0.000309  -0.081709  -0.172418  0.000192  3.905116  0.0
C  C92  1  0.40446623  0.42536775  0.12176141  1  2.124572  1.2e-05  0.371698  0.718832  3.2e-05  4.12489  0.0
C  C93  1  0.09604277  0.30419764  0.87798957  1  2.114668  -1.2e-05  0.37305  0.720652  1.1e-05  4.125604  0.0
C  C94  1  0.59553990  0.57462834  0.87823734  1  2.124823  2.9e-05  0.371711  0.719189  3e-06  4.124233  0.0
C  C95  1  0.90390621  0.69576998  0.12199926  1  2.113744  -4.9e-05  0.373048  0.720706  -1.8e-05  4.124461  0.0
N  N96  1  0.67212789  0.26803212  0.27635269  1  -1.231079  -0.001027  -0.341588  -0.255857  -0.000368  3.513129  0.0
N  N97  1  0.82787402  0.99134166  0.72315150  1  -1.234389  -0.000463  -0.341006  -0.255729  0.000287  3.508332  0.001
N  N98  1  0.32787939  0.73196817  0.72364512  1  -1.231231  0.001178  -0.341485  -0.255706  0.00043  3.513144  0.0
N  N99  1  0.17212398  0.00865750  0.27684859  1  -1.234456  -0.000401  -0.341018  -0.255733  0.000334  3.508427  0.001
O  O100  1  0.75414174  0.45536765  0.49285267  1  -1.128643  0.076101  -0.308712  -0.517671  0.049343  2.382594  0.069
O  O101  1  0.74463163  0.96310606  0.50701441  1  -1.125261  0.086703  -0.308988  -0.520112  0.055725  2.374934  0.079
O  O102  1  0.24586440  0.54463081  0.50714674  1  -1.12836  -0.075958  -0.308716  -0.517589  -0.051604  2.3826  -0.069
O  O103  1  0.25537455  0.03688965  0.49298742  1  -1.125104  0.08667  -0.308958  -0.519984  0.055696  2.374955  0.079
O  O104  1  0.90816710  0.16941052  0.64829783  1  -1.105417  0.105353  -0.317892  -0.539969  0.067917  2.372307  0.096
O  O105  1  0.59288441  0.52140439  0.35157311  1  -1.120286  0.091077  -0.317975  -0.540988  0.059054  2.376999  0.083
O  O106  1  0.09183781  0.83058613  0.35169630  1  -1.105167  0.105331  -0.317899  -0.540023  0.067907  2.37217  0.096
O  O107  1  0.40710897  0.47860332  0.64843041  1  -1.120414  -0.091015  -0.317979  -0.541005  -0.06176  2.376936  -0.083
O  O108  1  0.98926674  0.16406843  0.48852137  1  -1.124698  0.089246  -0.309985  -0.523139  0.057656  2.349118  0.081
O  O109  1  0.51136839  0.67559341  0.51159162  1  -1.129624  -0.077057  -0.310964  -0.524979  -0.052467  2.351477  -0.07
O  O110  1  0.01075109  0.83593535  0.51148173  1  -1.124969  0.089333  -0.31001  -0.523275  0.057735  2.34906  0.081
O  O111  1  0.48863783  0.32441560  0.48841500  1  -1.129555  0.077078  -0.310959  -0.524998  0.05012  2.351637  0.07
O  O112  1  0.66724920  0.60147649  0.65597759  1  -1.121926  -0.081936  -0.317245  -0.53899  -0.055712  2.370203  -0.074
O  O113  1  0.83148960  0.94642849  0.34419832  1  -1.125574  0.095512  -0.318195  -0.541662  0.061566  2.362084  0.087
O  O114  1  0.33275570  0.39852747  0.34401699  1  -1.122126  0.082065  -0.317292  -0.539003  0.053297  2.370297  0.075
O  O115  1  0.16851310  0.05357030  0.65580488  1  -1.125669  0.095472  -0.318147  -0.541525  0.061548  2.361982  0.087
O  O116  1  0.43496748  0.32777761  0.08587727  1  -1.072997  3.7e-05  -0.166937  -0.350066  2.4e-05  2.220063  0.0
O  O117  1  0.06547079  0.24238098  0.91378041  1  -1.071303  -3.1e-05  -0.167043  -0.350538  -1e-05  2.219857  0.0
O  O118  1  0.56505618  0.67221159  0.91412496  1  -1.073269  1e-06  -0.166902  -0.350098  -1e-05  2.219934  0.0
O  O119  1  0.93446530  0.75758078  0.08620245  1  -1.070393  -3.4e-05  -0.167134  -0.350582  -8e-06  2.21938  0.0
O  O120  1  0.37250596  0.52218502  0.15395348  1  -1.070763  0.000108  -0.17142  -0.344647  5e-05  2.180338  0.0
O  O121  1  0.12806789  0.36892072  0.84585671  1  -1.062427  0.000116  -0.172588  -0.346016  7.5e-05  2.181097  0.0
O  O122  1  0.62749077  0.47779811  0.84603733  1  -1.070753  0.00018  -0.171476  -0.345  8.5e-05  2.179897  0.0
O  O123  1  0.87189176  0.63105399  0.15414797  1  -1.0624  -0.000139  -0.172488  -0.346016  -9.7e-05  2.180379  0.0
