# generated using pymatgen
data_ZnH4C18N3(ClO)4
_symmetry_space_group_name_H-M   'P 1'
_cell_length_a   14.82304706
_cell_length_b   16.16588341
_cell_length_c   19.40263577
_cell_angle_alpha   90.00391236
_cell_angle_beta   90.02337531
_cell_angle_gamma   89.56453618
_symmetry_Int_Tables_number   1
_chemical_formula_structural   ZnH4C18N3(ClO)4
_chemical_formula_sum   'Zn2 H8 C36 N6 Cl8 O8'
_cell_volume   4649.27334305
_cell_formula_units_Z   2
loop_
 _symmetry_equiv_pos_site_id
 _symmetry_equiv_pos_as_xyz
  1  'x, y, z'
loop_
 _atom_site_type_symbol
 _atom_site_label
 _atom_site_symmetry_multiplicity
 _atom_site_fract_x
 _atom_site_fract_y
 _atom_site_fract_z
 _atom_site_occupancy
 _atom_site_pbe_bader_charge
 _atom_site_pbe_bader_spin_density
 _atom_site_pbe_cm5_charge
 _atom_site_pbe_ddec_charge
 _atom_site_pbe_ddec_spin_density
 _atom_site_pbe_ddec_sum_bond_order
 _atom_site_pbe_magmom
Zn  Zn0  1  0.40546141  0.50375848  0.50003567  1  1.312101  0  0.684428  0.894152  0  2.407978  0
Zn  Zn1  1  0.59453929  0.49624044  0.49996389  1  1.316134  0  0.684425  0.894214  0  2.407962  0
H  H2  1  0.41318133  0.39345496  0.84936726  1  0.128058  0  0.109728  0.123432  0  1.015625  0
H  H3  1  0.58680986  0.60655883  0.15063694  1  0.129477  0  0.10966  0.123436  0  1.015607  0
H  H4  1  0.41310998  0.39344237  0.15058176  1  0.128154  0  0.109729  0.123571  0  1.015043  0
H  H5  1  0.58688527  0.60656708  0.84941523  1  0.127989  0  0.109716  0.123498  0  1.015184  0
H  H6  1  0.35953799  0.92130985  0.52363760  1  0.077765  0  0.11127  0.115316  0  0.981286  0
H  H7  1  0.64046069  0.07869031  0.47635991  1  0.077823  0  0.111278  0.115321  0  0.98128  0
H  H8  1  0.35634014  0.07555390  0.52352813  1  0.089625  0  0.110089  0.112896  0  0.984131  0
H  H9  1  0.64365786  0.92444627  0.47646937  1  0.089588  0  0.110105  0.112883  0  0.984149  0
C  C10  1  0.49995732  0.66062955  0.50002487  1  1.686007  0  0.215961  0.665522  0  4.247737  0
C  C11  1  0.50003865  0.33937247  0.49997572  1  1.686109  0  0.21606  0.665673  0  4.247709  0
C  C12  1  0.49659325  0.17479915  0.49990352  1  -0.563963  0  -0.032043  -0.052878  0  4.101109  0
C  C13  1  0.50340339  0.82520473  0.50009605  1  -0.563914  0  -0.032041  -0.052939  0  4.100863  0
C  C14  1  0.50364544  0.74981057  0.50010625  1  0.208363  0  -0.046297  -0.179879  0  3.967578  0
C  C15  1  0.49635326  0.25018526  0.49989383  1  0.208408  0  -0.046355  -0.180059  0  3.967934  0
C  C16  1  0.04734854  0.50021907  0.56375038  1  0.272889  0  0.029742  0.06263  0  4.037935  0
C  C17  1  0.95265079  0.49978542  0.43624764  1  0.272566  0  0.029704  0.062705  0  4.037873  0
C  C18  1  0.04732183  0.49930041  0.43626874  1  0.092209  0  0.029466  0.061987  0  4.040047  0
C  C19  1  0.95267953  0.50070345  0.56372876  1  0.091579  0  0.029486  0.062118  0  4.039971  0
C  C20  1  0.09355738  0.49961628  0.50001525  1  0.156544  0  0.011924  -0.026345  0  4.043269  0
C  C21  1  0.90644196  0.50038697  0.49998431  1  0.156494  0  0.011879  -0.026526  0  4.043383  0
C  C22  1  0.18916764  0.49978220  0.50002971  1  0.863023  0  0.230203  0.297445  0  3.967759  0
C  C23  1  0.81083508  0.50021919  0.49996934  1  0.862936  0  0.230313  0.297595  0  3.967436  0
C  C24  1  0.49996441  0.50001155  0.63424365  1  1.660397  0  0.209509  0.608633  0  4.202907  0
C  C25  1  0.50003563  0.49998737  0.36576055  1  1.661111  0  0.209501  0.608566  0  4.203016  0
C  C26  1  0.45154819  0.44065565  0.74964727  1  0.129249  0  0.022485  0.149648  0  4.017902  0
C  C27  1  0.54845047  0.55934698  0.25035538  1  0.129112  0  0.02243  0.149772  0  4.017851  0
C  C28  1  0.45147354  0.44069239  0.25033004  1  0.131141  0  0.02234  0.149475  0  4.018435  0
C  C29  1  0.54852918  0.55930899  0.74967056  1  0.131347  0  0.022337  0.14949  0  4.018416  0
C  C30  1  0.45102970  0.44006300  0.82137973  1  0.010122  0  -0.090534  -0.187061  0  3.949918  0
C  C31  1  0.54896354  0.55994583  0.17862241  1  0.009237  0  -0.090378  -0.187081  0  3.949868  0
C  C32  1  0.45095625  0.44007130  0.17859538  1  0.008509  0  -0.090665  -0.187412  0  3.950104  0
C  C33  1  0.54904442  0.55993628  0.82140315  1  0.008748  0  -0.090589  -0.187315  0  3.950146  0
C  C34  1  0.50003581  0.50000880  0.85753241  1  -0.022334  0  -0.005324  0.046119  0  4.008424  0
C  C35  1  0.49995673  0.50000437  0.14246716  1  -0.022707  0  -0.00528  0.04615  0  4.008421  0
C  C36  1  0.50004589  0.49998009  0.71195012  1  -0.042934  0  -0.010349  -0.116878  0  3.871115  0
C  C37  1  0.49995615  0.50002129  0.28804893  1  -0.042385  0  -0.010435  -0.117002  0  3.871112  0
C  C38  1  0.49997576  0.50000296  0.06669292  1  0.941294  0  0.243256  0.251634  0  3.965019  0
C  C39  1  0.50001338  0.50001579  0.93330768  1  0.941732  0  0.243013  0.251288  0  3.965083  0
C  C40  1  0.41893495  0.04202892  0.51325800  1  -0.089977  0  -0.076428  -0.116003  0  3.958253  0
C  C41  1  0.58106507  0.95797310  0.48673951  1  -0.089927  0  -0.076485  -0.115956  0  3.958295  0
C  C42  1  0.42068557  0.95622587  0.51335101  1  0.052985  0  -0.076861  -0.117967  0  3.953203  0
C  C43  1  0.57931177  0.04377121  0.48664804  1  0.051647  0  -0.076858  -0.118008  0  3.953361  0
C  C44  1  0.49815870  0.08725628  0.49991622  1  0.112613  0  0.003743  0.132632  0  4.106926  0
C  C45  1  0.50183863  0.91274326  0.50008180  1  0.111363  0  0.003769  0.132556  0  4.107186  0
N  N46  1  0.55131525  0.55683557  0.96613236  1  -0.648593  0  -0.154652  -0.145014  0  3.211104  0
N  N47  1  0.44866442  0.44318939  0.03386823  1  -0.648106  0  -0.154649  -0.14496  0  3.211107  0
N  N48  1  0.55129191  0.55682676  0.03392393  1  -0.458291  0  -0.15462  -0.144613  0  3.211496  0
N  N49  1  0.44868776  0.44319820  0.96607563  1  -0.458156  0  -0.154401  -0.144409  0  3.211379  0
N  N50  1  0.73262853  0.49956692  0.49998958  1  -1.092954  0  -0.250295  -0.242397  0  3.07773  0
N  N51  1  0.26736813  0.50043201  0.50000999  1  -1.092973  0  -0.25021  -0.242286  0  3.078093  0
Cl  Cl52  1  0.39223577  0.36423400  0.70703386  1  -0.193297  0  -0.014344  -0.072195  0  1.444665  0
Cl  Cl53  1  0.60775816  0.63577175  0.29297086  1  -0.193361  0  -0.014356  -0.072272  0  1.444647  0
Cl  Cl54  1  0.39220944  0.36425441  0.29291433  1  -0.192795  0  -0.013829  -0.071507  0  1.444328  0
Cl  Cl55  1  0.60779871  0.63574015  0.70708162  1  -0.192607  0  -0.013866  -0.071545  0  1.444321  0
Cl  Cl56  1  0.89307070  0.50174684  0.63859429  1  -0.09588  0  0.065678  0.021214  0  1.527668  0
Cl  Cl57  1  0.10692864  0.49825703  0.36140424  1  -0.095559  0  0.065718  0.021266  0  1.527782  0
Cl  Cl58  1  0.89300738  0.49975745  0.36135259  1  -0.09517  0  0.065576  0.021071  0  1.526562  0
Cl  Cl59  1  0.10699262  0.50024827  0.63864594  1  -0.095482  0  0.065599  0.021115  0  1.52658  0
O  O60  1  0.42140491  0.62937838  0.50018684  1  -1.114755  0  -0.31492  -0.533469  0  2.25246  0
O  O61  1  0.57859243  0.37061993  0.49981375  1  -1.114571  0  -0.315038  -0.533603  0  2.252478  0
O  O62  1  0.42477306  0.37835414  0.50020029  1  -1.153818  0  -0.319046  -0.558228  0  2.27606  0
O  O63  1  0.57522562  0.62164541  0.49980082  1  -1.153692  0  -0.319156  -0.558378  0  2.275829  0
O  O64  1  0.42368659  0.50885770  0.60553441  1  -1.147891  0  -0.312513  -0.542679  0  2.322817  0
O  O65  1  0.57631411  0.49114246  0.39446670  1  -1.148137  0  -0.312465  -0.542612  0  2.32284  0
O  O66  1  0.42390813  0.50880649  0.39459248  1  -1.150331  0  -0.312416  -0.542746  0  2.324066  0
O  O67  1  0.57609664  0.49118933  0.60540554  1  -1.149889  0  -0.312422  -0.542801  0  2.323834  0
