# generated using pymatgen
data_CsH5C4(NO)4
_symmetry_space_group_name_H-M   'P 1'
_cell_length_a   6.88938778
_cell_length_b   9.35714539
_cell_length_c   13.78129574
_cell_angle_alpha   101.91486620
_cell_angle_beta   89.99988034
_cell_angle_gamma   90.00006710
_symmetry_Int_Tables_number   1
_chemical_formula_structural   CsH5C4(NO)4
_chemical_formula_sum   'Cs4 H20 C16 N16 O16'
_cell_volume   869.27085103
_cell_formula_units_Z   4
loop_
 _symmetry_equiv_pos_site_id
 _symmetry_equiv_pos_as_xyz
  1  'x, y, z'
loop_
 _atom_site_type_symbol
 _atom_site_label
 _atom_site_symmetry_multiplicity
 _atom_site_fract_x
 _atom_site_fract_y
 _atom_site_fract_z
 _atom_site_occupancy
 _atom_site_pbe_bader_spin_density
 _atom_site_pbe_cm5_charge
 _atom_site_pbe_ddec_charge
 _atom_site_pbe_ddec_spin_density
 _atom_site_pbe_ddec_sum_bond_order
 _atom_site_pbe_magmom
Cs  Cs0  1  0.98772920  0.85509025  0.36245366  1  0  0.909699  0.848617  0  0.839112  0
Cs  Cs1  1  0.48772822  0.14491138  0.13754580  1  0  0.909686  0.848613  0  0.839109  0
Cs  Cs2  1  0.01226983  0.14491097  0.63754592  1  0  0.909697  0.848613  0  0.839112  0
Cs  Cs3  1  0.51227227  0.85508875  0.86245435  1  0  0.909703  0.848625  0  0.839109  0
H  H4  1  0.62646746  0.44502637  0.36018118  1  0  0.296723  0.246815  0  1.035909  0
H  H5  1  0.12647292  0.55497179  0.13981965  1  0  0.296725  0.246814  0  1.035904  0
H  H6  1  0.37353157  0.55497269  0.63982029  1  0  0.296735  0.246825  0  1.035883  0
H  H7  1  0.87352756  0.44502942  0.86017921  1  0  0.296716  0.24682  0  1.035874  0
H  H8  1  0.07111037  0.19259318  0.28655401  1  0  0.106409  0.07768  0  1.005646  0
H  H9  1  0.57111190  0.80741039  0.21344542  1  0  0.106401  0.077641  0  1.005695  0
H  H10  1  0.92888721  0.80740585  0.71344455  1  0  0.106422  0.077718  0  1.005662  0
H  H11  1  0.42888713  0.19258865  0.78655386  1  0  0.106419  0.077671  0  1.005615  0
H  H12  1  0.17770026  0.30480448  0.39420827  1  0  0.10501  0.083756  0  1.001531  0
H  H13  1  0.67770496  0.69519806  0.10579164  1  0  0.104973  0.083684  0  1.001582  0
H  H14  1  0.82229877  0.69519346  0.60579086  1  0  0.104991  0.083744  0  1.001527  0
H  H15  1  0.32229552  0.30480207  0.89420852  1  0  0.104959  0.083664  0  1.00159  0
H  H16  1  0.96782580  0.50697437  0.38622609  1  0  0.099007  0.068695  0  0.993529  0
H  H17  1  0.46783127  0.49302726  0.11377412  1  0  0.099025  0.068717  0  0.993504  0
H  H18  1  0.03217468  0.49302467  0.61377320  1  0  0.09901  0.068701  0  0.993496  0
H  H19  1  0.53216776  0.50697286  0.88622458  1  0  0.099034  0.068748  0  0.993458  0
H  H20  1  0.95826927  0.42355120  0.25672653  1  0  0.104034  0.075652  0  1.028628  0
H  H21  1  0.45827434  0.57645153  0.24327457  1  0  0.104044  0.075661  0  1.028581  0
H  H22  1  0.04172830  0.57644895  0.74327436  1  0  0.104042  0.075676  0  1.028561  0
H  H23  1  0.54172469  0.42354751  0.75672471  1  0  0.104067  0.075687  0  1.028529  0
C  C24  1  0.56236705  0.23087088  0.45917897  1  0  0.176396  -0.113398  0  3.798327  0
C  C25  1  0.06237472  0.76912613  0.04082032  1  0  0.176326  -0.113451  0  3.798273  0
C  C26  1  0.43763343  0.76912597  0.54082075  1  0  0.176369  -0.113358  0  3.79828  0
C  C27  1  0.93762867  0.23087617  0.95917868  1  0  0.176316  -0.113465  0  3.798271  0
C  C28  1  0.73841185  0.26605649  0.40758870  1  0  0.224943  0.325895  0  4.195701  0
C  C29  1  0.23841925  0.73394392  0.09241232  1  0  0.225017  0.326037  0  4.195584  0
C  C30  1  0.26158573  0.73394365  0.59241219  1  0  0.224981  0.32598  0  4.195668  0
C  C31  1  0.76158413  0.26605839  0.90758741  1  0  0.224947  0.325934  0  4.195667  0
C  C32  1  0.04064169  0.27392166  0.35508051  1  0  -0.070055  -0.028762  0  3.880922  0
C  C33  1  0.54064628  0.72608190  0.14491968  1  0  -0.069995  -0.028601  0  3.880908  0
C  C34  1  0.95935588  0.72607738  0.64491950  1  0  -0.070054  -0.028775  0  3.880982  0
C  C35  1  0.45935420  0.27391714  0.85508033  1  0  -0.069976  -0.028589  0  3.880814  0
C  C36  1  0.93145976  0.40659657  0.33186011  1  0  -0.060785  -0.018312  0  3.849182  0
C  C37  1  0.43146371  0.59340614  0.16814101  1  0  -0.060865  -0.018426  0  3.849166  0
C  C38  1  0.06853782  0.59340357  0.66814077  1  0  -0.060843  -0.018373  0  3.84917  0
C  C39  1  0.56853532  0.40659398  0.83185770  1  0  -0.060917  -0.018483  0  3.849104  0
N  N40  1  0.45780041  0.10606941  0.41906931  1  0  0.005578  0.521366  0  4.286846  0
N  N41  1  0.95780843  0.89392893  0.08093046  1  0  0.005711  0.521473  0  4.28671  0
N  N42  1  0.54219572  0.89392963  0.58093070  1  0  0.005642  0.52135  0  4.2868  0
N  N43  1  0.04219640  0.10607120  0.91906970  1  0  0.00572  0.521486  0  4.286704  0
N  N44  1  0.51161933  0.32538381  0.54638136  1  0  0.011881  0.505454  0  4.269954  0
N  N45  1  0.01162222  0.67461482  0.95361803  1  0  0.011797  0.505295  0  4.270188  0
N  N46  1  0.48838261  0.67461524  0.45361865  1  0  0.011773  0.505216  0  4.269999  0
N  N47  1  0.98838116  0.32538640  0.04638154  1  0  0.011826  0.505328  0  4.270189  0
N  N48  1  0.72888291  0.36418417  0.34535037  1  0  -0.469831  -0.39766  0  3.473868  0
N  N49  1  0.22888554  0.63581623  0.15464992  1  0  -0.469836  -0.397699  0  3.473827  0
N  N50  1  0.27111757  0.63581597  0.65465052  1  0  -0.469814  -0.397663  0  3.473812  0
N  N51  1  0.77111349  0.36418607  0.84534835  1  0  -0.469802  -0.397678  0  3.473829  0
N  N52  1  0.90625689  0.20831612  0.41771633  1  0  -0.483833  -0.466394  0  3.206335  0
N  N53  1  0.40626007  0.79168327  0.08228219  1  0  -0.483863  -0.466454  0  3.206376  0
N  N54  1  0.09374359  0.79168074  0.58228338  1  0  -0.483832  -0.466439  0  3.206391  0
N  N55  1  0.59374187  0.20831686  0.91771724  1  0  -0.483821  -0.466408  0  3.206379  0
O  O56  1  0.51356746  0.03717452  0.33428272  1  0  -0.249804  -0.457236  0  1.991835  0
O  O57  1  0.01357201  0.96282357  0.16571676  1  0  -0.249839  -0.457284  0  1.991862  0
O  O58  1  0.48643012  0.96282453  0.66571729  1  0  -0.249809  -0.457236  0  1.991873  0
O  O59  1  0.98642847  0.03717656  0.83428267  1  0  -0.249848  -0.457295  0  1.991812  0
O  O60  1  0.31642488  0.06242561  0.46260137  1  0  -0.271557  -0.438529  0  2.108701  0
O  O61  1  0.81643025  0.93757376  0.03740014  1  0  -0.271595  -0.43858  0  2.108712  0
O  O62  1  0.68357270  0.93757563  0.53740039  1  0  -0.271592  -0.438524  0  2.108648  0
O  O63  1  0.18357023  0.06242746  0.96259944  1  0  -0.271597  -0.438578  0  2.108756  0
O  O64  1  0.36085836  0.31057485  0.59505673  1  0  -0.254836  -0.421688  0  2.051494  0
O  O65  1  0.86086035  0.68942617  0.90494408  1  0  -0.25485  -0.421658  0  2.051508  0
O  O66  1  0.63914358  0.68942639  0.40494503  1  0  -0.254803  -0.42161  0  2.051517  0
O  O67  1  0.13914013  0.31057613  0.09505492  1  0  -0.254817  -0.42163  0  2.051622  0
O  O68  1  0.62584430  0.43312791  0.57537481  1  0  -0.178984  -0.411946  0  1.927474  0
O  O69  1  0.12584715  0.56686860  0.92462492  1  0  -0.178878  -0.411808  0  1.92762  0
O  O70  1  0.37415618  0.56687004  0.42462506  1  0  -0.17891  -0.411826  0  1.927474  0
O  O71  1  0.87415478  0.43313153  0.07537524  1  0  -0.178915  -0.411835  0  1.927528  0
