# generated using pymatgen
data_TbH35C39N6O7
_symmetry_space_group_name_H-M   'P 1'
_cell_length_a   9.90615116
_cell_length_b   9.90238922
_cell_length_c   22.46823803
_cell_angle_alpha   94.86684237
_cell_angle_beta   100.25029914
_cell_angle_gamma   113.74163924
_symmetry_Int_Tables_number   1
_chemical_formula_structural   TbH35C39N6O7
_chemical_formula_sum   'Tb2 H70 C78 N12 O14'
_cell_volume   1955.09952776
_cell_formula_units_Z   2
loop_
 _symmetry_equiv_pos_site_id
 _symmetry_equiv_pos_as_xyz
  1  'x, y, z'
loop_
 _atom_site_type_symbol
 _atom_site_label
 _atom_site_symmetry_multiplicity
 _atom_site_fract_x
 _atom_site_fract_y
 _atom_site_fract_z
 _atom_site_occupancy
 _atom_site_pbe_bader_charge
 _atom_site_pbe_bader_spin_density
 _atom_site_pbe_cm5_charge
 _atom_site_pbe_ddec_charge
 _atom_site_pbe_ddec_spin_density
 _atom_site_pbe_ddec_sum_bond_order
 _atom_site_pbe_magmom
Tb  Tb0  1  0.02746646  0.20407077  0.48882484  1  2.167724  0  1.499383  1.985693  0  2.26426  0
Tb  Tb1  1  0.78459624  0.46104126  0.98886274  1  2.166643  0  1.499231  1.986148  0  2.263913  0
H  H2  1  0.68591440  0.46425487  0.54032631  1  0.043222  0  0.095095  0.140158  0  0.99377  0
H  H3  1  0.57562431  0.85377063  0.04045644  1  0.034324  0  0.095223  0.140047  0  0.993435  0
H  H4  1  0.67978167  0.51776874  0.46709897  1  0.050293  0  0.09053  0.137401  0  1.022236  0
H  H5  1  0.44875321  0.78661924  0.96730455  1  0.044297  0  0.090434  0.137363  0  1.023058  0
H  H6  1  0.85754733  0.58760348  0.52249794  1  0.080505  0  0.096108  0.148221  0  0.992939  0
H  H7  1  0.43447718  0.66429224  0.02278147  1  0.06291  0  0.096042  0.147984  0  0.994139  0
H  H8  1  0.54239978  0.23985046  0.43156695  1  0.024746  0  0.090034  0.122678  0  1.055417  0
H  H9  1  0.69127102  0.88894082  0.93187450  1  0.040887  0  0.090157  0.123211  0  1.054839  0
H  H10  1  0.35404347  0.04459214  0.39420064  1  0.09179  0  0.103329  0.102771  0  1.02542  0
H  H11  1  0.84851764  0.04005232  0.89417701  1  0.070948  0  0.103448  0.102401  0  1.025709  0
H  H12  1  0.14193844  0.82768563  0.32658005  1  0.06858  0  0.104782  0.112218  0  1.026451  0
H  H13  1  0.99781971  0.18477392  0.82656602  1  0.094262  0  0.104303  0.111067  0  1.02696  0
H  H14  1  0.45339420  0.66049690  0.27601740  1  0.06412  0  0.10157  0.105941  0  1.011485  0
H  H15  1  0.11515654  0.82308956  0.77621176  1  0.042134  0  0.101483  0.105842  0  1.010411  0
H  H16  1  0.66842161  0.88089674  0.34681583  1  0.091587  0  0.105808  0.107234  0  1.033257  0
H  H17  1  0.96556839  0.67866203  0.84703227  1  0.101485  0  0.105785  0.107251  0  1.034493  0
H  H18  1  0.23547412  0.43003365  0.26489075  1  0.12492  0  0.113397  0.107401  0  1.068651  0
H  H19  1  0.33416936  0.02929399  0.76521623  1  0.114731  0  0.113528  0.107604  0  1.067649  0
H  H20  1  0.96800207  0.27138499  0.17566248  1  0.123724  0  0.117443  0.113023  0  1.013206  0
H  H21  1  0.40463335  0.20787068  0.67609104  1  0.099317  0  0.117578  0.11327  0  1.010935  0
H  H22  1  0.01745251  0.71188954  0.22414217  1  0.116529  0  0.124675  0.080042  0  1.060229  0
H  H23  1  0.01286230  0.20799041  0.72432317  1  0.114199  0  0.124479  0.080218  0  1.060516  0
H  H24  1  0.52227102  0.23245087  0.57230287  1  0.018933  0  0.092108  0.139381  0  1.003479  0
H  H25  1  0.83937637  0.04908970  0.07181298  1  0.043454  0  0.091835  0.139122  0  1.003887  0
H  H26  1  0.51403669  0.06302714  0.53289187  1  0.044656  0  0.090594  0.139349  0  1.020431  0
H  H27  1  0.96981375  0.01835454  0.03255212  1  0.03228  0  0.090461  0.139631  0  1.019231  0
H  H28  1  0.45115310  0.06234845  0.60206829  1  0.052272  0  0.090467  0.132695  0  1.018588  0
H  H29  1  0.03901267  0.14982653  0.10187661  1  0.02684  0  0.090455  0.13299  0  1.018299  0
H  H30  1  0.26666854  0.85711120  0.48453678  1  0.024334  0  0.089539  0.119038  0  1.061129  0
H  H31  1  0.12734907  0.21772701  0.98431665  1  0.011942  0  0.089714  0.119265  0  1.060906  0
H  H32  1  0.12919739  0.62965840  0.44651788  1  0.111533  0  0.108399  0.108932  0  1.019288  0
H  H33  1  0.31627486  0.31677645  0.94626986  1  0.077764  0  0.108351  0.109111  0  1.019371  0
H  H34  1  0.99727493  0.40553837  0.36740662  1  0.100436  0  0.11288  0.116316  0  1.031897  0
H  H35  1  0.46173206  0.36974677  0.86727171  1  0.094877  0  0.112756  0.116028  0  1.032061  0
H  H36  1  0.66160684  0.56285154  0.29800246  1  0.058234  0  0.098205  0.099499  0  1.026326  0
H  H37  1  0.23618133  0.63703052  0.79788313  1  0.059579  0  0.098199  0.099286  0  1.025602  0
H  H38  1  0.80414975  0.79571878  0.37724908  1  0.110666  0  0.106091  0.108978  0  1.045706  0
H  H39  1  0.08184421  0.57331964  0.87687275  1  0.10023  0  0.105961  0.108661  0  1.045586  0
H  H40  1  0.80999203  0.18094290  0.32490332  1  0.1536  0  0.126736  0.131718  0  1.040785  0
H  H41  1  0.64449101  0.51535113  0.82500214  1  0.165377  0  0.126509  0.13183  0  1.041219  0
H  H42  1  0.62918296  0.99240342  0.21550709  1  0.064796  0  0.10893  0.10052  0  1.003612  0
H  H43  1  0.72435574  0.58725505  0.71568824  1  0.054389  0  0.108637  0.099793  0  1.002532  0
H  H44  1  0.63282652  0.41672119  0.20949339  1  0.08393  0  0.129779  0.092843  0  0.996432  0
H  H45  1  0.29388864  0.57717720  0.70931255  1  0.08958  0  0.12957  0.092715  0  0.997118  0
H  H46  1  0.26121208  0.06015623  0.96956257  1  0.05298  0  0.097644  0.14865  0  1.000272  0
H  H47  1  0.40834737  0.70826999  0.46945555  1  0.053165  0  0.097429  0.148093  0  1.001094  0
H  H48  1  0.28563790  0.90674999  0.93365712  1  0.042137  0  0.08954  0.13464  0  1.020047  0
H  H49  1  0.52637209  0.64828339  0.43374872  1  0.043757  0  0.089712  0.135128  0  1.020322  0
H  H50  1  0.38380936  0.99455003  0.01143532  1  0.030785  0  0.099837  0.148298  0  1.001119  0
H  H51  1  0.51566693  0.62756395  0.51149684  1  0.0603  0  0.099997  0.148737  0  1.000695  0
H  H52  1  0.44535268  0.97131902  0.86673342  1  0.013026  0  0.08779  0.113389  0  1.065533  0
H  H53  1  0.39532641  0.42128241  0.36676464  1  0.014248  0  0.087727  0.112908  0  1.067229  0
H  H54  1  0.54011535  0.90104629  0.79913018  1  0.067344  0  0.102461  0.100033  0  1.010677  0
H  H55  1  0.39823642  0.25868850  0.29909191  1  0.035927  0  0.102904  0.101026  0  1.010473  0
H  H56  1  0.59128917  0.84330302  0.70023496  1  0.133497  0  0.102691  0.1117  0  1.0792  0
H  H57  1  0.35720045  0.10896047  0.20014405  1  0.132685  0  0.102775  0.111907  0  1.079176  0
H  H58  1  0.80925461  0.31727135  0.69420520  1  0.066167  0  0.108028  0.113154  0  1.004566  0
H  H59  1  0.87719183  0.88570579  0.19395920  1  0.107379  0  0.107931  0.113089  0  1.003185  0
H  H60  1  0.76480292  0.37250190  0.79651460  1  0.118838  0  0.110033  0.114671  0  1.013294  0
H  H61  1  0.92423811  0.03185704  0.29636628  1  0.07783  0  0.110071  0.114622  0  1.012593  0
H  H62  1  0.62364270  0.79906331  0.61448073  1  0.167502  0  0.123097  0.124266  0  1.0366  0
H  H63  1  0.31519960  0.99103726  0.11404718  1  0.123208  0  0.122876  0.124576  0  1.036  0
H  H64  1  0.76969453  0.84216148  0.51762255  1  0.113616  0  0.125413  0.121793  0  1.008807  0
H  H65  1  0.17496624  0.74811318  0.01724289  1  0.118834  0  0.125632  0.121756  0  1.009236  0
H  H66  1  0.89000208  0.26350974  0.62043010  1  0.134919  0  0.143777  0.111803  0  0.992713  0
H  H67  1  0.85727193  0.73075024  0.12046219  1  0.121751  0  0.143647  0.110718  0  0.993781  0
H  H68  1  0.23269802  0.44223959  0.58308393  1  0.617025  0  0.314793  0.400883  0  0.901135  0
H  H69  1  0.64127634  0.35078027  0.08344242  1  0.617161  0  0.315015  0.401896  0  0.8996  0
H  H70  1  0.17703952  0.32066332  0.62664368  1  0.634639  0  0.278982  0.338698  0  1.03295  0
H  H71  1  0.80663512  0.45018023  0.12665780  1  0.630517  0  0.278878  0.338366  0  1.033725  0
C  C72  1  0.74860695  0.49048751  0.50378580  1  -0.120083  0  -0.244846  -0.478383  0  3.898769  0
C  C73  1  0.51276212  0.75446501  0.00397527  1  -0.089337  0  -0.244848  -0.477893  0  3.899467  0
C  C74  1  0.77495827  0.35732781  0.48053362  1  0.768881  0  0.128039  0.515026  0  4.024795  0
C  C75  1  0.62251518  0.70477220  0.98062823  1  0.744761  0  0.128166  0.515284  0  4.023904  0
C  C76  1  0.65076294  0.23292601  0.44193829  1  -0.032321  0  -0.158385  -0.464382  0  3.965835  0
C  C77  1  0.70842007  0.79072128  0.94210286  1  -0.00766  0  -0.158764  -0.465912  0  3.966471  0
C  C78  1  0.66291314  0.10564366  0.41563579  1  0.747015  0  0.116591  0.387258  0  4.114759  0
C  C79  1  0.80950935  0.75259720  0.91577128  1  0.744713  0  0.117239  0.387814  0  4.113711  0
C  C80  1  0.52737901  0.97778563  0.37492193  1  -0.021582  0  -0.015482  -0.001999  0  3.948449  0
C  C81  1  0.89653191  0.84767104  0.87504994  1  -0.053188  0  -0.015779  -0.001323  0  3.950432  0
C  C82  1  0.37826944  0.96240499  0.36834240  1  -0.010901  0  -0.079007  -0.080444  0  3.964638  0
C  C83  1  0.90502221  0.99009498  0.86837727  1  0.017251  0  -0.078599  -0.079976  0  3.965739  0
C  C84  1  0.25734273  0.83961048  0.33004679  1  -0.036903  0  -0.091529  -0.170777  0  3.986788  0
C  C85  1  0.98949251  0.07286141  0.83006173  1  -0.010764  0  -0.091583  -0.169813  0  3.984664  0
C  C86  1  0.28461438  0.73058634  0.29718136  1  0.334551  0  0.096077  0.175509  0  4.012669  0
C  C87  1  0.06600909  0.01298005  0.79730705  1  0.304423  0  0.09657  0.176459  0  4.015821  0
C  C88  1  0.43274590  0.74409837  0.30296506  1  -0.112061  0  -0.097226  -0.179435  0  4.009997  0
C  C89  1  0.05845864  0.87065476  0.80314055  1  -0.071969  0  -0.097208  -0.179203  0  4.010722  0
C  C90  1  0.55192477  0.86647007  0.34172629  1  0.024132  0  -0.08262  -0.084475  0  3.981798  0
C  C91  1  0.97480701  0.79007974  0.84189176  1  -0.002336  0  -0.082848  -0.085804  0  3.985767  0
C  C92  1  0.15208775  0.46420188  0.24182788  1  0.223603  0  -0.00713  -0.119645  0  3.938601  0
C  C93  1  0.27725842  0.08988957  0.74212302  1  0.262881  0  -0.007363  -0.120325  0  3.937892  0
C  C94  1  0.01891417  0.38736362  0.19813942  1  0.4576  0  0.00194  -0.018229  0  3.990989  0
C  C95  1  0.31095673  0.17954564  0.69848080  1  0.458274  0  0.001689  -0.018399  0  3.987766  0
C  C96  1  0.03678865  0.61155250  0.22168565  1  0.975381  0  0.135886  0.089106  0  3.93004  0
C  C97  1  0.11049836  0.18584327  0.72189730  1  0.955725  0  0.13627  0.089274  0  3.930849  0
C  C98  1  0.45635635  0.11070860  0.55972841  1  -0.077249  0  -0.249992  -0.485029  0  3.916635  0
C  C99  1  0.94875907  0.10267411  0.05942830  1  -0.062838  0  -0.249772  -0.486185  0  3.915577  0
C  C100  1  0.29707029  0.07446332  0.52495034  1  0.824416  0  0.127764  0.521408  0  4.018366  0
C  C101  1  0.95055892  0.22764271  0.02482855  1  0.772518  0  0.128049  0.523388  0  4.017289  0
C  C102  1  0.20974476  0.92967109  0.48963696  1  -0.111051  0  -0.15815  -0.466549  0  3.974459  0
C  C103  1  0.05989549  0.27971852  0.98946507  1  -0.031401  0  -0.158744  -0.468463  0  3.975093  0
C  C104  1  0.05630181  0.87792700  0.45969037  1  0.784608  0  0.122425  0.399559  0  4.092841  0
C  C105  1  0.08148090  0.40313180  0.95940916  1  0.770652  0  0.122576  0.400594  0  4.092179  0
C  C106  1  0.97761412  0.73186949  0.41599450  1  -0.02039  0  -0.015056  -0.002562  0  3.946049  0
C  C107  1  0.18383575  0.43808353  0.91567484  1  -0.015447  0  -0.015241  -0.003689  0  3.945269  0
C  C108  1  0.02996838  0.61979055  0.41316050  1  -0.066995  0  -0.072174  -0.070941  0  3.939107  0
C  C109  1  0.29297435  0.38273401  0.91288653  1  0.007879  0  -0.071807  -0.070392  0  3.937509  0
C  C110  1  0.95385628  0.49052700  0.36878185  1  0.03884  0  -0.084485  -0.158064  0  3.944151  0
C  C111  1  0.37811870  0.41453723  0.86857917  1  0.005486  0  -0.084638  -0.157689  0  3.943235  0
C  C112  1  0.82168316  0.46970256  0.32665140  1  0.274584  0  0.097613  0.174837  0  4.020733  0
C  C113  1  0.35732865  0.50498015  0.82649717  1  0.280294  0  0.097823  0.174342  0  4.0204  0
C  C114  1  0.76637374  0.57954456  0.32961651  1  -0.076017  0  -0.103769  -0.193788  0  4.029004  0
C  C115  1  0.25057288  0.56342282  0.82941199  1  -0.096048  0  -0.1038  -0.192898  0  4.027227  0
C  C116  1  0.84438021  0.70869099  0.37366959  1  -0.02218  0  -0.087534  -0.094627  0  3.98416  0
C  C117  1  0.16512813  0.52929109  0.87336016  1  -0.01277  0  -0.087291  -0.094214  0  3.983476  0
C  C118  1  0.74802773  0.20097562  0.28437869  1  0.297517  0  -0.002423  -0.108933  0  3.915089  0
C  C119  1  0.58422875  0.53693707  0.78443849  1  0.277565  0  -0.001682  -0.109049  0  3.914619  0
C  C120  1  0.65742968  0.10985440  0.22986760  1  0.394091  0  -0.014559  -0.041232  0  4.059465  0
C  C121  1  0.62115837  0.57322187  0.72996717  1  0.400764  0  -0.014294  -0.039316  0  4.056242  0
C  C122  1  0.65122574  0.32370841  0.22526367  1  1.007198  0  0.128719  0.089082  0  3.970754  0
C  C123  1  0.40262605  0.57461006  0.72517955  1  0.979813  0  0.128946  0.088667  0  3.9726  0
C  C124  1  0.34370055  0.01376451  0.96553952  1  -0.0571  0  -0.244829  -0.491302  0  3.918537  0
C  C125  1  0.45095681  0.62189443  0.46553961  1  -0.10541  0  -0.244669  -0.49129  0  3.917746  0
C  C126  1  0.47714497  0.12627113  0.94632858  1  0.796356  0  0.131398  0.519927  0  4.014934  0
C  C127  1  0.31941542  0.46913420  0.44622981  1  0.801506  0  0.130621  0.520376  0  4.012351  0
C  C128  1  0.51422422  0.08491301  0.89171688  1  -0.067935  0  -0.157542  -0.469933  0  3.971403  0
C  C129  1  0.30659770  0.37739486  0.39170342  1  -0.053734  0  -0.157359  -0.468817  0  3.970909  0
C  C130  1  0.62418474  0.18691389  0.86589439  1  0.765086  0  0.122034  0.395826  0  4.10563  0
C  C131  1  0.17896558  0.24151671  0.36586985  1  0.75433  0  0.122721  0.395874  0  4.103509  0
C  C132  1  0.64680842  0.14229969  0.80464829  1  0.002004  0  -0.015417  -0.005823  0  3.953678  0
C  C133  1  0.16256491  0.15775464  0.30461372  1  -0.020637  0  -0.017079  -0.007998  0  3.957161  0
C  C134  1  0.59737341  0.99354525  0.77624592  1  -0.035422  0  -0.080902  -0.084017  0  3.976839  0
C  C135  1  0.28290798  0.17872289  0.27619024  1  0.002284  0  -0.08056  -0.084969  0  3.978101  0
C  C136  1  0.62662195  0.96007651  0.71985626  1  -0.050053  0  -0.095401  -0.172706  0  3.962825  0
C  C137  1  0.26004443  0.09324733  0.21975598  1  -0.037081  0  -0.095541  -0.171673  0  3.96067  0
C  C138  1  0.70474780  0.07590615  0.69018388  1  0.318265  0  0.099075  0.173005  0  4.02847  0
C  C139  1  0.11453994  0.98570927  0.19000925  1  0.296159  0  0.099008  0.171865  0  4.028072  0
C  C140  1  0.75182498  0.22543719  0.71723537  1  -0.047068  0  -0.096283  -0.193359  0  4.024302  0
C  C141  1  0.99206539  0.96589309  0.21704786  1  -0.079834  0  -0.095829  -0.192196  0  4.023447  0
C  C142  1  0.72507199  0.25710280  0.77419056  1  -0.080814  0  -0.077975  -0.076905  0  3.965672  0
C  C143  1  0.01735353  0.04933365  0.27405346  1  -0.023153  0  -0.078101  -0.076611  0  3.967631  0
C  C144  1  0.69950249  0.90015449  0.60140037  1  0.281395  0  -0.001092  -0.111414  0  3.895834  0
C  C145  1  0.20111496  0.90211659  0.10105564  1  0.296253  0  -0.000307  -0.111196  0  3.895071  0
C  C146  1  0.77173711  0.92259808  0.55399604  1  0.392017  0  0.012515  0.001938  0  3.989309  0
C  C147  1  0.13117072  0.78243943  0.05370607  1  0.425542  0  0.011962  0.000854  0  3.988166  0
C  C148  1  0.83659773  0.14328249  0.60545986  1  0.98376  0  0.150491  0.113018  0  3.92489  0
C  C149  1  0.96232169  0.76915606  0.10535525  1  0.981134  0  0.151042  0.114958  0  3.923815  0
N  N150  1  0.16272485  0.60755263  0.25665419  1  -1.264249  0  -0.227905  0.00951  0  3.807132  0
N  N151  1  0.14884153  0.09447069  0.75686866  1  -1.267421  0  -0.22838  0.008736  0  3.809723  0
N  N152  1  0.94901999  0.48088519  0.18564830  1  -1.206778  0  -0.322373  -0.274166  0  3.403731  0
N  N153  1  0.20540445  0.23746735  0.68592536  1  -1.191749  0  -0.322477  -0.274601  0  3.402  0
N  N154  1  0.74307947  0.33829608  0.28147002  1  -1.269481  0  -0.230771  -0.002758  0  3.796083  0
N  N155  1  0.44394230  0.53879022  0.78141838  1  -1.250421  0  -0.230604  -0.002065  0  3.796477  0
N  N156  1  0.59783832  0.18728466  0.19304835  1  -1.210372  0  -0.35642  -0.329065  0  3.310658  0
N  N157  1  0.50705510  0.59596816  0.69305717  1  -1.189348  0  -0.356987  -0.329768  0  3.313752  0
N  N158  1  0.74169125  0.04219161  0.63443966  1  -1.275473  0  -0.226924  -0.000335  0  3.796211  0
N  N159  1  0.09240129  0.89303442  0.13423893  1  -1.25965  0  -0.227732  -0.001798  0  3.795832  0
N  N160  1  0.85752513  0.07433326  0.55736279  1  -1.217379  0  -0.406748  -0.380101  0  3.487115  0
N  N161  1  0.98294295  0.70006257  0.05721292  1  -1.223645  0  -0.405714  -0.378877  0  3.484047  0
O  O162  1  0.90794518  0.36538750  0.49786016  1  -1.159563  0  -0.382264  -0.590996  0  2.274164  0
O  O163  1  0.63156526  0.58879202  0.99777738  1  -1.165884  0  -0.382303  -0.590807  0  2.27326  0
O  O164  1  0.78708882  0.09068062  0.42271253  1  -1.164558  0  -0.390435  -0.594506  0  2.36844  0
O  O165  1  0.83170944  0.63550271  0.92278956  1  -1.164231  0  -0.391108  -0.594858  0  2.369056  0
O  O166  1  0.25135352  0.17738567  0.52978143  1  -1.166125  0  -0.384034  -0.599265  0  2.24336  0
O  O167  1  0.85276547  0.27848391  0.02983025  1  -1.166494  0  -0.384952  -0.600625  0  2.244091  0
O  O168  1  0.97722977  0.95159753  0.46529307  1  -1.171808  0  -0.388802  -0.592528  0  2.353689  0
O  O169  1  0.01334887  0.48777344  0.96493011  1  -1.173473  0  -0.38778  -0.591554  0  2.351161  0
O  O170  1  0.54697944  0.25445593  0.98097946  1  -1.178617  0  -0.37237  -0.584481  0  2.251618  0
O  O171  1  0.22551446  0.43389342  0.48074330  1  -1.174664  0  -0.371904  -0.584979  0  2.253541  0
O  O172  1  0.70631348  0.32399743  0.89091134  1  -1.167085  0  -0.393432  -0.589135  0  2.35644  0
O  O173  1  0.06693259  0.18413387  0.39087627  1  -1.16347  0  -0.393164  -0.588787  0  2.353919  0
O  O174  1  0.14199104  0.36447214  0.59083463  1  -1.258565  0  -0.634056  -0.83664  0  2.138221  0
O  O175  1  0.72674322  0.44919076  0.09090168  1  -1.254083  0  -0.634794  -0.838241  0  2.137614  0
