# generated using pymatgen
data_ZnH5C5SN5O4
_symmetry_space_group_name_H-M   'P 1'
_cell_length_a   8.96860940
_cell_length_b   9.00759918
_cell_length_c   10.72374586
_cell_angle_alpha   90.00000818
_cell_angle_beta   90.00001674
_cell_angle_gamma   98.64013666
_symmetry_Int_Tables_number   1
_chemical_formula_structural   ZnH5C5SN5O4
_chemical_formula_sum   'Zn4 H20 C20 S4 N20 O16'
_cell_volume   856.49307482
_cell_formula_units_Z   4
loop_
 _symmetry_equiv_pos_site_id
 _symmetry_equiv_pos_as_xyz
  1  'x, y, z'
loop_
 _atom_site_type_symbol
 _atom_site_label
 _atom_site_symmetry_multiplicity
 _atom_site_fract_x
 _atom_site_fract_y
 _atom_site_fract_z
 _atom_site_occupancy
 _atom_site_pbe_bader_spin_density
 _atom_site_pbe_cm5_charge
 _atom_site_pbe_ddec_charge
 _atom_site_pbe_ddec_spin_density
 _atom_site_pbe_ddec_sum_bond_order
 _atom_site_pbe_magmom
Zn  Zn0  1  0.14661802  0.81795397  0.34988154  1  0  0.729552  0.870006  0  2.301503  0
Zn  Zn1  1  0.85338199  0.68204580  0.84988135  1  0  0.72956  0.87001  0  2.301497  0
Zn  Zn2  1  0.85338144  0.18204683  0.65011903  1  0  0.729566  0.870005  0  2.301485  0
Zn  Zn3  1  0.14661842  0.31795387  0.15012016  1  0  0.729551  0.86999  0  2.301529  0
H  H4  1  0.59992879  0.28511439  0.24753673  1  0  0.314967  0.301405  0  0.988365  0
H  H5  1  0.40007111  0.21488633  0.74753736  1  0  0.31497  0.301423  0  0.988358  0
H  H6  1  0.40007050  0.71488529  0.75246291  1  0  0.314967  0.301416  0  0.988385  0
H  H7  1  0.59992947  0.78511446  0.25246321  1  0  0.314962  0.30142  0  0.988372  0
H  H8  1  0.57971264  0.26746120  0.03593902  1  0  0.325834  0.335858  0  0.910366  0
H  H9  1  0.42028717  0.23253947  0.53593966  1  0  0.325815  0.335828  0  0.910406  0
H  H10  1  0.42028665  0.73253847  0.96406061  1  0  0.325795  0.335782  0  0.910459  0
H  H11  1  0.57971452  0.76746133  0.46406091  1  0  0.325811  0.335831  0  0.910453  0
H  H12  1  0.68824762  0.39444755  0.93573843  1  0  0.304632  0.324044  0  0.994946  0
H  H13  1  0.31175218  0.10555209  0.43573864  1  0  0.304657  0.324095  0  0.994887  0
H  H14  1  0.31175296  0.60555325  0.06426213  1  0  0.304659  0.324096  0  0.994893  0
H  H15  1  0.68824822  0.89444759  0.56426192  1  0  0.304657  0.324098  0  0.994887  0
H  H16  1  0.08757920  0.83858499  0.04413110  1  0  0.128422  0.088445  0  1.059533  0
H  H17  1  0.91242069  0.66141472  0.54413091  1  0  0.12842  0.088443  0  1.059523  0
H  H18  1  0.91242120  0.16141468  0.95586947  1  0  0.128412  0.088426  0  1.059544  0
H  H19  1  0.08757989  0.33858608  0.45586966  1  0  0.128414  0.088451  0  1.059504  0
H  H20  1  0.69566335  0.39233343  0.43309504  1  0  0.134533  0.093067  0  1.023698  0
H  H21  1  0.30433645  0.10766621  0.93309564  1  0  0.134522  0.093059  0  1.023702  0
H  H22  1  0.30433688  0.60766512  0.56690553  1  0  0.134517  0.093067  0  1.023668  0
H  H23  1  0.69566302  0.89233459  0.06690586  1  0  0.134521  0.093062  0  1.023685  0
C  C24  1  0.01036187  0.75241055  0.09202013  1  0  0.150997  0.207205  0  3.925317  0
C  C25  1  0.98963804  0.74758917  0.59202091  1  0  0.15099  0.207225  0  3.925289  0
C  C26  1  0.98963725  0.24758800  0.90798044  1  0  0.151003  0.207222  0  3.925301  0
C  C27  1  0.01036365  0.25241163  0.40798059  1  0  0.151019  0.207234  0  3.925251  0
C  C28  1  0.83478122  0.56187634  0.12208994  1  0  0.07919  -0.043437  0  3.995642  0
C  C29  1  0.16521964  0.93812227  0.62209054  1  0  0.079185  -0.043474  0  3.99571  0
C  C30  1  0.16521902  0.43812222  0.87791063  1  0  0.079152  -0.043531  0  3.995806  0
C  C31  1  0.83478076  0.06187741  0.37791096  1  0  0.079137  -0.043483  0  3.995717  0
C  C32  1  0.72213000  0.43344083  0.12266248  1  0  0.266088  0.431225  0  4.048376  0
C  C33  1  0.27786968  0.06655874  0.62266306  1  0  0.266029  0.431196  0  4.048462  0
C  C34  1  0.27787074  0.56656109  0.87733716  1  0  0.266039  0.431212  0  4.048462  0
C  C35  1  0.72213056  0.93343981  0.37733658  1  0  0.266075  0.431232  0  4.04838  0
C  C36  1  0.74203093  0.44414270  0.34694885  1  0  0.187111  0.260447  0  3.955454  0
C  C37  1  0.25796995  0.05585692  0.84694942  1  0  0.187126  0.260477  0  3.955476  0
C  C38  1  0.25796930  0.55585585  0.65305172  1  0  0.187126  0.260479  0  3.955483  0
C  C39  1  0.74203063  0.94414388  0.15305115  1  0  0.187126  0.260485  0  3.955457  0
C  C40  1  0.89436618  0.61442247  0.23794499  1  0  0.206144  0.28642  0  4.144422  0
C  C41  1  0.10563490  0.88557728  0.73794557  1  0  0.206117  0.286358  0  4.144496  0
C  C42  1  0.10563423  0.38557721  0.76205558  1  0  0.206182  0.28646  0  4.144506  0
C  C43  1  0.89436568  0.11442351  0.26205593  1  0  0.206075  0.286295  0  4.144571  0
S  S44  1  0.35602895  0.06331466  0.19650228  1  0  0.567202  1.408637  0  6.372041  0
S  S45  1  0.64397075  0.43668492  0.69650206  1  0  0.567167  1.408587  0  6.372026  0
S  S46  1  0.64397111  0.93668277  0.80349456  1  0  0.567278  1.408806  0  6.371908  0
S  S47  1  0.35602905  0.56331812  0.30349477  1  0  0.567268  1.408802  0  6.371855  0
N  N48  1  0.00539224  0.73367808  0.21732709  1  0  -0.367097  -0.392132  0  3.538921  0
N  N49  1  0.99460789  0.76632279  0.71732694  1  0  -0.36709  -0.392107  0  3.538941  0
N  N50  1  0.99460705  0.26632159  0.78267348  1  0  -0.367075  -0.392122  0  3.538912  0
N  N51  1  0.00539380  0.23367801  0.28267363  1  0  -0.367078  -0.392114  0  3.539106  0
N  N52  1  0.90954114  0.65272322  0.02977613  1  0  -0.355922  -0.335781  0  3.484272  0
N  N53  1  0.09045986  0.84727648  0.52977576  1  0  -0.35589  -0.335764  0  3.484263  0
N  N54  1  0.09045926  0.34727645  0.97022444  1  0  -0.355873  -0.335692  0  3.484376  0
N  N55  1  0.90954166  0.15272319  0.47022480  1  0  -0.355876  -0.335726  0  3.484303  0
N  N56  1  0.68325722  0.38044180  0.23976894  1  0  -0.362602  -0.308642  0  3.602653  0
N  N57  1  0.31674251  0.11955780  0.73976954  1  0  -0.362557  -0.308598  0  3.602673  0
N  N58  1  0.31674207  0.61955788  0.76023070  1  0  -0.362559  -0.308621  0  3.602784  0
N  N59  1  0.68325790  0.88044188  0.26023103  1  0  -0.362592  -0.308665  0  3.602679  0
N  N60  1  0.84987879  0.55986728  0.35167949  1  0  -0.324229  -0.36652  0  3.322017  0
N  N61  1  0.15012121  0.94013250  0.85168009  1  0  -0.324215  -0.366498  0  3.321974  0
N  N62  1  0.15012144  0.44013128  0.64832108  1  0  -0.324272  -0.366591  0  3.322157  0
N  N63  1  0.84987936  0.05986830  0.14832048  1  0  -0.324187  -0.366475  0  3.322028  0
N  N64  1  0.65555140  0.36225526  0.02505385  1  0  -0.545178  -0.556125  0  3.323349  0
N  N65  1  0.34444841  0.13774541  0.52505446  1  0  -0.545177  -0.556149  0  3.323303  0
N  N66  1  0.34444901  0.63774441  0.97494672  1  0  -0.54516  -0.5561  0  3.323322  0
N  N67  1  0.65555199  0.86225427  0.47494705  1  0  -0.545177  -0.556163  0  3.323347  0
O  O68  1  0.23641047  0.02413859  0.29788941  1  0  -0.366008  -0.671471  0  2.389315  0
O  O69  1  0.76358928  0.47586101  0.79788830  1  0  -0.365984  -0.671451  0  2.389334  0
O  O70  1  0.76359217  0.97586108  0.70211023  1  0  -0.366044  -0.671496  0  2.389195  0
O  O71  1  0.23640778  0.52413867  0.20210948  1  0  -0.366045  -0.671506  0  2.389224  0
O  O72  1  0.36380356  0.93330331  0.11763530  1  0  -0.350697  -0.626182  0  2.154836  0
O  O73  1  0.63619635  0.56669642  0.61763504  1  0  -0.350699  -0.626175  0  2.154827  0
O  O74  1  0.63618947  0.06669189  0.88236247  1  0  -0.350706  -0.626215  0  2.154826  0
O  O75  1  0.36380937  0.43330886  0.38236273  1  0  -0.35068  -0.626182  0  2.154844  0
O  O76  1  0.30756809  0.18997321  0.12076662  1  0  -0.369089  -0.665063  0  2.33674  0
O  O77  1  0.69243065  0.31002748  0.62076640  1  0  -0.369082  -0.665041  0  2.336695  0
O  O78  1  0.69243137  0.81002759  0.87923395  1  0  -0.369102  -0.665104  0  2.336732  0
O  O79  1  0.30756770  0.68997332  0.37923417  1  0  -0.369106  -0.665116  0  2.336699  0
O  O80  1  0.49936940  0.12054644  0.25961271  1  0  -0.353862  -0.641419  0  2.242491  0
O  O81  1  0.50063033  0.37945316  0.75961245  1  0  -0.353867  -0.641435  0  2.242495  0
O  O82  1  0.50063160  0.87944986  0.74038413  1  0  -0.353884  -0.641479  0  2.242464  0
O  O83  1  0.49936948  0.62054989  0.24038439  1  0  -0.353883  -0.641484  0  2.242464  0
