# generated using pymatgen
data_ZnH5C24Br4N5O12
_symmetry_space_group_name_H-M   'P 1'
_cell_length_a   15.20778820
_cell_length_b   15.20774294
_cell_length_c   17.15727781
_cell_angle_alpha   92.17323576
_cell_angle_beta   92.24166159
_cell_angle_gamma   90.50989610
_symmetry_Int_Tables_number   1
_chemical_formula_structural   ZnH5C24Br4N5O12
_chemical_formula_sum   'Zn2 H10 C48 Br8 N10 O24'
_cell_volume   3961.96618042
_cell_formula_units_Z   2
loop_
 _symmetry_equiv_pos_site_id
 _symmetry_equiv_pos_as_xyz
  1  'x, y, z'
loop_
 _atom_site_type_symbol
 _atom_site_label
 _atom_site_symmetry_multiplicity
 _atom_site_fract_x
 _atom_site_fract_y
 _atom_site_fract_z
 _atom_site_occupancy
 _atom_site_pbe_bader_charge
 _atom_site_pbe_bader_spin_density
 _atom_site_pbe_cm5_charge
 _atom_site_pbe_ddec_charge
 _atom_site_pbe_ddec_spin_density
 _atom_site_pbe_ddec_sum_bond_order
 _atom_site_pbe_magmom
Zn  Zn0  1  0.50423612  0.50407771  0.09077179  1  1.345065  0  0.673846  0.901121  0  2.279152  0
Zn  Zn1  1  0.49583143  0.49584253  0.90924918  1  1.33965  0  0.673975  0.901461  0  2.279341  0
H  H2  1  0.42965000  0.42930866  0.50927741  1  0.099689  0  0.068561  0.063298  0  1.196591  0
H  H3  1  0.57033133  0.57060245  0.49077120  1  0.100121  0  0.068582  0.063216  0  1.196118  0
H  H4  1  0.21958532  0.49712691  0.87564681  1  0.149266  0  0.109784  0.119491  0  1.033297  0
H  H5  1  0.23082859  0.50834062  0.12445368  1  0.147592  0  0.110619  0.121546  0  1.023567  0
H  H6  1  0.78077595  0.50294246  0.12504662  1  0.149895  0  0.111469  0.123259  0  1.02296  0
H  H7  1  0.76896128  0.49052061  0.87625583  1  0.158897  0  0.108869  0.118195  0  1.036059  0
H  H8  1  0.49228069  0.76940568  0.87541733  1  0.146735  0  0.110485  0.121964  0  1.023072  0
H  H9  1  0.50307953  0.78016952  0.12423368  1  0.116362  0  0.109504  0.119224  0  1.034125  0
H  H10  1  0.51006512  0.23083396  0.12387568  1  0.158746  0  0.108644  0.118649  0  1.03559  0
H  H11  1  0.49816858  0.21948346  0.87507046  1  0.141721  0  0.111669  0.123545  0  1.021674  0
C  C12  1  0.66897335  0.49636441  0.00133344  1  1.579352  0  0.216783  0.600525  0  4.160183  0
C  C13  1  0.49664734  0.66884311  0.99995200  1  1.582981  0  0.217819  0.602629  0  4.161015  0
C  C14  1  0.33114676  0.50333244  0.99991696  1  1.5833  0  0.217738  0.60313  0  4.160568  0
C  C15  1  0.50406290  0.33105025  0.99882916  1  1.579373  0  0.217034  0.601137  0  4.159864  0
C  C16  1  0.54577271  0.54467257  0.74064596  1  0.466969  0  0.109591  0.19309  0  3.963691  0
C  C17  1  0.54577293  0.54482376  0.65853538  1  0.024937  0  -0.011462  -0.020208  0  3.874328  0
C  C18  1  0.48807181  0.48785380  0.61281456  1  0.073355  0  0.008763  0.0986  0  3.925051  0
C  C19  1  0.43270615  0.43328386  0.65626231  1  -0.041083  0  -0.012488  -0.021465  0  3.869115  0
C  C20  1  0.43673641  0.43751983  0.73811744  1  0.535262  0  0.107763  0.192022  0  3.972832  0
C  C21  1  0.47883616  0.47855622  0.52785744  1  0.051413  0  -0.088929  -0.085824  0  3.912204  0
C  C22  1  0.52129472  0.52121248  0.47219914  1  -0.063163  0  -0.089788  -0.086843  0  3.913071  0
C  C23  1  0.56656901  0.56737252  0.34378862  1  -0.043149  0  -0.011921  -0.020837  0  3.8675  0
C  C24  1  0.51205981  0.51193859  0.38724107  1  0.074415  0  0.008923  0.098214  0  3.926109  0
C  C25  1  0.45520141  0.45413415  0.34150158  1  0.024759  0  -0.01177  -0.019807  0  3.873801  0
C  C26  1  0.45539391  0.45412874  0.25939122  1  0.467985  0  0.109401  0.192467  0  3.963267  0
C  C27  1  0.56237158  0.56332424  0.26192292  1  0.533412  0  0.107356  0.191079  0  3.973251  0
C  C28  1  0.18370840  0.49880222  0.92929230  1  -0.043852  0  -0.070753  -0.118304  0  3.896291  0
C  C29  1  0.09150429  0.49841343  0.92808219  1  0.049389  0  0.003917  0.042298  0  4.002544  0
C  C30  1  0.03835117  0.49462906  0.85707042  1  0.225062  0  0.092739  -0.005008  0  3.900059  0
C  C31  1  0.19013168  0.50567324  0.07082539  1  0.060044  0  -0.07068  -0.11613  0  3.896789  0
C  C32  1  0.09807623  0.50333243  0.07212355  1  -0.005349  0  0.00336  0.039364  0  4.00668  0
C  C33  1  0.05147532  0.50576512  0.14324049  1  0.226965  0  0.092752  -0.005419  0  3.904769  0
C  C34  1  0.81654002  0.50041748  0.07134865  1  0.023843  0  -0.070096  -0.116855  0  3.89726  0
C  C35  1  0.90865896  0.50286650  0.07231652  1  0.04757  0  0.003182  0.041406  0  4.006389  0
C  C36  1  0.96173068  0.50709249  0.14331278  1  0.223214  0  0.093191  -0.005109  0  3.905604  0
C  C37  1  0.80973966  0.49392551  0.92981523  1  0.0464  0  -0.070278  -0.117236  0  3.89762  0
C  C38  1  0.90184826  0.49435368  0.92827178  1  0.006088  0  0.002741  0.039581  0  4.001883  0
C  C39  1  0.94854726  0.49193285  0.85713878  1  0.221301  0  0.092882  -0.004953  0  3.898657  0
C  C40  1  0.23216364  0.50299461  0.00002879  1  0.034717  0  -0.006374  -0.000289  0  3.952392  0
C  C41  1  0.04680397  0.50030743  0.00014411  1  -0.059611  0  0.015282  0.021437  0  3.901989  0
C  C42  1  0.76792039  0.49640145  0.00073385  1  -0.035407  0  -0.007064  -0.001068  0  3.953109  0
C  C43  1  0.95323400  0.49915522  0.00020417  1  0.053572  0  0.015318  0.021144  0  3.901365  0
C  C44  1  0.49497609  0.80998764  0.92907425  1  -0.03683  0  -0.070098  -0.116616  0  3.896865  0
C  C45  1  0.49765913  0.90205019  0.92784109  1  0.096601  0  0.003226  0.039784  0  4.005751  0
C  C46  1  0.49563341  0.94879442  0.85674730  1  0.228889  0  0.092413  -0.005239  0  3.903221  0
C  C47  1  0.50161802  0.81614490  0.07060511  1  -0.012078  0  -0.070225  -0.11727  0  3.896894  0
C  C48  1  0.50223134  0.90834840  0.07186853  1  0.056298  0  0.00286  0.038923  0  4.006366  0
C  C49  1  0.50594990  0.96135872  0.14290773  1  0.221598  0  0.09357  -0.003386  0  3.901096  0
C  C50  1  0.50678567  0.19013942  0.07029994  1  0.051001  0  -0.070379  -0.118489  0  3.89876  0
C  C51  1  0.50646766  0.09801966  0.07179111  1  0.006905  0  0.003184  0.040407  0  4.001892  0
C  C52  1  0.50872529  0.05116254  0.14289258  1  0.226067  0  0.092226  -0.005127  0  3.899249  0
C  C53  1  0.50063799  0.18361511  0.92875458  1  0.035999  0  -0.070293  -0.116925  0  3.896561  0
C  C54  1  0.49839110  0.09149321  0.92772761  1  0.048495  0  0.00303  0.039839  0  4.008131  0
C  C55  1  0.49442861  0.03854043  0.85670470  1  0.220945  0  0.092745  -0.0044  0  3.904704  0
C  C56  1  0.49736487  0.76782561  0.99984422  1  0.034925  0  -0.006325  0.000194  0  3.952309  0
C  C57  1  0.50059460  0.95319009  0.99984572  1  -0.064019  0  0.015585  0.022284  0  3.902318  0
C  C58  1  0.50432821  0.23209518  0.99940048  1  -0.041358  0  -0.006773  -0.000827  0  3.953905  0
C  C59  1  0.50187013  0.04677573  0.99982205  1  0.052618  0  0.01545  0.021547  0  3.901322  0
Br  Br60  1  0.36262756  0.36426977  0.79284883  1  0.062867  0  0.111305  0.046997  0  1.623898  0
Br  Br61  1  0.35173917  0.35314433  0.60510251  1  0.034745  0  0.087688  0.019236  0  1.55395  0
Br  Br62  1  0.62297003  0.62102343  0.79943791  1  0.068216  0  0.110236  0.043782  0  1.642065  0
Br  Br63  1  0.62478210  0.62301528  0.61406169  1  0.043207  0  0.102822  0.035456  0  1.625462  0
Br  Br64  1  0.37705855  0.37507279  0.38597488  1  0.043048  0  0.102947  0.035524  0  1.625019  0
Br  Br65  1  0.37921908  0.37678804  0.20057750  1  0.067771  0  0.110075  0.043686  0  1.640875  0
Br  Br66  1  0.64664347  0.64841198  0.39495882  1  0.033983  0  0.087738  0.019373  0  1.553247  0
Br  Br67  1  0.63558938  0.63751308  0.20722368  1  0.062606  0  0.111439  0.047252  0  1.624726  0
N  N68  1  0.49245709  0.49234277  0.77998702  1  -1.211376  0  -0.304009  -0.273178  0  3.437876  0
N  N69  1  0.50765566  0.50751463  0.22004914  1  -1.206465  0  -0.303839  -0.272516  0  3.43793  0
N  N70  1  0.89717490  0.48959183  0.78197532  1  0.403923  0  0.060316  0.516344  0  4.237286  0
N  N71  1  0.08308594  0.49059226  0.78191378  1  0.42743  0  0.059462  0.515247  0  4.240628  0
N  N72  1  0.91705705  0.51034863  0.21845607  1  0.413166  0  0.060062  0.518964  0  4.234615  0
N  N73  1  0.10280521  0.50934095  0.21838638  1  0.418286  0  0.06077  0.520184  0  4.230887  0
N  N74  1  0.49141996  0.08332803  0.78156819  1  0.426543  0  0.059579  0.518137  0  4.232753  0
N  N75  1  0.49227683  0.89760919  0.78158056  1  0.406834  0  0.060213  0.519654  0  4.229462  0
N  N76  1  0.51094296  0.10240308  0.21807404  1  0.406776  0  0.060145  0.516149  0  4.235203  0
N  N77  1  0.50981640  0.91649349  0.21804831  1  0.424767  0  0.059642  0.514547  0  4.242423  0
O  O78  1  0.63575230  0.50048440  0.06808492  1  -1.159373  0  -0.315883  -0.553045  0  2.391256  0
O  O79  1  0.62872409  0.49333786  0.93506121  1  -1.165349  0  -0.316179  -0.555219  0  2.397663  0
O  O80  1  0.49244050  0.62902650  0.93350507  1  -1.168894  0  -0.317071  -0.556386  0  2.392534  0
O  O81  1  0.50134854  0.63514832  0.06650375  1  -1.166839  0  -0.315963  -0.554153  0  2.398122  0
O  O82  1  0.36475781  0.49854012  0.93336632  1  -1.166496  0  -0.31596  -0.554203  0  2.397252  0
O  O83  1  0.37103835  0.50737918  0.06636353  1  -1.16835  0  -0.316774  -0.556642  0  2.392808  0
O  O84  1  0.50698636  0.37119983  0.06509423  1  -1.165754  0  -0.316001  -0.555137  0  2.397256  0
O  O85  1  0.49978484  0.36436465  0.93207084  1  -1.160489  0  -0.316198  -0.55353  0  2.391536  0
O  O86  1  0.84483828  0.42760737  0.76961435  1  -0.406643  0  -0.112916  -0.299494  0  1.872963  0
O  O87  1  0.90968610  0.55105893  0.73842542  1  -0.415505  0  -0.120594  -0.308587  0  1.861592  0
O  O88  1  0.13334226  0.55218884  0.76922340  1  -0.416765  0  -0.111723  -0.29814  0  1.873844  0
O  O89  1  0.06774113  0.42479695  0.73881119  1  -0.426272  0  -0.119942  -0.307548  0  1.860192  0
O  O90  1  0.86784273  0.57323236  0.23046450  1  -0.417323  0  -0.116451  -0.315259  0  1.908538  0
O  O91  1  0.93154667  0.44913555  0.26238511  1  -0.416829  0  -0.117364  -0.299111  0  1.850771  0
O  O92  1  0.15323274  0.44763420  0.23054398  1  -0.418234  0  -0.117464  -0.317245  0  1.912736  0
O  O93  1  0.09200022  0.57435966  0.26225233  1  -0.422383  0  -0.118106  -0.2998  0  1.848369  0
O  O94  1  0.42851031  0.13246764  0.76930494  1  -0.42688  0  -0.115767  -0.314707  0  1.90819  0
O  O95  1  0.55283717  0.06900822  0.73790083  1  -0.423839  0  -0.117385  -0.299107  0  1.849408  0
O  O96  1  0.55395618  0.84710560  0.76968496  1  -0.419553  0  -0.117549  -0.317403  0  1.912173  0
O  O97  1  0.42746679  0.90858730  0.73742819  1  -0.410874  0  -0.117311  -0.299273  0  1.848532  0
O  O98  1  0.57293298  0.15469981  0.23060057  1  -0.413131  0  -0.112443  -0.298907  0  1.872485  0
O  O99  1  0.44939340  0.08982438  0.26147246  1  -0.410165  0  -0.12064  -0.308942  0  1.860147  0
O  O100  1  0.44816514  0.86622686  0.23054415  1  -0.417144  0  -0.112181  -0.298407  0  1.875142  0
O  O101  1  0.57554024  0.93173698  0.26132335  1  -0.427097  0  -0.119859  -0.307031  0  1.860316  0
