# generated using pymatgen
data_CdH10C13SN3Cl2
_symmetry_space_group_name_H-M   'P 1'
_cell_length_a   8.95484558
_cell_length_b   10.47106117
_cell_length_c   10.68455890
_cell_angle_alpha   66.73688588
_cell_angle_beta   87.71803551
_cell_angle_gamma   85.37279369
_symmetry_Int_Tables_number   1
_chemical_formula_structural   CdH10C13SN3Cl2
_chemical_formula_sum   'Cd2 H20 C26 S2 N6 Cl4'
_cell_volume   917.37162288
_cell_formula_units_Z   2
loop_
 _symmetry_equiv_pos_site_id
 _symmetry_equiv_pos_as_xyz
  1  'x, y, z'
loop_
 _atom_site_type_symbol
 _atom_site_label
 _atom_site_symmetry_multiplicity
 _atom_site_fract_x
 _atom_site_fract_y
 _atom_site_fract_z
 _atom_site_occupancy
 _atom_site_hle17_bader_spin_density
 _atom_site_hle17_ddec_charge
 _atom_site_hle17_ddec_spin_density
 _atom_site_hle17_ddec_sum_bond_order
 _atom_site_hle17_magmom
 _atom_site_hse06_10hf_bader_spin_density
 _atom_site_hse06_10hf_ddec_charge
 _atom_site_hse06_10hf_ddec_spin_density
 _atom_site_hse06_10hf_ddec_sum_bond_order
 _atom_site_hse06_10hf_magmom
 _atom_site_hse06_bader_spin_density
 _atom_site_hse06_ddec_charge
 _atom_site_hse06_ddec_spin_density
 _atom_site_hse06_ddec_sum_bond_order
 _atom_site_hse06_magmom
 _atom_site_pbe_bader_spin_density
 _atom_site_pbe_cm5_charge
 _atom_site_pbe_ddec_charge
 _atom_site_pbe_ddec_spin_density
 _atom_site_pbe_ddec_sum_bond_order
 _atom_site_pbe_magmom
Cd  Cd0  1  0.94760943  0.83101654  0.49212254  1  0  0.969325  0  1.940744  0  0  0.793268  0  2.415826  0  0  0.840547  0  2.373029  0  0  0.618529  0.759881  0  2.444428  0
Cd  Cd1  1  0.05237062  0.16897000  0.50787585  1  0  0.969253  0  1.940769  0  0  0.793185  0  2.415932  0  0  0.840463  0  2.373131  0  0  0.61849  0.759796  0  2.444548  0
H  H2  1  0.25680110  0.11063764  0.87227795  1  0  0.121391  0  0.920067  0  0  0.133433  0  0.972872  0  0  0.136441  0  0.972136  0  0  0.115017  0.131172  0  0.973625  0
H  H3  1  0.74318809  0.88936151  0.12771962  1  0  0.121399  0  0.920106  0  0  0.133425  0  0.972935  0  0  0.136428  0  0.972201  0  0  0.115046  0.131166  0  0.973691  0
H  H4  1  0.10881556  0.33386008  0.84820474  1  0  0.098727  0  0.982403  0  0  0.106695  0  1.048824  0  0  0.109323  0  1.049159  0  0  0.094976  0.104138  0  1.049284  0
H  H5  1  0.89121927  0.66615643  0.15181040  1  0  0.098705  0  0.982473  0  0  0.106669  0  1.048903  0  0  0.109275  0  1.049262  0  0  0.094981  0.104113  0  1.04936  0
H  H6  1  0.92045848  0.33870535  0.01965576  1  0  0.101877  0  0.912225  0  0  0.113573  0  0.9654  0  0  0.116241  0  0.96334  0  0  0.11441  0.111228  0  0.967467  0
H  H7  1  0.07966004  0.66134257  0.98042421  1  0  0.101526  0  0.912722  0  0  0.113406  0  0.965683  0  0  0.116034  0  0.96367  0  0  0.114396  0.111066  0  0.967748  0
H  H8  1  0.88101327  0.13150290  0.23400579  1  0  0.120999  0  0.9632  0  0  0.127681  0  1.028108  0  0  0.131784  0  1.02645  0  0  0.099635  0.12372  0  1.03117  0
H  H9  1  0.11910687  0.86850781  0.76606512  1  0  0.120898  0  0.9632  0  0  0.127613  0  1.028091  0  0  0.131712  0  1.02645  0  0  0.099585  0.123674  0  1.031135  0
H  H10  1  0.10990989  0.57696709  0.30748139  1  0  0.138267  0  0.962856  0  0  0.150972  0  1.027798  0  0  0.154044  0  1.02586  0  0  0.098547  0.14758  0  1.03014  0
H  H11  1  0.89007185  0.42301209  0.69248439  1  0  0.138175  0  0.962838  0  0  0.150879  0  1.027746  0  0  0.15395  0  1.025814  0  0  0.098492  0.147489  0  1.030084  0
H  H12  1  0.18552538  0.62840296  0.42908202  1  0  0.117585  0  0.949462  0  0  0.128715  0  1.019079  0  0  0.129889  0  1.019406  0  0  0.103451  0.127256  0  1.019676  0
H  H13  1  0.81442730  0.37157589  0.57090545  1  0  0.117595  0  0.949534  0  0  0.128607  0  1.019235  0  0  0.129785  0  1.019554  0  0  0.103369  0.127178  0  1.019813  0
H  H14  1  0.36136484  0.80533456  0.38738929  1  0  0.116408  0  0.979475  0  0  0.125358  0  1.041843  0  0  0.128207  0  1.041641  0  0  0.095711  0.123434  0  1.04202  0
H  H15  1  0.63861442  0.19469353  0.61258825  1  0  0.116494  0  0.979316  0  0  0.125417  0  1.041699  0  0  0.128275  0  1.041499  0  0  0.095678  0.123492  0  1.041875  0
H  H16  1  0.57461008  0.89058745  0.46202221  1  0  0.083242  0  0.943822  0  0  0.09095  0  1.008048  0  0  0.093683  0  1.004838  0  0  0.107032  0.088966  0  1.010316  0
H  H17  1  0.42538930  0.10942553  0.53794592  1  0  0.083346  0  0.943699  0  0  0.091079  0  1.007944  0  0  0.093814  0  1.004728  0  0  0.107041  0.089089  0  1.010211  0
H  H18  1  0.87526042  0.60107597  0.39436124  1  0  0.066166  0  0.964927  0  0  0.074762  0  1.03524  0  0  0.076532  0  1.033341  0  0  0.102191  0.073188  0  1.036773  0
H  H19  1  0.12471048  0.39891351  0.60562967  1  0  0.066157  0  0.964935  0  0  0.074709  0  1.035285  0  0  0.076488  0  1.033383  0  0  0.102154  0.073135  0  1.036819  0
H  H20  1  0.67843622  0.50395064  0.31304380  1  0  0.11987  0  0.945189  0  0  0.129965  0  1.002718  0  0  0.133776  0  1.001027  0  0  0.102854  0.126864  0  1.004544  0
H  H21  1  0.32152240  0.49605410  0.68692812  1  0  0.119805  0  0.945291  0  0  0.12994  0  1.00276  0  0  0.13375  0  1.001069  0  0  0.102838  0.126839  0  1.004583  0
C  C22  1  0.14811303  0.99378448  0.06704584  1  0  0.172796  0  3.809463  0  0  0.176522  0  4.048903  0  0  0.183667  0  4.068654  0  0  0.118918  0.172111  0  4.035318  0
C  C23  1  0.85188568  0.00620657  0.93296318  1  0  0.172722  0  3.809229  0  0  0.176453  0  4.048649  0  0  0.183613  0  4.068391  0  0  0.118955  0.172035  0  4.035047  0
C  C24  1  0.17353846  0.11523291  0.94784944  1  0  -0.073822  0  3.639958  0  0  -0.093643  0  3.883713  0  0  -0.094689  0  3.90276  0  0  -0.062744  -0.093655  0  3.871678  0
C  C25  1  0.82646836  0.88475410  0.05216566  1  0  -0.073697  0  3.639724  0  0  -0.093519  0  3.88351  0  0  -0.094562  0  3.902542  0  0  -0.062703  -0.093528  0  3.871467  0
C  C26  1  0.09229860  0.23715575  0.93562832  1  0  -0.103473  0  3.749167  0  0  -0.121791  0  4.006144  0  0  -0.129498  0  4.031657  0  0  -0.093931  -0.116619  0  3.99048  0
C  C27  1  0.90775484  0.76285066  0.06440254  1  0  -0.10345  0  3.749377  0  0  -0.121817  0  4.006465  0  0  -0.129498  0  4.031961  0  0  -0.093928  -0.116646  0  3.990796  0
C  C28  1  0.98361412  0.24026548  0.03494781  1  0  0.070678  0  3.572777  0  0  0.051194  0  3.826058  0  0  0.060079  0  3.84108  0  0  -0.031858  0.04321  0  3.8199  0
C  C29  1  0.01647515  0.75975473  0.96512114  1  0  0.071032  0  3.573669  0  0  0.051409  0  3.827025  0  0  0.060342  0  3.84202  0  0  -0.031983  0.043416  0  3.820858  0
C  C30  1  0.96020226  0.12360321  0.15677958  1  0  -0.137758  0  3.667279  0  0  -0.158416  0  3.91843  0  0  -0.16917  0  3.940725  0  0  -0.077659  -0.152928  0  3.908069  0
C  C31  1  0.03988940  0.87639980  0.84327952  1  0  -0.137652  0  3.667353  0  0  -0.158428  0  3.918642  0  0  -0.169175  0  3.940911  0  0  -0.077437  -0.152956  0  3.908267  0
C  C32  1  0.04164935  0.00130949  0.17082234  1  0  0.184997  0  3.762445  0  0  0.184131  0  4.00162  0  0  0.193026  0  4.024438  0  0  0.106992  0.177683  0  3.986876  0
C  C33  1  0.95837802  0.99868693  0.82919102  1  0  0.185183  0  3.761551  0  0  0.18439  0  4.000675  0  0  0.193286  0  4.023491  0  0  0.106984  0.177937  0  3.985935  0
C  C34  1  0.15002452  0.79380860  0.23513772  1  0  0.435483  0  3.683001  0  0  0.419056  0  3.951651  0  0  0.440067  0  3.963632  0  0  0.234875  0.402788  0  3.946056  0
C  C35  1  0.84995083  0.20618145  0.76483784  1  0  0.435678  0  3.682988  0  0  0.419385  0  3.951332  0  0  0.4404  0  3.963303  0  0  0.235063  0.403121  0  3.945716  0
C  C36  1  0.19147868  0.64508782  0.32060676  1  0  -0.277245  0  3.678522  0  0  -0.310079  0  3.921818  0  0  -0.31396  0  3.930729  0  0  -0.14419  -0.306082  0  3.91694  0
C  C37  1  0.80846653  0.35490150  0.67937757  1  0  -0.277359  0  3.679314  0  0  -0.310046  0  3.922447  0  0  -0.313931  0  3.93136  0  0  -0.144058  -0.306073  0  3.917536  0
C  C38  1  0.50009385  0.64677667  0.34034599  1  0  0.084951  0  3.79379  0  0  0.098908  0  4.052491  0  0  0.107025  0  4.072696  0  0  0.009444  0.093621  0  4.03803  0
C  C39  1  0.49988091  0.35323664  0.65963123  1  0  0.084657  0  3.79378  0  0  0.098546  0  4.052592  0  0  0.106631  0  4.072849  0  0  0.009365  0.093235  0  4.038168  0
C  C40  1  0.47272063  0.75617083  0.38496068  1  0  -0.167279  0  3.697624  0  0  -0.184248  0  3.942667  0  0  -0.192991  0  3.96361  0  0  -0.094742  -0.178392  0  3.928168  0
C  C41  1  0.52725742  0.24384340  0.61501232  1  0  -0.167239  0  3.697294  0  0  -0.184121  0  3.942358  0  0  -0.192871  0  3.96332  0  0  -0.094731  -0.178254  0  3.927862  0
C  C42  1  0.59251573  0.80471997  0.42828566  1  0  0.140845  0  3.720169  0  0  0.11074  0  3.972671  0  0  0.12002  0  3.988916  0  0  0.043731  0.104842  0  3.961019  0
C  C43  1  0.40746809  0.19529181  0.57167692  1  0  0.140842  0  3.72022  0  0  0.110644  0  3.972839  0  0  0.119927  0  3.98908  0  0  0.043795  0.104761  0  3.961174  0
C  C44  1  0.76008460  0.64530358  0.38945203  1  0  0.124497  0  3.76733  0  0  0.091784  0  4.030294  0  0  0.100092  0  4.048676  0  0  0.031168  0.086516  0  4.01772  0
C  C45  1  0.23988677  0.35469490  0.61052299  1  0  0.124787  0  3.766551  0  0  0.092153  0  4.029468  0  0  0.100452  0  4.047851  0  0  0.031276  0.086885  0  4.016895  0
C  C46  1  0.64891360  0.59065264  0.34365031  1  0  -0.175702  0  3.725655  0  0  -0.191532  0  3.973455  0  0  -0.200164  0  3.993199  0  0  -0.094661  -0.185886  0  3.960579  0
C  C47  1  0.35106604  0.40935516  0.65631967  1  0  -0.175738  0  3.725598  0  0  -0.191604  0  3.973439  0  0  -0.200226  0  3.993194  0  0  -0.094666  -0.185948  0  3.960562  0
S  S48  1  0.36691852  0.57162580  0.28233055  1  0  0.085662  0  2.384519  0  0  0.08005  0  2.694106  0  0  0.074402  0  2.696318  0  0  0.046154  0.08537  0  2.691505  0
S  S49  1  0.63306671  0.42835103  0.71766136  1  0  0.086063  0  2.385139  0  0  0.080411  0  2.694718  0  0  0.074781  0  2.696941  0  0  0.0463  0.085737  0  2.692139  0
N  N50  1  0.05064260  0.86932135  0.27798652  1  0  -0.487449  0  3.123102  0  0  -0.423615  0  3.395671  0  0  -0.450149  0  3.411413  0  0  -0.356482  -0.406431  0  3.386669  0
N  N51  1  0.94935762  0.13067980  0.72200799  1  0  -0.487448  0  3.122827  0  0  -0.423744  0  3.395426  0  0  -0.450282  0  3.411164  0  0  -0.356505  -0.406567  0  3.386433  0
N  N52  1  0.21368592  0.86492906  0.10598769  1  0  -0.407563  0  2.824184  0  0  -0.384372  0  3.077891  0  0  -0.400804  0  3.091718  0  0  -0.309468  -0.374521  0  3.069844  0
N  N53  1  0.78628206  0.13505465  0.89398697  1  0  -0.407704  0  2.824085  0  0  -0.384624  0  3.077783  0  0  -0.401057  0  3.091603  0  0  -0.309637  -0.374769  0  3.069725  0
N  N54  1  0.73471983  0.75149342  0.43037861  1  0  -0.36206  0  3.299307  0  0  -0.289298  0  3.572595  0  0  -0.309519  0  3.591461  0  0  -0.348253  -0.275166  0  3.55875  0
N  N55  1  0.26527155  0.24850679  0.56958568  1  0  -0.362368  0  3.299221  0  0  -0.28961  0  3.572575  0  0  -0.309827  0  3.59144  0  0  -0.348392  -0.275481  0  3.558733  0
Cl  Cl56  1  0.02513657  0.61367928  0.68821316  1  0  -0.59628  0  0.848445  0  0  -0.533796  0  1.090864  0  0  -0.551678  0  1.070709  0  0  -0.328742  -0.511605  0  1.103391  0
Cl  Cl57  1  0.97479270  0.38629843  0.31180363  1  0  -0.596196  0  0.848449  0  0  -0.533739  0  1.090959  0  0  -0.551618  0  1.070799  0  0  -0.32868  -0.511533  0  1.103454  0
Cl  Cl58  1  0.20328946  0.95617724  0.50440832  1  0  -0.565283  0  0.974731  0  0  -0.497018  0  1.241559  0  0  -0.516293  0  1.219138  0  0  -0.300981  -0.482343  0  1.256877  0
Cl  Cl59  1  0.79668039  0.04379547  0.49561950  1  0  -0.565315  0  0.974705  0  0  -0.497016  0  1.241476  0  0  -0.516291  0  1.219055  0  0  -0.301011  -0.48235  0  1.256806  0
