# generated using pymatgen
data_Co2H18C8Cl4O3
_symmetry_space_group_name_H-M   'P 1'
_cell_length_a   8.41511677
_cell_length_b   10.60075729
_cell_length_c   11.73611820
_cell_angle_alpha   76.33825191
_cell_angle_beta   78.11729631
_cell_angle_gamma   68.60277143
_symmetry_Int_Tables_number   1
_chemical_formula_structural   Co2H18C8Cl4O3
_chemical_formula_sum   'Co4 H36 C16 Cl8 O6'
_cell_volume   938.86585056
_cell_formula_units_Z   2
loop_
 _symmetry_equiv_pos_site_id
 _symmetry_equiv_pos_as_xyz
  1  'x, y, z'
loop_
 _atom_site_type_symbol
 _atom_site_label
 _atom_site_symmetry_multiplicity
 _atom_site_fract_x
 _atom_site_fract_y
 _atom_site_fract_z
 _atom_site_occupancy
 _atom_site_hle17_ddec_charge
 _atom_site_hle17_ddec_spin_density
 _atom_site_hle17_ddec_sum_bond_order
 _atom_site_hle17_magmom
 _atom_site_hse06_10hf_ddec_charge
 _atom_site_hse06_10hf_ddec_spin_density
 _atom_site_hse06_10hf_ddec_sum_bond_order
 _atom_site_hse06_10hf_magmom
 _atom_site_hse06_ddec_charge
 _atom_site_hse06_ddec_spin_density
 _atom_site_hse06_ddec_sum_bond_order
 _atom_site_hse06_magmom
 _atom_site_pbe_cm5_charge
 _atom_site_pbe_ddec_charge
 _atom_site_pbe_ddec_spin_density
 _atom_site_pbe_ddec_sum_bond_order
 _atom_site_pbe_magmom
Co  Co0  1  0.00000007  0.00000120  0.00000071  1  0.801696  2.708936  2.159003  2.507  0.792542  2.727424  2.553556  2.584  0.897724  2.813532  2.46051  2.686  0.474967  0.706327  2.630286  2.624855  2.472
Co  Co1  1  0.90955174  0.21930938  0.76555481  1  0.769803  -2.709135  2.332662  -2.431  0.755661  -2.733749  2.830234  -2.515  0.857618  -2.81848  2.735856  -2.63  0.390979  0.673124  -2.643503  2.903708  -2.404
Co  Co2  1  0.09044716  0.78069182  0.23444513  1  0.769836  -2.709134  2.332617  -2.431  0.755705  -2.733743  2.830166  -2.515  0.857659  -2.818476  2.735808  -2.63  0.390987  0.673161  -2.643516  2.903655  -2.404
Co  Co3  1  0.00000209  0.49999794  0.49999922  1  1.004713  2.775382  1.954544  2.562  0.988477  2.784236  2.345763  2.634  1.069143  2.849705  2.27811  2.718  0.561001  0.909471  2.706108  2.414047  2.537
H  H4  1  0.32772073  0.34879153  0.44251001  1  0.428214  -0.000204  0.811391  0.0  0.415936  4.6e-05  0.859094  0.0  0.425565  -3.3e-05  0.848412  0.0  0.325065  0.40792  9.5e-05  0.868103  0.0
H  H5  1  0.67228049  0.65121277  0.55748551  1  0.428152  -0.000204  0.811218  0.0  0.415884  4.6e-05  0.85892  0.0  0.425515  -3.4e-05  0.848242  0.0  0.325042  0.407867  9.4e-05  0.867925  0.0
H  H6  1  0.30191676  0.49951052  0.36501217  1  0.403241  0.000269  0.910504  0.0  0.373469  0.000357  0.975382  0.001  0.384983  0.000299  0.958992  0.0  0.261182  0.364916  0.0004  0.987473  0.001
H  H7  1  0.69808453  0.50049069  0.63498314  1  0.403261  0.00027  0.910513  0.0  0.373493  0.000357  0.975382  0.001  0.385007  0.000299  0.958993  0.0  0.261204  0.364941  0.0004  0.987474  0.001
H  H8  1  0.38437746  0.94254398  0.03988941  1  0.0632  0.000245  0.959128  0.001  0.075447  0.000158  1.028108  0.001  0.075093  4e-05  1.028594  0.0  0.09568  0.075996  0.000352  1.02763  0.001
H  H9  1  0.61562575  0.05746135  0.96010558  1  0.063269  0.000245  0.959061  0.001  0.07549  0.000158  1.028038  0.001  0.075137  4e-05  1.028525  0.0  0.095696  0.076039  0.000352  1.027559  0.001
H  H10  1  0.39190251  0.02138355  0.88668898  1  0.061195  0.000706  0.921615  0.002  0.075785  0.000518  0.981234  0.001  0.076248  0.000236  0.980159  0.001  0.09645  0.075957  0.000928  0.981746  0.002
H  H11  1  0.60809748  0.97862075  0.11330501  1  0.061226  0.000705  0.921704  0.002  0.075833  0.000518  0.98126  0.001  0.076296  0.000236  0.980186  0.001  0.096469  0.076004  0.000928  0.981776  0.002
H  H12  1  0.58193785  0.72381238  0.99628657  1  0.081265  -5.3e-05  0.942953  0.0  0.099055  -8.1e-05  1.002047  0.0  0.100119  -5e-05  1.00218  0.0  0.09078  0.098284  -0.000106  1.002086  0.0
H  H13  1  0.41805818  0.27618984  0.00371187  1  0.0813  -5.2e-05  0.942928  0.0  0.09908  -8.1e-05  1.002011  0.0  0.100142  -5e-05  1.002146  0.0  0.090789  0.098308  -0.000106  1.002047  0.0
H  H14  1  0.66509195  0.83314188  0.87836256  1  0.087468  -0.000149  0.944854  0.0  0.105938  -0.000204  1.004075  0.0  0.106695  -0.000149  1.00467  0.0  0.093023  0.105293  -0.000257  1.003907  0.0
H  H15  1  0.33490900  0.16685727  0.12163409  1  0.087503  -0.000151  0.944874  0.0  0.105954  -0.000204  1.004094  0.0  0.10671  -0.000149  1.004691  0.0  0.093032  0.105309  -0.000257  1.003924  0.0
H  H16  1  0.55701953  0.64345633  0.82317881  1  0.080133  8e-06  0.966418  0.0  0.095327  -1.3e-05  1.033042  0.0  0.09673  2.1e-05  1.032631  0.0  0.086263  0.094283  -5.2e-05  1.033562  0.0
H  H17  1  0.44297451  0.35654486  0.17682016  1  0.080159  6e-06  0.966416  0.0  0.095363  -1.3e-05  1.033036  0.0  0.096765  2.1e-05  1.032625  0.0  0.086266  0.094319  -5.2e-05  1.033554  0.0
H  H18  1  0.48703113  0.81628800  0.74319132  1  0.069972  -6e-06  0.920917  0.0  0.090223  7e-06  0.972697  0.0  0.090695  1e-06  0.973283  0.0  0.091413  0.089885  1e-05  0.972422  0.0
H  H19  1  0.51296212  0.18371215  0.25680799  1  0.069951  -6e-06  0.920921  0.0  0.090243  7e-06  0.97267  0.0  0.090717  0.0  0.973253  0.0  0.09142  0.089902  1e-05  0.9724  0.0
H  H20  1  0.20875274  0.78983550  0.82533474  1  0.064894  2.5e-05  0.945358  0.001  0.078892  -3e-05  1.009783  0.001  0.078958  -9.6e-05  1.009296  0.0  0.096141  0.079033  9.9e-05  1.010102  0.001
H  H21  1  0.79124005  0.21016876  0.17466888  1  0.064925  2.4e-05  0.945313  0.001  0.078907  -3e-05  1.009749  0.001  0.078982  -9.6e-05  1.009253  0.0  0.096146  0.079046  9.9e-05  1.010071  0.001
H  H22  1  0.28994228  0.68240004  0.95840791  1  0.059945  0.000887  0.935129  0.002  0.070145  0.000698  1.004635  0.001  0.070378  0.000386  1.003942  0.001  0.093546  0.070498  0.001132  1.004802  0.002
H  H23  1  0.71005414  0.31760423  0.04159430  1  0.059951  0.000889  0.935168  0.002  0.070143  0.000697  1.004661  0.001  0.070374  0.000386  1.003974  0.001  0.093535  0.070496  0.001132  1.004828  0.002
H  H24  1  0.77304827  0.65351331  0.28633346  1  0.061288  0.000499  0.953361  0.001  0.070645  0.000412  1.022365  0.001  0.070527  0.000262  1.022054  0.0  0.090746  0.070989  0.000626  1.022537  0.001
H  H25  1  0.22695403  0.34648273  0.71367218  1  0.061439  0.000497  0.953329  0.001  0.070726  0.000411  1.022354  0.001  0.070609  0.000262  1.022043  0.0  0.090774  0.071069  0.000625  1.022529  0.001
H  H26  1  0.68354866  0.52045208  0.35625390  1  0.062852  0.000572  0.92208  0.001  0.074591  0.0004  0.982898  0.001  0.075398  0.00015  0.981014  0.0  0.094199  0.07444  0.000768  0.984088  0.002
H  H27  1  0.31645485  0.47954397  0.64374984  1  0.062912  0.000573  0.922082  0.001  0.074642  0.0004  0.982875  0.001  0.075451  0.00015  0.980989  0.0  0.094219  0.074491  0.000768  0.984067  0.002
H  H28  1  0.73196336  0.44007755  0.17874818  1  0.067894  -0.00027  0.965079  0.0  0.085645  -0.00027  1.027071  0.0  0.085843  -0.000205  1.028234  0.0  0.085506  0.085413  -0.000323  1.026423  0.0
H  H29  1  0.26803729  0.55991952  0.82125577  1  0.067864  -0.000269  0.965165  0.0  0.085566  -0.00027  1.027191  0.0  0.085759  -0.000205  1.028365  0.0  0.085506  0.085336  -0.000323  1.026538  0.0
H  H30  1  0.79073356  0.58557575  0.10348004  1  0.078837  0.000218  0.964279  0.0  0.095397  0.000205  1.027171  0.0  0.096671  0.000169  1.026824  0.0  0.087291  0.09444  0.000208  1.027598  0.0
H  H31  1  0.20926216  0.41442440  0.89652401  1  0.078913  0.000217  0.964165  0.0  0.095429  0.000205  1.027086  0.0  0.096709  0.000169  1.02673  0.0  0.087295  0.094445  0.000208  1.027539  0.0
H  H32  1  0.03023944  0.32342238  0.11159623  1  0.085916  -0.000414  0.960237  0.0  0.101901  -0.000466  1.025436  0.0  0.103044  -0.00035  1.025628  0.0  0.087344  0.100779  -0.000566  1.025968  0.0
H  H33  1  0.96976186  0.67657883  0.88840079  1  0.085937  -0.000413  0.960248  0.0  0.101929  -0.000466  1.025443  0.0  0.103071  -0.00035  1.025632  0.0  0.087339  0.100807  -0.000566  1.025975  0.0
H  H34  1  0.09036679  0.46684689  0.11667157  1  0.080362  0.000175  0.929313  0.0  0.099194  0.000226  0.98745  0.0  0.099747  0.000187  0.98846  0.0  0.09034  0.098733  0.000228  0.986936  0.0
H  H35  1  0.90963127  0.53315636  0.88333146  1  0.080389  0.000174  0.929341  0.0  0.09924  0.000226  0.987451  0.0  0.099791  0.000187  0.988465  0.0  0.09038  0.098781  0.000228  0.986938  0.0
H  H36  1  0.99180027  0.26469353  0.33038905  1  0.061221  0.000651  0.911561  0.001  0.075654  0.000474  0.970727  0.001  0.076551  0.000227  0.96892  0.0  0.095357  0.075257  0.000823  0.972008  0.002
H  H37  1  0.00820284  0.73530047  0.66961008  1  0.061212  0.000651  0.911515  0.001  0.075669  0.000474  0.970659  0.001  0.076545  0.000227  0.968873  0.0  0.095344  0.075269  0.000823  0.971943  0.002
H  H38  1  0.17784013  0.31710280  0.30152878  1  0.052977  -0.000235  0.947576  0.0  0.066841  -0.000241  1.016319  0.0  0.066145  -0.000232  1.016478  0.0  0.100488  0.067539  -0.000229  1.016116  0.0
H  H39  1  0.82216456  0.68289325  0.69847053  1  0.052923  -0.000234  0.947634  0.0  0.066795  -0.000241  1.016352  0.0  0.066095  -0.000232  1.016514  0.0  0.100476  0.067495  -0.000229  1.016147  0.0
C  C40  1  0.39713659  0.92532519  0.94956929  1  0.096576  0.000562  3.560734  0.0  0.035385  0.001006  3.830871  0.001  0.044204  0.000512  3.839342  0.001  -0.074567  0.028906  0.001607  3.824097  0.002
C  C41  1  0.60286222  0.07467910  0.05042830  1  0.09642  0.000562  3.560955  0.0  0.035341  0.001005  3.831043  0.001  0.044159  0.000512  3.839515  0.001  -0.074603  0.028865  0.001607  3.824269  0.002
C  C42  1  0.55112094  0.80314140  0.91726170  1  -0.145799  0.000586  3.667207  0.001  -0.18539  0.000264  3.925134  0.0  -0.187515  0.000187  3.938226  0.0  -0.169033  -0.183856  0.000356  3.91614  0.0
C  C43  1  0.44887715  0.19685877  0.08273517  1  -0.145933  0.000589  3.667308  0.001  -0.185476  0.000263  3.925165  0.0  -0.187605  0.000187  3.938262  0.0  -0.169085  -0.183941  0.000356  3.916168  0.0
C  C44  1  0.48434896  0.75119392  0.83144054  1  -0.143282  0.000733  3.686664  0.001  -0.180985  0.000472  3.944375  0.0  -0.182818  0.000336  3.957062  0.0  -0.168988  -0.179615  0.000585  3.935476  0.001
C  C45  1  0.51564422  0.24880933  0.16855812  1  -0.143228  0.000736  3.686565  0.001  -0.180981  0.000472  3.944255  0.0  -0.182812  0.000336  3.956941  0.0  -0.168939  -0.179609  0.000586  3.935356  0.001
C  C46  1  0.29963917  0.76923914  0.88766362  1  0.096435  0.000666  3.563821  0.0  0.036132  0.001093  3.833974  0.001  0.045359  0.000606  3.841679  0.001  -0.074703  0.029468  0.001677  3.827489  0.002
C  C47  1  0.70035887  0.23076412  0.11233601  1  0.096279  0.000667  3.563832  0.0  0.036088  0.001092  3.833983  0.001  0.045306  0.000606  3.841685  0.001  -0.074725  0.029429  0.001677  3.827493  0.002
C  C48  1  0.79030958  0.54434591  0.29483584  1  0.101392  0.000904  3.5278  0.001  0.04684  0.001375  3.791348  0.002  0.055965  0.000828  3.797825  0.001  -0.075011  0.040087  0.001957  3.785504  0.002
C  C49  1  0.20969357  0.45564807  0.70516840  1  0.10109  0.000906  3.527991  0.001  0.046654  0.001375  3.791419  0.002  0.055778  0.000828  3.797895  0.001  -0.075069  0.039898  0.001957  3.785573  0.002
C  C50  1  0.81797764  0.49755577  0.17611426  1  -0.143072  0.000916  3.659708  0.001  -0.182628  0.000622  3.913444  0.001  -0.184289  0.000484  3.925681  0.0  -0.172881  -0.181435  0.000812  3.905261  0.001
C  C51  1  0.18202007  0.50244542  0.82388842  1  -0.142997  0.000915  3.65976  0.001  -0.182486  0.000622  3.913445  0.001  -0.184149  0.000484  3.925681  0.0  -0.172872  -0.181272  0.000812  3.905268  0.001
C  C52  1  0.00767455  0.40510238  0.16153674  1  -0.147091  0.00091  3.665933  0.001  -0.18784  0.000517  3.925941  0.0  -0.190123  0.000348  3.939105  0.0  -0.17142  -0.186138  0.000677  3.917154  0.001
C  C53  1  0.99232435  0.59489881  0.83846319  1  -0.147236  0.000909  3.666056  0.001  -0.188035  0.000516  3.926081  0.0  -0.190312  0.000347  3.939233  0.0  -0.171461  -0.186331  0.000677  3.91729  0.001
C  C54  1  0.04256756  0.34944206  0.28865223  1  0.104922  0.00034  3.588125  0.0  0.044928  0.000695  3.861074  0.001  0.054117  0.000313  3.868026  0.001  -0.072881  0.038093  0.001134  3.855011  0.001
C  C55  1  0.95743264  0.65055604  0.71134902  1  0.105085  0.000338  3.588059  0.0  0.045092  0.000695  3.861009  0.001  0.054296  0.000312  3.867955  0.001  -0.072861  0.038255  0.001134  3.854948  0.001
Cl  Cl56  1  0.05572771  0.21325717  0.90949844  1  -0.446116  -0.023824  1.253528  -0.029  -0.442407  -0.020105  1.579444  -0.021  -0.485076  -0.014722  1.548017  -0.014  -0.209601  -0.409025  -0.024363  1.603545  -0.027
Cl  Cl57  1  0.94426913  0.78674607  0.09050307  1  -0.4461  -0.023826  1.253491  -0.029  -0.442424  -0.020108  1.579439  -0.021  -0.485093  -0.014724  1.548014  -0.014  -0.209601  -0.409039  -0.024365  1.603546  -0.027
Cl  Cl58  1  0.90808621  0.00060542  0.81014279  1  -0.471452  -0.02547  1.164358  -0.033  -0.469491  -0.020078  1.456373  -0.022  -0.511223  -0.014779  1.422748  -0.015  -0.240325  -0.436211  -0.024326  1.481763  -0.028
Cl  Cl59  1  0.09191434  0.99939475  0.18985797  1  -0.471436  -0.025471  1.164343  -0.033  -0.469475  -0.020079  1.456353  -0.022  -0.511208  -0.01478  1.422733  -0.015  -0.240316  -0.436191  -0.024325  1.481744  -0.028
Cl  Cl60  1  0.64606436  0.37596173  0.78611352  1  -0.507203  -0.070214  1.011621  -0.097  -0.48024  -0.055328  1.271583  -0.068  -0.514149  -0.042041  1.241854  -0.049  -0.259771  -0.45488  -0.065898  1.294191  -0.082
Cl  Cl61  1  0.35393527  0.62404052  0.21387842  1  -0.507221  -0.070214  1.011621  -0.097  -0.48025  -0.055328  1.271576  -0.068  -0.514161  -0.042041  1.241851  -0.049  -0.259771  -0.454892  -0.065897  1.294183  -0.082
Cl  Cl62  1  0.05305749  0.25618290  0.58331311  1  -0.503163  -0.021698  1.160014  -0.024  -0.505619  -0.018807  1.456664  -0.018  -0.542618  -0.013369  1.419056  -0.01  -0.256264  -0.473176  -0.023982  1.48667  -0.024
Cl  Cl63  1  0.94694721  0.74381316  0.41668705  1  -0.503199  -0.021699  1.160057  -0.024  -0.505668  -0.018808  1.456723  -0.018  -0.542665  -0.013369  1.419112  -0.01  -0.256286  -0.473223  -0.023981  1.48673  -0.024
O  O64  1  0.26535904  0.44621770  0.44212615  1  -0.807492  0.025737  2.007184  0.043  -0.772515  0.022779  2.200222  0.035  -0.798274  0.019298  2.16755  0.029  -0.559736  -0.751197  0.025694  2.225433  0.039
O  O65  1  0.73464864  0.55377115  0.55787253  1  -0.807468  0.025737  2.007076  0.043  -0.772504  0.022779  2.20014  0.035  -0.798264  0.019299  2.167465  0.029  -0.559748  -0.751189  0.025694  2.225363  0.039
O  O66  1  0.24630249  0.89136583  0.94219603  1  -0.349379  0.03831  2.422595  0.066  -0.268038  0.03193  2.683844  0.052  -0.306753  0.024961  2.69443  0.04  -0.23216  -0.236554  0.039131  2.673666  0.065
O  O67  1  0.75369270  0.10863844  0.05780466  1  -0.349156  0.038305  2.422611  0.066  -0.268095  0.031927  2.684028  0.052  -0.306808  0.024959  2.694614  0.04  -0.232182  -0.236613  0.039127  2.673849  0.065
O  O68  1  0.95007390  0.46725289  0.34728919  1  -0.359164  0.035596  2.374049  0.061  -0.284337  0.029292  2.642341  0.048  -0.317193  0.023039  2.647888  0.036  -0.232403  -0.255088  0.036115  2.635181  0.059
O  O69  1  0.04993046  0.53274109  0.65271402  1  -0.359222  0.035596  2.374062  0.061  -0.284433  0.029292  2.642337  0.048  -0.317288  0.023039  2.647876  0.036  -0.232417  -0.255185  0.036116  2.635178  0.059
