# generated using pymatgen
data_TbH17C15(NO3)3
_symmetry_space_group_name_H-M   'P 1'
_cell_length_a   12.92918131
_cell_length_b   12.92920826
_cell_length_c   14.73374426
_cell_angle_alpha   84.41941247
_cell_angle_beta   84.41932063
_cell_angle_gamma   62.10683545
_symmetry_Int_Tables_number   1
_chemical_formula_structural   TbH17C15(NO3)3
_chemical_formula_sum   'Tb4 H68 C60 N12 O36'
_cell_volume   2162.74028428
_cell_formula_units_Z   4
loop_
 _symmetry_equiv_pos_site_id
 _symmetry_equiv_pos_as_xyz
  1  'x, y, z'
loop_
 _atom_site_type_symbol
 _atom_site_label
 _atom_site_symmetry_multiplicity
 _atom_site_fract_x
 _atom_site_fract_y
 _atom_site_fract_z
 _atom_site_occupancy
 _atom_site_pbe_bader_charge
 _atom_site_pbe_bader_spin_density
 _atom_site_pbe_cm5_charge
 _atom_site_pbe_ddec_charge
 _atom_site_pbe_ddec_spin_density
 _atom_site_pbe_ddec_sum_bond_order
 _atom_site_pbe_magmom
Tb  Tb0  1  0.97987099  0.34502429  0.52678848  1  2.186042  0  1.520431  2.048506  0  2.199047  0
Tb  Tb1  1  0.65497661  0.02012969  0.97321082  1  2.186057  0  1.520462  2.048564  0  2.198958  0
Tb  Tb2  1  0.02012781  0.65497399  0.47321181  1  2.186017  0  1.520434  2.048547  0  2.198989  0
Tb  Tb3  1  0.34502568  0.97987086  0.02678758  1  2.185974  0  1.520446  2.048519  0  2.198999  0
H  H4  1  0.31158854  0.47668777  0.37313734  1  0.146861  0  0.119389  0.131583  0  0.99624  0
H  H5  1  0.52331307  0.68840835  0.12686113  1  0.146644  0  0.119382  0.131564  0  0.996269  0
H  H6  1  0.68840762  0.52331172  0.62686171  1  0.146852  0  0.119383  0.131557  0  0.996266  0
H  H7  1  0.47668747  0.31158912  0.87313635  1  0.146873  0  0.119398  0.131569  0  0.996275  0
H  H8  1  0.25994727  0.20302674  0.27343670  1  0.082166  0  0.10617  0.11121  0  1.019544  0
H  H9  1  0.79697096  0.74005102  0.22656248  1  0.082214  0  0.106162  0.11119  0  1.019626  0
H  H10  1  0.74005328  0.79697073  0.72656282  1  0.082208  0  0.106138  0.111147  0  1.019606  0
H  H11  1  0.20302783  0.25994725  0.77343577  1  0.082178  0  0.106173  0.111221  0  1.019542  0
H  H12  1  0.53527080  0.27753897  0.14964051  1  0.119887  0  0.111849  0.121618  0  1.023346  0
H  H13  1  0.72245608  0.46473206  0.35035906  1  0.11993  0  0.111873  0.121694  0  1.023311  0
H  H14  1  0.46472975  0.72245928  0.85035962  1  0.119881  0  0.111878  0.121696  0  1.023351  0
H  H15  1  0.27753920  0.53527017  0.64963983  1  0.119891  0  0.111862  0.121639  0  1.023344  0
H  H16  1  0.26888788  0.15711457  0.54538285  1  0.091854  0  0.124495  0.043421  0  1.008791  0
H  H17  1  0.84288807  0.73111615  0.95461495  1  0.091718  0  0.124501  0.04346  0  1.008709  0
H  H18  1  0.73111267  0.84288680  0.45461768  1  0.091872  0  0.124486  0.043441  0  1.008784  0
H  H19  1  0.15711422  0.26888675  0.04538528  1  0.091899  0  0.124491  0.043459  0  1.008789  0
H  H20  1  0.47000271  0.90557003  0.63370776  1  0.075842  0  0.103587  0.117781  0  0.998169  0
H  H21  1  0.09443113  0.52999519  0.86629513  1  0.07951  0  0.103576  0.117783  0  0.998069  0
H  H22  1  0.52999609  0.09443060  0.36629435  1  0.075838  0  0.103592  0.11777  0  0.998127  0
H  H23  1  0.90557031  0.47000267  0.13370834  1  0.075839  0  0.103598  0.117798  0  0.998149  0
H  H24  1  0.42844608  0.00795961  0.71982971  1  0.065868  0  0.109905  0.135879  0  0.986556  0
H  H25  1  0.99204131  0.57155383  0.78017250  1  0.065911  0  0.109919  0.135858  0  0.986558  0
H  H26  1  0.57155360  0.99204061  0.28017168  1  0.0659  0  0.109924  0.135883  0  0.98656  0
H  H27  1  0.00796013  0.42844560  0.21983219  1  0.065822  0  0.10992  0.13587  0  0.986541  0
H  H28  1  0.43470187  0.05551156  0.60217183  1  0.060289  0  0.108367  0.11638  0  0.99563  0
H  H29  1  0.94448757  0.56530249  0.89782949  1  0.060291  0  0.10835  0.116345  0  0.995653  0
H  H30  1  0.56529956  0.94448785  0.39782947  1  0.060274  0  0.108352  0.116343  0  0.99566  0
H  H31  1  0.05551386  0.43469926  0.10217296  1  0.060551  0  0.108347  0.116381  0  0.995628  0
H  H32  1  0.30614341  0.86772813  0.70730208  1  0.064758  0  0.11107  0.134297  0  0.9808  0
H  H33  1  0.13227560  0.69385341  0.79269872  1  0.064657  0  0.111009  0.134241  0  0.980881  0
H  H34  1  0.69385538  0.13227171  0.29269806  1  0.064742  0  0.111072  0.134307  0  0.980818  0
H  H35  1  0.86772758  0.30614364  0.20730264  1  0.064741  0  0.111029  0.134286  0  0.980814  0
H  H36  1  0.16084811  0.97471852  0.68246474  1  0.101437  0  0.114469  0.138295  0  0.988961  0
H  H37  1  0.02529030  0.83914821  0.81753512  1  0.10141  0  0.114436  0.138252  0  0.989029  0
H  H38  1  0.83915068  0.02528443  0.31753444  1  0.10145  0  0.114445  0.138272  0  0.988941  0
H  H39  1  0.97471727  0.16084838  0.18246792  1  0.101381  0  0.114466  0.138292  0  0.988951  0
H  H40  1  0.23087641  0.99028585  0.77645739  1  0.088034  0  0.106883  0.125078  0  1.011604  0
H  H41  1  0.00972190  0.76912099  0.72354379  1  0.088104  0  0.106876  0.125095  0  1.011547  0
H  H42  1  0.76912239  0.00971555  0.22354397  1  0.088058  0  0.106888  0.125087  0  1.011592  0
H  H43  1  0.99028216  0.23087877  0.27645928  1  0.08807  0  0.106874  0.125032  0  1.011642  0
H  H44  1  0.04855395  0.20383792  0.74073048  1  0.124045  0  0.129303  0.051273  0  1.005644  0
H  H45  1  0.79616834  0.95144224  0.75926990  1  0.124083  0  0.129295  0.051273  0  1.005643  0
H  H46  1  0.95144397  0.79615921  0.25926998  1  0.124037  0  0.129299  0.051259  0  1.005635  0
H  H47  1  0.20383396  0.04855754  0.24072926  1  0.124025  0  0.129316  0.051283  0  1.00562  0
H  H48  1  0.75701590  0.40516300  0.89122322  1  0.038464  0  0.106501  0.122431  0  0.970555  0
H  H49  1  0.59483873  0.24297986  0.60877595  1  0.038417  0  0.106464  0.122401  0  0.970546  0
H  H50  1  0.24298464  0.59484147  0.10877635  1  0.038542  0  0.106479  0.122381  0  0.97051  0
H  H51  1  0.40516182  0.75701995  0.39122404  1  0.038401  0  0.106465  0.122401  0  0.970558  0
H  H52  1  0.73567899  0.28205099  0.87398653  1  0.109127  0  0.10787  0.132887  0  1.017916  0
H  H53  1  0.71794976  0.26432033  0.62601166  1  0.109127  0  0.107883  0.132946  0  1.01788  0
H  H54  1  0.26431804  0.71795666  0.12601307  1  0.109052  0  0.107842  0.132892  0  1.01787  0
H  H55  1  0.28204903  0.73568185  0.37398895  1  0.109227  0  0.107899  0.132951  0  1.017859  0
H  H56  1  0.73704202  0.37870215  0.77878071  1  0.100386  0  0.108309  0.126323  0  1.037008  0
H  H57  1  0.62130012  0.26295509  0.72121828  1  0.100553  0  0.108326  0.126374  0  1.037007  0
H  H58  1  0.26295764  0.62130352  0.22121951  1  0.100381  0  0.108316  0.126343  0  1.036995  0
H  H59  1  0.37869956  0.73704357  0.27878257  1  0.100557  0  0.108334  0.126357  0  1.037039  0
H  H60  1  0.91570189  0.21012139  0.96583006  1  0.108506  0  0.11085  0.136455  0  1.010858  0
H  H61  1  0.78988453  0.08429245  0.53417000  1  0.108766  0  0.110893  0.13648  0  1.010875  0
H  H62  1  0.08429778  0.78987260  0.03416918  1  0.108541  0  0.110875  0.136502  0  1.010751  0
H  H63  1  0.21010812  0.91570710  0.46582733  1  0.108966  0  0.110883  0.13645  0  1.01093  0
H  H64  1  0.02563468  0.24961012  0.91926443  1  0.063986  0  0.100795  0.113869  0  1.007104  0
H  H65  1  0.75039518  0.97436120  0.58073747  1  0.064111  0  0.100795  0.113861  0  1.007168  0
H  H66  1  0.97435886  0.75039605  0.08073969  1  0.064232  0  0.100788  0.113851  0  1.007148  0
H  H67  1  0.24961504  0.02562951  0.41926790  1  0.064048  0  0.100783  0.113839  0  1.007153  0
H  H68  1  0.03317786  0.11448482  0.89332331  1  0.120344  0  0.111846  0.139492  0  1.000527  0
H  H69  1  0.88552043  0.96681814  0.60667849  1  0.120247  0  0.111791  0.139419  0  1.00059  0
H  H70  1  0.96682530  0.88551999  0.10667328  1  0.120284  0  0.111817  0.139445  0  1.000556  0
H  H71  1  0.11448622  0.03318972  0.39331751  1  0.120195  0  0.111815  0.139454  0  1.000526  0
C  C72  1  0.43129550  0.38480011  0.26082638  1  0.022771  0  0.001628  0.129098  0  4.136006  0
C  C73  1  0.61519777  0.56870259  0.23917417  1  0.022421  0  0.001666  0.12919  0  4.135887  0
C  C74  1  0.56870330  0.61519818  0.73917458  1  0.022302  0  0.001617  0.129066  0  4.136209  0
C  C75  1  0.38480366  0.43129448  0.76082531  1  0.02268  0  0.001642  0.129137  0  4.136172  0
C  C76  1  0.33747954  0.40751933  0.32613788  1  -0.061052  0  -0.064431  -0.125621  0  3.87128  0
C  C77  1  0.59247878  0.66252050  0.17386050  1  -0.060548  0  -0.064437  -0.125671  0  3.871214  0
C  C78  1  0.66251751  0.59247978  0.67386384  1  -0.060785  0  -0.064469  -0.125657  0  3.871257  0
C  C79  1  0.40751913  0.33747896  0.82613704  1  -0.060998  0  -0.064493  -0.125622  0  3.871317  0
C  C80  1  0.27681171  0.34146982  0.33064828  1  -0.027024  0  -0.017023  -0.040092  0  3.995882  0
C  C81  1  0.65852933  0.72318537  0.16935095  1  -0.026945  0  -0.017012  -0.040086  0  3.995868  0
C  C82  1  0.72318533  0.65852927  0.66935141  1  -0.026894  0  -0.01697  -0.039968  0  3.995736  0
C  C83  1  0.34147034  0.27681095  0.83064807  1  -0.027092  0  -0.016985  -0.040087  0  3.995947  0
C  C84  1  0.30812311  0.25358805  0.26967927  1  -0.013948  0  -0.078903  -0.113031  0  3.939702  0
C  C85  1  0.74641176  0.69187677  0.23031958  1  -0.014129  0  -0.078882  -0.112966  0  3.939701  0
C  C86  1  0.69187657  0.74640983  0.73032097  1  -0.013971  0  -0.078876  -0.112961  0  3.939707  0
C  C87  1  0.25358878  0.30812304  0.76967837  1  -0.013972  0  -0.07889  -0.113035  0  3.939705  0
C  C88  1  0.40160636  0.23027865  0.20486055  1  0.024274  0  -0.018502  -0.043281  0  3.998695  0
C  C89  1  0.76971707  0.59839374  0.29513993  1  0.02452  0  -0.018529  -0.043328  0  3.998847  0
C  C90  1  0.59839331  0.76971923  0.79513833  1  0.024336  0  -0.018515  -0.04331  0  3.99879  0
C  C91  1  0.23027997  0.40160691  0.70486030  1  0.024387  0  -0.018542  -0.043324  0  3.998772  0
C  C92  1  0.46316713  0.29530088  0.20064660  1  -0.025286  0  -0.066938  -0.123392  0  3.873117  0
C  C93  1  0.70469622  0.53683495  0.29935426  1  -0.025294  0  -0.066981  -0.123552  0  3.87324  0
C  C94  1  0.53683342  0.70469582  0.79935367  1  -0.025246  0  -0.06697  -0.123505  0  3.87322  0
C  C95  1  0.29530258  0.46316646  0.70064710  1  -0.025274  0  -0.066942  -0.123451  0  3.873175  0
C  C96  1  0.49355913  0.45113168  0.25429382  1  -0.031225  0  -0.033541  -0.087189  0  4.084771  0
C  C97  1  0.54886594  0.50644291  0.24570640  1  -0.242462  0  -0.033388  -0.086897  0  4.084818  0
C  C98  1  0.50644493  0.54886730  0.74570729  1  -0.242348  0  -0.033493  -0.087084  0  4.084444  0
C  C99  1  0.45113111  0.49355463  0.75429343  1  -0.031261  0  -0.033426  -0.087003  0  4.084461  0
C  C100  1  0.17782132  0.36543166  0.40069118  1  1.575742  0  0.226734  0.64109  0  4.167984  0
C  C101  1  0.63456922  0.82217424  0.09930811  1  1.575563  0  0.226747  0.641168  0  4.16785  0
C  C102  1  0.82217660  0.63456781  0.59930976  1  1.575669  0  0.226716  0.641057  0  4.16783  0
C  C103  1  0.36543395  0.17782046  0.90068938  1  1.575988  0  0.22676  0.64108  0  4.167872  0
C  C104  1  0.43922926  0.13398526  0.14074818  1  1.579862  0  0.230783  0.649482  0  4.16174  0
C  C105  1  0.86601105  0.56077421  0.35924983  1  1.579738  0  0.230817  0.649583  0  4.161754  0
C  C106  1  0.56077391  0.86601333  0.85924897  1  1.579777  0  0.230813  0.649553  0  4.161687  0
C  C107  1  0.13398686  0.43922603  0.64074900  1  1.579764  0  0.230864  0.649593  0  4.161566  0
C  C108  1  0.22274581  0.11450899  0.58774886  1  1.372062  0  0.179835  0.311235  0  4.13044  0
C  C109  1  0.88549285  0.77725808  0.91224971  1  1.371778  0  0.179826  0.311183  0  4.130523  0
C  C110  1  0.77725473  0.88549160  0.41225038  1  1.371847  0  0.17986  0.311252  0  4.130455  0
C  C111  1  0.11451120  0.22274089  0.08775072  1  1.37176  0  0.179798  0.311153  0  4.130734  0
C  C112  1  0.41297957  0.99715999  0.65015506  1  0.261584  0  -0.127422  -0.274982  0  3.910814  0
C  C113  1  0.00284062  0.58701998  0.84984647  1  0.257741  0  -0.127422  -0.274904  0  3.910642  0
C  C114  1  0.58702010  0.00284023  0.34984633  1  0.261554  0  -0.127424  -0.274923  0  3.910731  0
C  C115  1  0.99716082  0.41297866  0.15015693  1  0.261345  0  -0.127452  -0.274997  0  3.910816  0
C  C116  1  0.24382339  0.96141162  0.70659841  1  0.243701  0  -0.131802  -0.273265  0  3.856609  0
C  C117  1  0.03859412  0.75617363  0.79340229  1  0.24373  0  -0.131746  -0.273237  0  3.856697  0
C  C118  1  0.75617540  0.03858978  0.29340160  1  0.243755  0  -0.131802  -0.273309  0  3.856659  0
C  C119  1  0.96141082  0.24382339  0.20660027  1  0.243822  0  -0.131736  -0.273169  0  3.85658  0
C  C120  1  0.95280754  0.25974352  0.74376328  1  1.361006  0  0.185662  0.326574  0  4.086402  0
C  C121  1  0.74025840  0.04719490  0.75623981  1  1.360968  0  0.18564  0.326549  0  4.086593  0
C  C122  1  0.04719213  0.74025358  0.25623567  1  1.360952  0  0.185685  0.326641  0  4.086313  0
C  C123  1  0.25974565  0.95280486  0.24376055  1  1.36099  0  0.185677  0.326568  0  4.086497  0
C  C124  1  0.77521650  0.33728005  0.84378669  1  0.229352  0  -0.133513  -0.274931  0  3.870249  0
C  C125  1  0.66272128  0.22478250  0.65621352  1  0.229437  0  -0.133527  -0.27504  0  3.87023  0
C  C126  1  0.22478404  0.66272366  0.15621498  1  0.229375  0  -0.133412  -0.274847  0  3.870121  0
C  C127  1  0.33727926  0.77521809  0.34378640  1  0.229353  0  -0.133556  -0.275053  0  3.870197  0
C  C128  1  0.97336376  0.20664891  0.90540200  1  0.189592  0  -0.13254  -0.285165  0  3.872428  0
C  C129  1  0.79335525  0.02663299  0.59459931  1  0.189268  0  -0.13256  -0.285149  0  3.872592  0
C  C130  1  0.02663503  0.79335249  0.09459868  1  0.189344  0  -0.132549  -0.285157  0  3.872417  0
C  C131  1  0.20664705  0.97336679  0.40539984  1  0.189222  0  -0.132559  -0.285163  0  3.872557  0
N  N132  1  0.29053808  0.02651424  0.64435373  1  -1.19917  0  -0.276467  0.035308  0  3.705819  0
N  N133  1  0.97349060  0.70946091  0.85564559  1  -1.198785  0  -0.276404  0.035308  0  3.705782  0
N  N134  1  0.70946246  0.97348713  0.35564679  1  -1.199239  0  -0.276437  0.035341  0  3.705738  0
N  N135  1  0.02651346  0.29053807  0.14435619  1  -1.198964  0  -0.276439  0.035276  0  3.705864  0
N  N136  1  0.90131373  0.26658352  0.82726457  1  -1.193701  0  -0.273091  0.038597  0  3.691815  0
N  N137  1  0.73342244  0.09868250  0.67273807  1  -1.193666  0  -0.273017  0.038673  0  3.691792  0
N  N138  1  0.09868506  0.73341943  0.17273597  1  -1.193658  0  -0.273124  0.038546  0  3.691849  0
N  N139  1  0.26657723  0.90131771  0.32726128  1  -1.193643  0  -0.273024  0.038743  0  3.691707  0
N  N140  1  0.83197087  0.26463687  0.45313388  1  0.764198  0  0.080163  0.713761  0  4.443887  0
N  N141  1  0.73535897  0.16803391  0.04686322  1  0.764436  0  0.080149  0.713786  0  4.44404  0
N  N142  1  0.16802880  0.73536023  0.54686575  1  0.764258  0  0.080148  0.713766  0  4.444018  0
N  N143  1  0.26463629  0.83197532  0.95313369  1  0.764189  0  0.080054  0.713669  0  4.444077  0
O  O144  1  0.12811474  0.46482635  0.43549204  1  -1.214237  0  -0.41058  -0.708461  0  2.417578  0
O  O145  1  0.53517687  0.87188469  0.06450542  1  -1.214196  0  -0.410582  -0.708454  0  2.417567  0
O  O146  1  0.87188492  0.53517386  0.56450663  1  -1.214239  0  -0.410565  -0.708417  0  2.417423  0
O  O147  1  0.46482892  0.12811267  0.93549024  1  -1.214262  0  -0.41056  -0.708411  0  2.417508  0
O  O148  1  0.14768019  0.28524938  0.42308524  1  -1.18543  0  -0.385479  -0.64432  0  2.252278  0
O  O149  1  0.71475016  0.85231966  0.07691239  1  -1.185339  0  -0.385507  -0.644406  0  2.252199  0
O  O150  1  0.85231860  0.71474812  0.57691307  1  -1.18533  0  -0.38546  -0.644342  0  2.252302  0
O  O151  1  0.28525038  0.14768092  0.92308549  1  -1.185627  0  -0.385516  -0.644346  0  2.252226  0
O  O152  1  0.36261836  0.10414195  0.12348791  1  -1.199503  0  -0.395539  -0.678226  0  2.33076  0
O  O153  1  0.89585354  0.63738444  0.37651162  1  -1.19951  0  -0.395528  -0.67826  0  2.330783  0
O  O154  1  0.63738218  0.89585708  0.87651079  1  -1.199519  0  -0.395517  -0.678246  0  2.330785  0
O  O155  1  0.10414176  0.36261546  0.62348884  1  -1.199535  0  -0.395617  -0.678317  0  2.330666  0
O  O156  1  0.54526591  0.08886731  0.10971847  1  -1.195078  0  -0.397579  -0.673865  0  2.358165  0
O  O157  1  0.91113111  0.45473666  0.39028206  1  -1.194989  0  -0.397588  -0.673904  0  2.358216  0
O  O158  1  0.45473727  0.91113284  0.89028125  1  -1.194974  0  -0.397604  -0.673902  0  2.358171  0
O  O159  1  0.08886681  0.54526436  0.60971874  1  -1.194982  0  -0.397558  -0.673849  0  2.358157  0
O  O160  1  0.11554723  0.14821981  0.58083049  1  -1.165813  0  -0.361572  -0.546702  0  2.367287  0
O  O161  1  0.85178420  0.88445206  0.91916906  1  -1.165686  0  -0.361601  -0.546707  0  2.36748  0
O  O162  1  0.88445332  0.85177923  0.41917024  1  -1.165604  0  -0.361604  -0.546757  0  2.367341  0
O  O163  1  0.14821898  0.11554732  0.08083141  1  -1.165883  0  -0.361567  -0.546685  0  2.367519  0
O  O164  1  0.90022138  0.31095394  0.67252894  1  -1.179514  0  -0.374625  -0.563817  0  2.373595  0
O  O165  1  0.68905035  0.09978042  0.82747066  1  -1.179603  0  -0.374634  -0.563824  0  2.373784  0
O  O166  1  0.09977829  0.68904316  0.32747069  1  -1.179478  0  -0.374645  -0.563866  0  2.373482  0
O  O167  1  0.31095107  0.90021899  0.17252929  1  -1.179612  0  -0.374662  -0.563853  0  2.373713  0
O  O168  1  0.94488073  0.21007081  0.44348847  1  -0.542421  0  -0.245069  -0.527837  0  2.016322  0
O  O169  1  0.78993120  0.05512408  0.05650390  1  -0.542252  0  -0.245101  -0.527858  0  2.016319  0
O  O170  1  0.05511807  0.78992748  0.55651249  1  -0.542437  0  -0.245071  -0.527864  0  2.016296  0
O  O171  1  0.21006929  0.94488269  0.94348529  1  -0.542429  0  -0.245024  -0.527755  0  2.016353  0
O  O172  1  0.78801491  0.35244302  0.50402806  1  -0.554501  0  -0.23569  -0.518518  0  2.015645  0
O  O173  1  0.64754919  0.21199047  0.99597376  1  -0.554477  0  -0.235718  -0.518544  0  2.015662  0
O  O174  1  0.21198564  0.64755368  0.49597085  1  -0.554568  0  -0.235698  -0.518524  0  2.015667  0
O  O175  1  0.35244259  0.78801650  0.00402841  1  -0.554461  0  -0.235688  -0.518547  0  2.015711  0
O  O176  1  0.76999251  0.23392879  0.41580722  1  -0.478623  0  -0.156686  -0.389366  0  1.925633  0
O  O177  1  0.76606246  0.23001522  0.08419276  1  -0.479042  0  -0.15661  -0.389337  0  1.925679  0
O  O178  1  0.23000455  0.76606720  0.58419411  1  -0.478574  0  -0.15665  -0.389318  0  1.925675  0
O  O179  1  0.23392843  0.76999525  0.91580646  1  -0.478546  0  -0.15662  -0.389319  0  1.925691  0
