# generated using pymatgen
data_Cu3H28C24(N3O10)2
_symmetry_space_group_name_H-M   'P 1'
_cell_length_a   8.51474029
_cell_length_b   11.17000794
_cell_length_c   13.19190553
_cell_angle_alpha   115.03079242
_cell_angle_beta   93.23147865
_cell_angle_gamma   89.98560970
_symmetry_Int_Tables_number   1
_chemical_formula_structural   Cu3H28C24(N3O10)2
_chemical_formula_sum   'Cu3 H28 C24 N6 O20'
_cell_volume   1134.64575051
_cell_formula_units_Z   1
loop_
 _symmetry_equiv_pos_site_id
 _symmetry_equiv_pos_as_xyz
  1  'x, y, z'
loop_
 _atom_site_type_symbol
 _atom_site_label
 _atom_site_symmetry_multiplicity
 _atom_site_fract_x
 _atom_site_fract_y
 _atom_site_fract_z
 _atom_site_occupancy
 _atom_site_hle17_ddec_charge
 _atom_site_hle17_ddec_spin_density
 _atom_site_hle17_ddec_sum_bond_order
 _atom_site_hle17_magmom
 _atom_site_hse06_10hf_ddec_charge
 _atom_site_hse06_10hf_ddec_spin_density
 _atom_site_hse06_10hf_ddec_sum_bond_order
 _atom_site_hse06_10hf_magmom
 _atom_site_hse06_ddec_charge
 _atom_site_hse06_ddec_spin_density
 _atom_site_hse06_ddec_sum_bond_order
 _atom_site_hse06_magmom
 _atom_site_pbe_cm5_charge
 _atom_site_pbe_ddec_charge
 _atom_site_pbe_ddec_spin_density
 _atom_site_pbe_ddec_sum_bond_order
 _atom_site_pbe_magmom
Cu  Cu0  1  0.98261941  0.99456491  0.98867540  1  1.03418  0.706391  1.565216  0.521  1.040207  0.808747  1.935732  0.65  1.132131  0.876964  1.869662  0.735  0.708068  0.96075  0.745515  2.00952  0.588
Cu  Cu1  1  0.61762974  0.02888408  0.05811485  1  0.889322  -0.660291  1.912101  -0.458  0.884705  -0.803411  2.326394  -0.621  0.983661  -0.901651  2.240625  -0.721  0.686992  0.825105  -0.676839  2.383794  -0.512
Cu  Cu2  1  0.36534114  0.96678499  0.93372925  1  0.895974  0.6543  1.818057  0.482  0.886874  0.785783  2.223191  0.63  1.003241  0.87351  2.118276  0.731  0.675559  0.817833  0.693872  2.284597  0.546
H  H3  1  0.97491695  0.30395335  0.44778793  1  0.094322  -8.6e-05  0.912805  0.0  0.108626  -3.8e-05  0.970498  0.0  0.110211  -2.7e-05  0.968889  0.0  0.118465  0.107422  -5.1e-05  0.971781  0.0
H  H4  1  0.01996032  0.85131335  0.54294087  1  0.094848  -6.5e-05  0.911806  0.0  0.109721  -2.1e-05  0.969769  0.0  0.111309  -1.9e-05  0.968152  0.0  0.119251  0.108429  -2.2e-05  0.971115  0.0
H  H5  1  0.02031749  0.69136297  0.54322109  1  0.095057  -6.6e-05  0.912131  0.0  0.109503  -2.1e-05  0.970543  0.0  0.111108  -1.9e-05  0.968897  0.0  0.119021  0.108209  -1.1e-05  0.971908  0.0
H  H6  1  0.97495441  0.14394378  0.44782742  1  0.094067  -8.6e-05  0.912992  0.0  0.108678  -3.8e-05  0.970382  0.0  0.11019  -2.7e-05  0.968853  0.0  0.118437  0.107525  -3.5e-05  0.971581  0.0
H  H7  1  0.78771674  0.10311287  0.77344889  1  0.136108  0.00067  0.90868  0.001  0.147648  0.000535  0.965269  0.001  0.149174  0.000358  0.965622  0.0  0.1138  0.146591  0.000608  0.964887  0.001
H  H8  1  0.21186203  0.33117400  0.23555489  1  0.126502  -0.000457  0.918927  0.0  0.13909  -0.000351  0.976715  0.0  0.141101  -0.000243  0.976446  0.0  0.110771  0.13795  -0.000404  0.976577  0.0
H  H9  1  0.21182504  0.90391545  0.23563150  1  0.126533  -0.000452  0.918045  0.0  0.139014  -0.000348  0.975801  0.0  0.141019  -0.000241  0.975551  0.0  0.110881  0.137908  -0.000395  0.975632  0.0
H  H10  1  0.78749836  0.67092834  0.77287563  1  0.136195  0.000664  0.908405  0.001  0.14795  0.000529  0.964825  0.001  0.149487  0.000354  0.965166  0.0  0.113704  0.146917  0.0006  0.96445  0.001
H  H11  1  0.69235404  0.25444918  0.84585245  1  0.12257  0.000549  0.904436  0.001  0.135915  0.000436  0.958976  0.0  0.137743  0.000281  0.958834  0.0  0.111774  0.134492  0.000514  0.959084  0.0
H  H12  1  0.29629833  0.41081244  0.15880449  1  0.117076  -0.00046  0.907686  -0.001  0.131822  -0.000281  0.960859  0.0  0.134079  -0.000187  0.960213  0.0  0.110964  0.130507  -0.000361  0.960955  0.0
H  H13  1  0.29628974  0.74760340  0.15901425  1  0.117619  -0.000466  0.907767  -0.001  0.13253  -0.000286  0.960664  0.0  0.134787  -0.000191  0.960027  0.0  0.111351  0.131228  -0.000367  0.96077  0.0
H  H14  1  0.69338099  0.59168430  0.84549713  1  0.122055  0.000558  0.904872  0.001  0.135444  0.000441  0.959365  0.0  0.13726  0.000285  0.959241  0.0  0.111627  0.134055  0.000517  0.959471  0.0
H  H15  1  0.44732126  0.14883883  0.70763431  1  0.093112  0.00027  0.915722  0.0  0.105313  0.000214  0.975917  0.0  0.106984  0.00014  0.973944  0.0  0.117557  0.104133  0.000253  0.977387  0.0
H  H16  1  0.55346248  0.43862580  0.28633131  1  0.094808  -0.000207  0.91719  0.0  0.10688  -0.00017  0.977484  0.0  0.1089  -0.000114  0.975134  0.0  0.118591  0.105465  -0.000197  0.979125  0.0
H  H17  1  0.55355355  0.84748694  0.28641285  1  0.094167  -0.000205  0.917711  0.0  0.106481  -0.000168  0.977693  0.0  0.1085  -0.000113  0.975309  0.0  0.118183  0.105038  -0.0002  0.979364  0.0
H  H18  1  0.44744062  0.55886005  0.70771861  1  0.09345  0.000272  0.914716  0.0  0.105196  0.000214  0.975496  0.0  0.106836  0.00014  0.97349  0.0  0.117754  0.104056  0.000256  0.976948  0.0
H  H19  1  0.57705862  0.02480435  0.62412593  1  0.08975  9e-06  0.913435  0.0  0.104616  -1e-06  0.970313  0.0  0.105472  1e-06  0.969403  0.0  0.117952  0.103823  -6e-06  0.971309  0.0
H  H20  1  0.43180041  0.40062659  0.37536897  1  0.091035  1.3e-05  0.910428  0.0  0.106962  8e-06  0.965539  0.0  0.108064  3e-06  0.964633  0.0  0.119352  0.106021  1.7e-05  0.966578  0.0
H  H21  1  0.43177108  0.97442952  0.37538966  1  0.091165  1.2e-05  0.910287  0.0  0.10662  8e-06  0.965924  0.0  0.107716  3e-06  0.965011  0.0  0.119261  0.105678  1.2e-05  0.966969  0.0
H  H22  1  0.57659244  0.59920534  0.62386555  1  0.089273  9e-06  0.91388  0.0  0.10414  -3e-06  0.970511  0.0  0.104953  1e-06  0.969616  0.0  0.11775  0.103355  -1.4e-05  0.971511  0.0
H  H23  1  0.94298884  0.81474049  0.04970319  1  0.434936  -0.000468  0.7999  -0.001  0.423396  0.00043  0.844476  0.0  0.432825  0.000171  0.83498  0.0  0.3311  0.415796  0.000638  0.852363  0.0
H  H24  1  0.12306584  0.82878058  0.02135525  1  0.424301  -0.000352  0.878486  -0.002  0.394469  0.000371  0.940896  0.0  0.407439  8e-05  0.922182  -0.001  0.294105  0.385022  0.000585  0.954539  0.0
H  H25  1  0.12341571  0.19261152  0.02162128  1  0.423914  -0.000359  0.879013  -0.002  0.39425  0.000364  0.941126  -0.001  0.407202  7.4e-05  0.922454  -0.001  0.29399  0.384829  0.000575  0.954716  0.0
H  H26  1  0.94361593  0.23547591  0.05042288  1  0.43484  -0.000469  0.800112  -0.001  0.423326  0.000431  0.844593  0.0  0.432727  0.000172  0.835173  0.0  0.331321  0.415759  0.00064  0.852419  0.0
H  H27  1  0.74447238  0.23062518  0.30418841  1  0.122109  -0.000385  0.924492  0.0  0.135831  -9.9e-05  0.984468  0.0  0.138961  -5.9e-05  0.982833  0.0  0.106081  0.133298  -0.000135  0.986145  0.0
H  H28  1  0.24777669  0.92312500  0.68850473  1  0.122775  -0.000442  0.923035  0.0  0.137372  -0.000147  0.981624  0.0  0.14054  -0.000125  0.980088  0.0  0.107934  0.135027  -0.00014  0.983111  0.0
H  H29  1  0.24801167  0.76589457  0.68878439  1  0.123355  -0.000442  0.922679  0.0  0.137672  -0.000147  0.981535  0.0  0.140956  -0.000125  0.979828  0.0  0.108048  0.135281  -0.000139  0.983068  0.0
H  H30  1  0.74491650  0.07352985  0.30403286  1  0.121819  -0.000382  0.92493  0.0  0.135739  -9.6e-05  0.984592  0.0  0.138856  -5.7e-05  0.982946  0.0  0.10589  0.133218  -0.000125  0.986282  0.0
C  C31  1  0.93584070  0.11225837  0.22348664  1  0.695249  -0.001477  3.838122  -0.004  0.663481  0.000801  4.135529  -0.001  0.700188  0.000419  4.126987  -0.001  0.206745  0.638965  0.001066  4.138808  -0.001
C  C32  1  0.05518941  0.88341971  0.76642461  1  0.710421  -0.002978  3.806756  -0.006  0.679315  3.2e-05  4.100213  -0.002  0.716289  -0.000349  4.093328  -0.002  0.215862  0.654311  0.00031  4.10239  -0.002
C  C33  1  0.82182683  0.15821078  0.31619556  1  -0.289408  0.008167  3.658817  0.009  -0.330237  0.004372  3.91061  0.005  -0.338486  0.002903  3.918044  0.003  -0.166429  -0.325083  0.005232  3.906682  0.005
C  C34  1  0.17126729  0.83799084  0.67573767  1  -0.292346  0.007596  3.664393  0.008  -0.333397  0.004235  3.91627  0.005  -0.341936  0.002738  3.923765  0.003  -0.163977  -0.328208  0.005005  3.912003  0.005
C  C35  1  0.90209912  0.21687295  0.43364375  1  0.053556  0.001795  3.627293  0.002  -0.012245  0.001154  3.892004  0.001  -0.005865  0.000757  3.901555  0.001  -0.055542  -0.016463  0.001407  3.885513  0.002
C  C36  1  0.09267219  0.77886306  0.55794607  1  0.053546  0.00208  3.624777  0.002  -0.014985  0.001251  3.893567  0.002  -0.008682  0.000798  3.903114  0.001  -0.054946  -0.019135  0.001602  3.887215  0.002
C  C37  1  0.59893620  0.09299504  0.86770819  1  0.713588  -0.00206  3.77557  -0.003  0.684396  -0.000909  4.072202  -0.001  0.725909  -0.000981  4.067798  -0.001  0.228178  0.656024  -0.000793  4.075166  -0.001
C  C38  1  0.39213560  0.22623936  0.13133966  1  0.726852  0.002371  3.767019  0.003  0.689892  0.000948  4.061889  0.002  0.730124  0.001082  4.055535  0.002  0.231286  0.662241  0.000703  4.065656  0.002
C  C39  1  0.39194082  0.90459888  0.13126715  1  0.725028  0.002338  3.76974  0.003  0.689173  0.000926  4.06318  0.002  0.729397  0.001058  4.056888  0.002  0.231581  0.661542  0.000683  4.066913  0.001
C  C40  1  0.59880211  0.77469798  0.86754013  1  0.715383  -0.002074  3.773705  -0.003  0.685986  -0.000927  4.070098  -0.001  0.727526  -0.000995  4.065602  -0.001  0.228612  0.657641  -0.000812  4.073098  -0.001
C  C41  1  0.67206999  0.14800932  0.79375604  1  -0.271703  0.003895  3.621674  0.005  -0.312683  0.00201  3.872588  0.002  -0.322411  0.001129  3.881514  0.001  -0.151957  -0.304543  0.002512  3.8653  0.003
C  C42  1  0.32341730  0.35506334  0.20907750  1  -0.283018  -0.001434  3.644212  -0.001  -0.321599  -0.001036  3.893123  -0.001  -0.330401  -0.000957  3.900676  -0.001  -0.153991  -0.31445  -0.00083  3.88659  -0.001
C  C43  1  0.32342329  0.85359571  0.20914994  1  -0.284164  -0.001439  3.64694  -0.001  -0.322787  -0.001046  3.895146  -0.001  -0.33162  -0.000961  3.902746  -0.001  -0.154421  -0.315707  -0.000834  3.888694  -0.001
C  C44  1  0.67222813  0.64597774  0.79342652  1  -0.271489  0.003861  3.621481  0.004  -0.312732  0.001988  3.872317  0.002  -0.322493  0.001113  3.881213  0.001  -0.151494  -0.304706  0.002506  3.86519  0.003
C  C45  1  0.56998562  0.12631372  0.68800600  1  0.055787  -0.00199  3.621041  -0.002  -0.011728  -0.001024  3.891326  -0.002  -0.00405  -0.000681  3.899545  -0.001  -0.055951  -0.016899  -0.001214  3.885532  -0.002
C  C46  1  0.43313599  0.43771985  0.31083368  1  0.056355  0.001026  3.625393  0.001  -0.010266  0.0006  3.893174  0.001  -0.002932  0.000422  3.901261  0.001  -0.055433  -0.015455  0.000603  3.887778  0.001
C  C47  1  0.43322014  0.87281890  0.31093809  1  0.056974  0.001023  3.625514  0.001  -0.009286  0.000598  3.892761  0.001  -0.001898  0.00042  3.90078  0.001  -0.05526  -0.014458  0.00061  3.887401  0.001
C  C48  1  0.57000642  0.56170999  0.68788152  1  0.056343  -0.002002  3.621462  -0.003  -0.010635  -0.001025  3.891197  -0.002  -0.002797  -0.000681  3.899214  -0.001  -0.056182  -0.015849  -0.0012  3.885532  -0.002
C  C49  1  0.57366771  0.34377802  0.68748784  1  0.641938  0.000123  3.867555  0.0  0.567632  3.5e-05  4.181514  0.0  0.602703  3.3e-05  4.178515  0.0  0.339589  0.544108  -3.4e-05  4.182627  0.0
C  C50  1  0.43453285  0.65632713  0.31302890  1  0.641576  -0.000162  3.871079  0.0  0.568644  -3.2e-05  4.18354  0.0  0.603689  -2.2e-05  4.180444  0.0  0.339417  0.54504  8.5e-05  4.184944  0.0
C  C51  1  0.72861608  0.16628942  0.55374813  1  0.648977  -3.3e-05  3.854216  0.0  0.573996  -5.8e-05  4.170176  0.0  0.609218  -3.2e-05  4.167182  0.0  0.342329  0.550178  1.1e-05  4.171553  0.0
C  C52  1  0.27058575  0.61007162  0.44134735  1  0.644956  -1.8e-05  3.858193  0.0  0.570902  0.000129  4.172627  0.0  0.60604  6.2e-05  4.169472  0.0  0.341646  0.547222  0.000126  4.174035  0.0
C  C53  1  0.27074095  0.83103868  0.44147088  1  0.643852  -1.3e-05  3.862153  0.0  0.569678  0.000129  4.176752  0.0  0.60482  6.2e-05  4.17359  0.0  0.34054  0.545943  0.00014  4.178207  0.0
C  C54  1  0.72862769  0.38750122  0.55371324  1  0.646775  -2.4e-05  3.856382  0.0  0.572992  -5.9e-05  4.170764  0.0  0.608182  -3.2e-05  4.167827  0.0  0.341712  0.549241  -9e-06  4.172063  0.0
N  N55  1  0.78416940  0.25949414  0.51893585  1  -0.340907  0.001532  3.357194  0.002  -0.258923  0.000581  3.605681  0.001  -0.284608  0.000297  3.620004  0.0  -0.250027  -0.241324  0.000763  3.595196  0.001
N  N56  1  0.21349706  0.73726218  0.47479592  1  -0.338562  0.00146  3.366579  0.002  -0.256155  0.000555  3.615512  0.001  -0.281827  0.000262  3.630035  0.0  -0.249394  -0.238612  0.000944  3.604944  0.001
N  N57  1  0.62360135  0.21391197  0.63877786  1  -0.340462  -0.001301  3.369942  -0.002  -0.260323  -0.000615  3.621833  -0.001  -0.286227  -0.000359  3.636524  0.0  -0.25211  -0.242834  -0.00065  3.611194  -0.001
N  N58  1  0.38251544  0.57502521  0.36084521  1  -0.340976  0.001423  3.377259  0.002  -0.261567  0.000624  3.627899  0.001  -0.287083  0.00031  3.642185  0.0  -0.254197  -0.244319  0.000663  3.617577  0.001
N  N59  1  0.38270864  0.78554145  0.36099158  1  -0.340418  0.001421  3.376101  0.002  -0.261226  0.000623  3.626877  0.001  -0.286752  0.000307  3.641136  0.0  -0.253846  -0.243958  0.000662  3.616569  0.001
N  N60  1  0.62367095  0.42491205  0.63877264  1  -0.340986  -0.001297  3.371668  -0.002  -0.261161  -0.000611  3.622635  -0.001  -0.287113  -0.000356  3.637339  0.0  -0.251643  -0.243674  -0.000631  3.611987  -0.001
O  O61  1  0.68293051  0.10368056  0.95448401  1  -0.601214  -0.07981  2.10786  -0.101  -0.596179  -0.054621  2.400967  -0.076  -0.644435  -0.044151  2.393958  -0.065  -0.318649  -0.56176  -0.056773  2.404388  -0.076
O  O62  1  0.30566444  0.15261582  0.04414698  1  -0.640628  0.045987  2.149403  0.063  -0.60594  0.036455  2.421708  0.054  -0.650572  0.029645  2.408749  0.046  -0.310537  -0.575693  0.03706  2.429223  0.052
O  O63  1  0.30558703  0.89067228  0.04389695  1  -0.63985  0.045996  2.146908  0.063  -0.605403  0.036473  2.41842  0.054  -0.649994  0.029656  2.40544  0.046  -0.310855  -0.575211  0.037055  2.425983  0.052
O  O64  1  0.68254036  0.85046992  0.95454944  1  -0.601345  -0.079581  2.108438  -0.1  -0.596159  -0.054541  2.401436  -0.076  -0.644374  -0.044098  2.39435  -0.065  -0.31853  -0.561779  -0.056709  2.404864  -0.076
O  O65  1  0.46054337  0.04243875  0.83951043  1  -0.550021  0.094512  2.050313  0.127  -0.527208  0.063398  2.314757  0.093  -0.575774  0.049398  2.307205  0.078  -0.299535  -0.498681  0.06491  2.321289  0.092
O  O66  1  0.52953848  0.19991704  0.15624362  1  -0.552801  -0.073287  2.070586  -0.094  -0.522111  -0.052068  2.333667  -0.074  -0.564649  -0.042685  2.325758  -0.064  -0.298105  -0.49332  -0.053186  2.338869  -0.073
O  O67  1  0.52915177  0.95616908  0.15626756  1  -0.551402  -0.073244  2.070659  -0.094  -0.521774  -0.05204  2.334051  -0.074  -0.564325  -0.042671  2.32613  -0.064  -0.297839  -0.492957  -0.053145  2.33923  -0.073
O  O68  1  0.46047994  0.79714482  0.83920098  1  -0.552115  0.094271  2.05126  0.127  -0.528572  0.063234  2.31535  0.093  -0.577117  0.049274  2.307709  0.077  -0.300199  -0.500023  0.064815  2.321891  0.092
O  O69  1  0.86372675  0.06102031  0.12209786  1  -0.707364  0.07991  2.194408  0.107  -0.682322  0.048096  2.514649  0.07  -0.731129  0.036748  2.498896  0.056  -0.368904  -0.647925  0.054098  2.525507  0.076
O  O70  1  0.12396527  0.93461303  0.86872088  1  -0.655147  0.101968  2.147088  0.139  -0.632772  0.057619  2.462966  0.086  -0.687319  0.0431  2.448871  0.068  -0.360506  -0.593804  0.066687  2.4707  0.096
O  O71  1  0.08066123  0.12157150  0.24058861  1  -0.589875  9.4e-05  1.872668  0.001  -0.552867  -0.000322  2.077879  0.0  -0.573551  -0.000787  2.067868  -0.001  -0.319823  -0.53807  0.000225  2.083485  0.001
O  O72  1  0.91073600  0.87429545  0.74809094  1  -0.583802  0.000933  1.857997  0.002  -0.546185  -0.0002  2.058815  0.0  -0.567682  -0.000852  2.04936  -0.001  -0.310981  -0.53049  0.000784  2.064266  0.002
O  O73  1  0.00946163  0.81554368  0.99223999  1  -0.77433  0.06101  1.913338  0.08  -0.737603  0.050516  2.101444  0.07  -0.766718  0.040085  2.068448  0.059  -0.561999  -0.717677  0.054888  2.127745  0.072
O  O74  1  0.00969102  0.17723330  0.99265216  1  -0.773668  0.061193  1.913553  0.08  -0.736986  0.050641  2.101608  0.07  -0.766097  0.040181  2.068674  0.059  -0.561948  -0.717096  0.055027  2.127863  0.072
O  O75  1  0.49003611  0.38387675  0.76766982  1  -0.522314  0.000162  1.860381  0.0  -0.491694  4.5e-05  2.063812  0.0  -0.509545  -4e-06  2.055985  0.0  -0.28963  -0.479164  -0.000217  2.068716  0.0
O  O76  1  0.52036386  0.61684236  0.23398567  1  -0.526479  5.2e-05  1.855813  0.0  -0.496444  4.2e-05  2.056974  0.0  -0.514247  1.5e-05  2.049044  0.0  -0.294952  -0.484206  0.000358  2.06214  0.0
O  O77  1  0.77001290  0.05095434  0.51296515  1  -0.522296  -0.000334  1.862548  0.0  -0.493263  -0.0002  2.070966  0.0  -0.511748  -0.000122  2.062861  0.0  -0.287645  -0.480527  -7.2e-05  2.076327  0.0
O  O78  1  0.22467057  0.53323909  0.47846024  1  -0.517529  0.000566  1.862689  0.001  -0.487515  0.00027  2.069383  0.0  -0.505459  0.000145  2.061272  0.0  -0.284538  -0.47512  0.000237  2.074699  0.0
O  O79  1  0.22493213  0.94500789  0.47864594  1  -0.516681  0.000557  1.865007  0.001  -0.486653  0.000268  2.071752  0.0  -0.504614  0.000144  2.063649  0.0  -0.283667  -0.474256  0.00024  2.07708  0.0
O  O80  1  0.76993985  0.46203907  0.51287947  1  -0.521091  -0.000339  1.863222  0.0  -0.492495  -0.000199  2.071147  0.0  -0.510985  -0.000123  2.063103  0.0  -0.287394  -0.479741  -6.7e-05  2.076446  0.0
