# generated using pymatgen
data_ZnH6C7N4O5
_symmetry_space_group_name_H-M   'P 1'
_cell_length_a   7.03279721
_cell_length_b   8.28601933
_cell_length_c   15.99633722
_cell_angle_alpha   90.00001006
_cell_angle_beta   89.99993467
_cell_angle_gamma   105.78150412
_symmetry_Int_Tables_number   1
_chemical_formula_structural   ZnH6C7N4O5
_chemical_formula_sum   'Zn4 H24 C28 N16 O20'
_cell_volume   897.03153054
_cell_formula_units_Z   4
loop_
 _symmetry_equiv_pos_site_id
 _symmetry_equiv_pos_as_xyz
  1  'x, y, z'
loop_
 _atom_site_type_symbol
 _atom_site_label
 _atom_site_symmetry_multiplicity
 _atom_site_fract_x
 _atom_site_fract_y
 _atom_site_fract_z
 _atom_site_occupancy
 _atom_site_hle17_bader_spin_density
 _atom_site_hle17_ddec_charge
 _atom_site_hle17_ddec_spin_density
 _atom_site_hle17_ddec_sum_bond_order
 _atom_site_hle17_magmom
 _atom_site_hse06_10hf_bader_spin_density
 _atom_site_hse06_10hf_ddec_charge
 _atom_site_hse06_10hf_ddec_spin_density
 _atom_site_hse06_10hf_ddec_sum_bond_order
 _atom_site_hse06_10hf_magmom
 _atom_site_hse06_bader_spin_density
 _atom_site_hse06_ddec_charge
 _atom_site_hse06_ddec_spin_density
 _atom_site_hse06_ddec_sum_bond_order
 _atom_site_hse06_magmom
 _atom_site_pbe_bader_spin_density
 _atom_site_pbe_cm5_charge
 _atom_site_pbe_ddec_charge
 _atom_site_pbe_ddec_spin_density
 _atom_site_pbe_ddec_sum_bond_order
 _atom_site_pbe_magmom
Zn  Zn0  1  0.32928169  0.20174445  0.91915347  1  0  1.08582  0  1.782436  0  0  0.923223  0  2.228924  0  0  0.968832  0  2.176283  0  0  0.666009  0.891181  0  2.264984  0
Zn  Zn1  1  0.17071898  0.79825462  0.41915282  1  0  1.085837  0  1.782343  0  0  0.92323  0  2.22881  0  0  0.968845  0  2.176169  0  0  0.666049  0.891195  0  2.264871  0
Zn  Zn2  1  0.67071540  0.79825226  0.08084588  1  0  1.08587  0  1.782265  0  0  0.923273  0  2.228746  0  0  0.968887  0  2.176103  0  0  0.666044  0.891236  0  2.264807  0
Zn  Zn3  1  0.82928359  0.20174584  0.58084652  1  0  1.085867  0  1.782426  0  0  0.923276  0  2.228909  0  0  0.968887  0  2.176269  0  0  0.666028  0.891241  0  2.264972  0
H  H4  1  0.35586990  0.91447823  0.84988826  1  0  0.385667  0  0.93754  0  0  0.342174  0  1.021416  0  0  0.353947  0  1.005024  0  0  0.277958  0.333952  0  1.032827  0
H  H5  1  0.14413320  0.08552337  0.34988882  1  0  0.385646  0  0.937556  0  0  0.342142  0  1.021453  0  0  0.353918  0  1.005059  0  0  0.27794  0.333922  0  1.032862  0
H  H6  1  0.64413167  0.08552349  0.15011108  1  0  0.385658  0  0.937543  0  0  0.342162  0  1.021425  0  0  0.353936  0  1.005032  0  0  0.277938  0.333941  0  1.032835  0
H  H7  1  0.85586755  0.91447584  0.65011053  1  0  0.385672  0  0.937518  0  0  0.342176  0  1.021405  0  0  0.35395  0  1.005013  0  0  0.277952  0.333954  0  1.032817  0
H  H8  1  0.55296499  0.97859648  0.90883921  1  0  0.433633  0  0.858916  0  0  0.403624  0  0.920093  0  0  0.414709  0  0.903889  0  0  0.29534  0.395735  0  0.931603  0
H  H9  1  0.94704043  0.02140652  0.40883961  1  0  0.433663  0  0.858873  0  0  0.403637  0  0.920081  0  0  0.414723  0  0.903876  0  0  0.295366  0.395748  0  0.931592  0
H  H10  1  0.44703799  0.02140523  0.09115951  1  0  0.433638  0  0.858909  0  0  0.403614  0  0.92011  0  0  0.4147  0  0.903904  0  0  0.295349  0.395723  0  0.931625  0
H  H11  1  0.05296357  0.97859394  0.59115974  1  0  0.433654  0  0.858879  0  0  0.403641  0  0.920065  0  0  0.414726  0  0.903861  0  0  0.295364  0.395752  0  0.931576  0
H  H12  1  0.77584772  0.84305906  0.81607729  1  0  0.072705  0  0.94824  0  0  0.076482  0  1.021058  0  0  0.079048  0  1.017769  0  0  0.122608  0.074531  0  1.023494  0
H  H13  1  0.72415146  0.15694147  0.31607906  1  0  0.072765  0  0.948174  0  0  0.07654  0  1.020985  0  0  0.079109  0  1.017692  0  0  0.122615  0.074589  0  1.023422  0
H  H14  1  0.22415344  0.15694140  0.18392081  1  0  0.072761  0  0.94817  0  0  0.076539  0  1.020976  0  0  0.079108  0  1.017684  0  0  0.122622  0.074588  0  1.023414  0
H  H15  1  0.27585234  0.84306275  0.68392279  1  0  0.0727  0  0.948189  0  0  0.076526  0  1.020945  0  0  0.079094  0  1.017653  0  0  0.122593  0.074574  0  1.023383  0
H  H16  1  0.58730623  0.65026148  0.58006455  1  0  0.115329  0  0.911536  0  0  0.122285  0  0.972969  0  0  0.125908  0  0.968661  0  0  0.127395  0.119521  0  0.976287  0
H  H17  1  0.91268851  0.34973663  0.08006562  1  0  0.115315  0  0.911523  0  0  0.122261  0  0.972976  0  0  0.125883  0  0.968667  0  0  0.127383  0.119496  0  0.976295  0
H  H18  1  0.41269452  0.34973773  0.41993480  1  0  0.115315  0  0.911552  0  0  0.122269  0  0.973004  0  0  0.125891  0  0.968696  0  0  0.127397  0.119504  0  0.976323  0
H  H19  1  0.08731306  0.65026509  0.91993498  1  0  0.115282  0  0.911518  0  0  0.122243  0  0.972965  0  0  0.125865  0  0.968655  0  0  0.127387  0.119478  0  0.976284  0
H  H20  1  0.27834762  0.31964628  0.60239285  1  0  0.331412  0  0.893321  0  0  0.311346  0  0.951379  0  0  0.320406  0  0.944343  0  0  0.322439  0.30492  0  0.956414  0
H  H21  1  0.22165066  0.68035164  0.10239279  1  0  0.3314  0  0.89331  0  0  0.311335  0  0.951377  0  0  0.320395  0  0.944341  0  0  0.322441  0.304908  0  0.956413  0
H  H22  1  0.72165252  0.68035544  0.39760775  1  0  0.331429  0  0.893264  0  0  0.311358  0  0.951328  0  0  0.320418  0  0.944292  0  0  0.322447  0.304932  0  0.956362  0
H  H23  1  0.77834949  0.31965008  0.89760718  1  0  0.331457  0  0.893252  0  0  0.311393  0  0.951311  0  0  0.320454  0  0.944275  0  0  0.322441  0.304966  0  0.956349  0
H  H24  1  0.17644613  0.12497429  0.72694825  1  0  0.104772  0  0.93824  0  0  0.114426  0  0.998247  0  0  0.117162  0  0.994268  0  0  0.143087  0.112284  0  1.001238  0
H  H25  1  0.32355223  0.87502485  0.22694691  1  0  0.104806  0  0.938202  0  0  0.114432  0  0.998246  0  0  0.117169  0  0.994264  0  0  0.1431  0.112291  0  1.001236  0
H  H26  1  0.82355361  0.87502618  0.27305297  1  0  0.104809  0  0.938191  0  0  0.114436  0  0.998231  0  0  0.117173  0  0.99425  0  0  0.143101  0.112294  0  1.001222  0
H  H27  1  0.67644731  0.12497938  0.77305181  1  0  0.104821  0  0.938195  0  0  0.114426  0  0.99827  0  0  0.117163  0  0.994289  0  0  0.143084  0.112284  0  1.00126  0
C  C28  1  0.39833355  0.52030153  0.00081949  1  0  0.544643  0  3.917254  0  0  0.489384  0  4.233618  0  0  0.520329  0  4.22382  0  0  0.205906  0.468342  0  4.239743  0
C  C29  1  0.10166460  0.47969517  0.50081840  1  0  0.544561  0  3.917289  0  0  0.489353  0  4.233577  0  0  0.520301  0  4.223775  0  0  0.205868  0.46831  0  4.239707  0
C  C30  1  0.60166232  0.47969142  0.99918298  1  0  0.544465  0  3.917289  0  0  0.489283  0  4.233581  0  0  0.52023  0  4.22378  0  0  0.205808  0.468238  0  4.23971  0
C  C31  1  0.89833636  0.52030906  0.49918408  1  0  0.544567  0  3.917383  0  0  0.489361  0  4.233646  0  0  0.520307  0  4.223847  0  0  0.205853  0.468318  0  4.239773  0
C  C32  1  0.06163152  0.99669613  0.04018110  1  0  0.535264  0  3.903099  0  0  0.49144  0  4.192736  0  0  0.52089  0  4.186058  0  0  0.206676  0.471456  0  4.196673  0
C  C33  1  0.43835150  0.00329810  0.54017855  1  0  0.535078  0  3.903311  0  0  0.491252  0  4.192982  0  0  0.520707  0  4.186304  0  0  0.20657  0.471278  0  4.1969  0
C  C34  1  0.93835623  0.00329810  0.95981887  1  0  0.535207  0  3.903172  0  0  0.49133  0  4.192895  0  0  0.520787  0  4.186214  0  0  0.206616  0.471329  0  4.196849  0
C  C35  1  0.56163038  0.99669993  0.45981767  1  0  0.535409  0  3.902994  0  0  0.491556  0  4.192657  0  0  0.521006  0  4.185977  0  0  0.206737  0.471558  0  4.196609  0
C  C36  1  0.68589602  0.73792260  0.78009219  1  0  0.262078  0  3.722495  0  0  0.21015  0  4.009526  0  0  0.222975  0  4.023068  0  0  0.160972  0.201813  0  4.000299  0
C  C37  1  0.81410366  0.26207920  0.28009330  1  0  0.261959  0  3.722559  0  0  0.210068  0  4.009536  0  0  0.222893  0  4.023078  0  0  0.160953  0.201731  0  4.00031  0
C  C38  1  0.31410372  0.26207787  0.21990778  1  0  0.261992  0  3.722619  0  0  0.210081  0  4.00961  0  0  0.222906  0  4.023152  0  0  0.160978  0.201744  0  4.000384  0
C  C39  1  0.18590197  0.73792626  0.71990854  1  0  0.262003  0  3.72243  0  0  0.210031  0  4.009454  0  0  0.222854  0  4.022998  0  0  0.160978  0.201693  0  4.000227  0
C  C40  1  0.47917201  0.47912672  0.77551744  1  0  0.307794  0  3.834215  0  0  0.283143  0  4.100022  0  0  0.29567  0  4.118907  0  0  0.219528  0.275002  0  4.087108  0
C  C41  1  0.02082703  0.52087491  0.27551747  1  0  0.307836  0  3.834184  0  0  0.283174  0  4.100027  0  0  0.295701  0  4.118914  0  0  0.219547  0.275033  0  4.087114  0
C  C42  1  0.52082814  0.52087500  0.22448316  1  0  0.307786  0  3.834133  0  0  0.283139  0  4.099982  0  0  0.295665  0  4.11887  0  0  0.21954  0.274998  0  4.087069  0
C  C43  1  0.97917636  0.47912805  0.72448313  1  0  0.307622  0  3.834532  0  0  0.283053  0  4.100177  0  0  0.295578  0  4.119064  0  0  0.219468  0.274913  0  4.087259  0
C  C44  1  0.46956633  0.49006603  0.68713471  1  0  0.070889  0  3.787889  0  0  0.066341  0  4.035074  0  0  0.064775  0  4.057237  0  0  0.104702  0.066949  0  4.020392  0
C  C45  1  0.03043355  0.50993312  0.18713473  1  0  0.070862  0  3.787853  0  0  0.066325  0  4.035055  0  0  0.064758  0  4.057219  0  0  0.104733  0.066934  0  4.020373  0
C  C46  1  0.53043564  0.50993694  0.31286589  1  0  0.070912  0  3.78774  0  0  0.066349  0  4.034981  0  0  0.064784  0  4.057144  0  0  0.104694  0.066958  0  4.0203  0
C  C47  1  0.96957106  0.49006482  0.81286587  1  0  0.070861  0  3.788137  0  0  0.066326  0  4.035268  0  0  0.064761  0  4.057433  0  0  0.104718  0.066933  0  4.020585  0
C  C48  1  0.58154356  0.63373504  0.64773067  1  0  0.121927  0  3.630785  0  0  0.08197  0  3.888544  0  0  0.091253  0  3.900924  0  0  0.071826  0.075985  0  3.880235  0
C  C49  1  0.91845566  0.36626429  0.14773111  1  0  0.122017  0  3.630557  0  0  0.08207  0  3.888327  0  0  0.091356  0  3.900701  0  0  0.071842  0.076086  0  3.880017  0
C  C50  1  0.41845861  0.36626416  0.35226993  1  0  0.121967  0  3.630585  0  0  0.081996  0  3.888363  0  0  0.091281  0  3.900737  0  0  0.071841  0.076012  0  3.880053  0
C  C51  1  0.08154631  0.63373868  0.85227011  1  0  0.12206  0  3.630532  0  0  0.082069  0  3.88831  0  0  0.091354  0  3.900686  0  0  0.071825  0.076084  0  3.880002  0
C  C52  1  0.28263968  0.24741798  0.73044216  1  0  0.312067  0  3.586644  0  0  0.246342  0  3.864787  0  0  0.265237  0  3.872549  0  0  0.181641  0.234093  0  3.859167  0
C  C53  1  0.21735866  0.75258116  0.23044148  1  0  0.31205  0  3.586691  0  0  0.246346  0  3.864874  0  0  0.265244  0  3.872634  0  0  0.18162  0.234098  0  3.859253  0
C  C54  1  0.71735823  0.75258124  0.26955906  1  0  0.312026  0  3.58671  0  0  0.246324  0  3.864884  0  0  0.265222  0  3.872645  0  0  0.18161  0.234076  0  3.859263  0
C  C55  1  0.78264331  0.24742181  0.76955786  1  0  0.31212  0  3.586577  0  0  0.246384  0  3.864788  0  0  0.265279  0  3.872551  0  0  0.181633  0.234135  0  3.859168  0
N  N56  1  0.69061086  0.75705259  0.69603233  1  0  -0.354773  0  3.15862  0  0  -0.289507  0  3.413398  0  0  -0.307884  0  3.429864  0  0  -0.309046  -0.277228  0  3.402147  0
N  N57  1  0.80938682  0.24294674  0.19603344  1  0  -0.354821  0  3.158634  0  0  -0.289576  0  3.413421  0  0  -0.307954  0  3.429886  0  0  -0.309056  -0.277297  0  3.402169  0
N  N58  1  0.30938989  0.24294662  0.30396702  1  0  -0.354792  0  3.158647  0  0  -0.289505  0  3.413416  0  0  -0.307882  0  3.429881  0  0  -0.309062  -0.277225  0  3.402163  0
N  N59  1  0.19061475  0.75705498  0.80396778  1  0  -0.354792  0  3.158557  0  0  -0.289508  0  3.413361  0  0  -0.307888  0  3.429835  0  0  -0.309035  -0.27723  0  3.40211  0
N  N60  1  0.58550796  0.60360665  0.82330023  1  0  -0.373891  0  3.033976  0  0  -0.33791  0  3.310978  0  0  -0.353999  0  3.326544  0  0  -0.307512  -0.327242  0  3.300389  0
N  N61  1  0.91449160  0.39639514  0.32330068  1  0  -0.373819  0  3.03394  0  0  -0.337842  0  3.310923  0  0  -0.353931  0  3.326493  0  0  -0.307476  -0.327174  0  3.300335  0
N  N62  1  0.41449035  0.39639383  0.17670037  1  0  -0.373819  0  3.034009  0  0  -0.33785  0  3.311012  0  0  -0.353937  0  3.32658  0  0  -0.307484  -0.32718  0  3.300422  0
N  N63  1  0.08551422  0.60360656  0.67669992  1  0  -0.373691  0  3.033914  0  0  -0.337733  0  3.310889  0  0  -0.353819  0  3.326457  0  0  -0.307426  -0.327065  0  3.300297  0
N  N64  1  0.34275041  0.34155871  0.66134258  1  0  -0.307198  0  3.380044  0  0  -0.245331  0  3.613787  0  0  -0.263452  0  3.627108  0  0  -0.363503  -0.233206  0  3.604841  0
N  N65  1  0.15724528  0.65844046  0.16134193  1  0  -0.30719  0  3.380031  0  0  -0.245349  0  3.613798  0  0  -0.263474  0  3.627125  0  0  -0.363518  -0.233222  0  3.604848  0
N  N66  1  0.65724892  0.65844050  0.33865739  1  0  -0.307242  0  3.380036  0  0  -0.245376  0  3.613805  0  0  -0.263501  0  3.62713  0  0  -0.36352  -0.23325  0  3.604857  0
N  N67  1  0.84275568  0.34156377  0.83865742  1  0  -0.307298  0  3.380107  0  0  -0.245448  0  3.613863  0  0  -0.263577  0  3.627196  0  0  -0.363517  -0.233322  0  3.604916  0
N  N68  1  0.36230222  0.32390556  0.80079200  1  0  -0.468361  0  3.131776  0  0  -0.402468  0  3.423598  0  0  -0.426223  0  3.435455  0  0  -0.338489  -0.386388  0  3.414983  0
N  N69  1  0.13769818  0.67609606  0.30079135  1  0  -0.468431  0  3.131921  0  0  -0.402531  0  3.423736  0  0  -0.426287  0  3.435592  0  0  -0.338512  -0.386454  0  3.415128  0
N  N70  1  0.63769651  0.67609617  0.19920860  1  0  -0.468356  0  3.131832  0  0  -0.402473  0  3.42366  0  0  -0.426233  0  3.435522  0  0  -0.338482  -0.386396  0  3.415047  0
N  N71  1  0.86230765  0.32390564  0.69920799  1  0  -0.468388  0  3.131884  0  0  -0.402472  0  3.423659  0  0  -0.426234  0  3.435528  0  0  -0.338488  -0.386398  0  3.41505  0
O  O72  1  0.24882239  0.41087757  0.97482812  1  0  -0.57234  0  2.053424  0  0  -0.525747  0  2.31719  0  0  -0.550308  0  2.307473  0  0  -0.302188  -0.508683  0  2.32337  0
O  O73  1  0.25117101  0.58911273  0.47482491  1  0  -0.572278  0  2.053558  0  0  -0.525679  0  2.317263  0  0  -0.550239  0  2.307545  0  0  -0.302098  -0.508616  0  2.323445  0
O  O74  1  0.75116799  0.58911164  0.02517373  1  0  -0.572252  0  2.053554  0  0  -0.525667  0  2.317265  0  0  -0.550227  0  2.307547  0  0  -0.302065  -0.508605  0  2.323448  0
O  O75  1  0.74881937  0.41087648  0.52517256  1  0  -0.572342  0  2.053346  0  0  -0.525805  0  2.317142  0  0  -0.550368  0  2.307424  0  0  -0.302185  -0.508738  0  2.32332  0
O  O76  1  0.39739660  0.66513074  0.02833767  1  0  -0.604336  0  2.090383  0  0  -0.539062  0  2.343164  0  0  -0.564648  0  2.330451  0  0  -0.309463  -0.52128  0  2.351457  0
O  O77  1  0.10260146  0.33485716  0.52833719  1  0  -0.604373  0  2.090307  0  0  -0.539137  0  2.343076  0  0  -0.564725  0  2.330362  0  0  -0.30954  -0.521354  0  2.351373  0
O  O78  1  0.60259783  0.33485343  0.97166418  1  0  -0.604302  0  2.090172  0  0  -0.539076  0  2.342954  0  0  -0.564661  0  2.330237  0  0  -0.309514  -0.521289  0  2.351246  0
O  O79  1  0.89739887  0.66513201  0.47166528  1  0  -0.604273  0  2.090558  0  0  -0.538993  0  2.343304  0  0  -0.564579  0  2.330593  0  0  -0.309413  -0.521212  0  2.351598  0
O  O80  1  0.24689681  0.06168606  0.03489230  1  0  -0.592126  0  2.103468  0  0  -0.526101  0  2.342661  0  0  -0.55186  0  2.33197  0  0  -0.293756  -0.508221  0  2.349562  0
O  O81  1  0.25310978  0.93831938  0.53489180  1  0  -0.591938  0  2.104009  0  0  -0.525959  0  2.343249  0  0  -0.551714  0  2.332556  0  0  -0.293657  -0.508091  0  2.350147  0
O  O82  1  0.75311145  0.93831437  0.96510579  1  0  -0.591997  0  2.103906  0  0  -0.526002  0  2.343162  0  0  -0.551757  0  2.332467  0  0  -0.29367  -0.508124  0  2.350071  0
O  O83  1  0.74689566  0.06168986  0.46510754  1  0  -0.592159  0  2.103439  0  0  -0.526139  0  2.342665  0  0  -0.551896  0  2.331972  0  0  -0.293758  -0.508269  0  2.349587  0
O  O84  1  0.96987447  0.92854221  0.10458312  1  0  -0.575747  0  2.061829  0  0  -0.525263  0  2.321709  0  0  -0.549778  0  2.312329  0  0  -0.305123  -0.508208  0  2.32759  0
O  O85  1  0.53013057  0.07146590  0.60458890  1  0  -0.575779  0  2.061335  0  0  -0.525316  0  2.321283  0  0  -0.549821  0  2.311864  0  0  -0.305157  -0.508258  0  2.327152  0
O  O86  1  0.03012893  0.07146075  0.89540998  1  0  -0.575823  0  2.061443  0  0  -0.525327  0  2.321387  0  0  -0.549829  0  2.311961  0  0  -0.305181  -0.508263  0  2.327271  0
O  O87  1  0.46987265  0.92854962  0.39541420  1  0  -0.575808  0  2.061722  0  0  -0.525314  0  2.321635  0  0  -0.549828  0  2.31225  0  0  -0.305193  -0.508256  0  2.327527  0
O  O88  1  0.45704074  0.01659349  0.87371678  1  0  -0.835238  0  1.952006  0  0  -0.770906  0  2.174578  0  0  -0.792968  0  2.138692  0  0  -0.577012  -0.755271  0  2.199453  0
O  O89  1  0.04295987  0.98340936  0.37371621  1  0  -0.835244  0  1.951992  0  0  -0.770912  0  2.174571  0  0  -0.792974  0  2.138681  0  0  -0.577031  -0.755274  0  2.199443  0
O  O90  1  0.54295982  0.98340948  0.12628257  1  0  -0.835242  0  1.952006  0  0  -0.7709  0  2.174568  0  0  -0.792962  0  2.13868  0  0  -0.577014  -0.755263  0  2.199443  0
O  O91  1  0.95703886  0.01659237  0.62628313  1  0  -0.83526  0  1.951991  0  0  -0.770925  0  2.174542  0  0  -0.792987  0  2.138655  0  0  -0.577022  -0.755288  0  2.199415  0
