# generated using pymatgen
data_ZnH11C8S2N5
_symmetry_space_group_name_H-M   'P 1'
_cell_length_a   7.45842242
_cell_length_b   8.21622528
_cell_length_c   11.75152953
_cell_angle_alpha   98.97572133
_cell_angle_beta   107.66883600
_cell_angle_gamma   108.81767947
_symmetry_Int_Tables_number   1
_chemical_formula_structural   ZnH11C8S2N5
_chemical_formula_sum   'Zn2 H22 C16 S4 N10'
_cell_volume   623.21652706
_cell_formula_units_Z   2
loop_
 _symmetry_equiv_pos_site_id
 _symmetry_equiv_pos_as_xyz
  1  'x, y, z'
loop_
 _atom_site_type_symbol
 _atom_site_label
 _atom_site_symmetry_multiplicity
 _atom_site_fract_x
 _atom_site_fract_y
 _atom_site_fract_z
 _atom_site_occupancy
 _atom_site_hle17_bader_spin_density
 _atom_site_hle17_ddec_charge
 _atom_site_hle17_ddec_spin_density
 _atom_site_hle17_ddec_sum_bond_order
 _atom_site_hle17_magmom
 _atom_site_hse06_10hf_bader_spin_density
 _atom_site_hse06_10hf_ddec_charge
 _atom_site_hse06_10hf_ddec_spin_density
 _atom_site_hse06_10hf_ddec_sum_bond_order
 _atom_site_hse06_10hf_magmom
 _atom_site_hse06_bader_spin_density
 _atom_site_hse06_ddec_charge
 _atom_site_hse06_ddec_spin_density
 _atom_site_hse06_ddec_sum_bond_order
 _atom_site_hse06_magmom
 _atom_site_pbe_bader_spin_density
 _atom_site_pbe_cm5_charge
 _atom_site_pbe_ddec_charge
 _atom_site_pbe_ddec_spin_density
 _atom_site_pbe_ddec_sum_bond_order
 _atom_site_pbe_magmom
Zn  Zn0  1  0.63965345  0.17004126  0.73574756  1  0  1.005512  0  2.025483  0  0  0.82346  0  2.522066  0  0  0.861635  0  2.472201  0  0  0.744014  0.797496  0  2.555941  0
Zn  Zn1  1  0.36034718  0.82995871  0.26425317  1  0  1.005547  0  2.025453  0  0  0.823514  0  2.522037  0  0  0.861672  0  2.472156  0  0  0.744009  0.797536  0  2.555904  0
H  H2  1  0.49422534  0.73064928  0.68429908  1  0  0.084867  0  0.988909  0  0  0.087918  0  1.066718  0  0  0.090296  0  1.064235  0  0  0.120391  0.08618  0  1.068424  0
H  H3  1  0.50577142  0.26935465  0.31569961  1  0  0.084911  0  0.988781  0  0  0.087946  0  1.06661  0  0  0.090326  0  1.064121  0  0  0.120407  0.086207  0  1.068316  0
H  H4  1  0.14608034  0.77219568  0.90529662  1  0  0.11144  0  0.988963  0  0  0.116471  0  1.059259  0  0  0.118858  0  1.058722  0  0  0.110599  0.114715  0  1.059783  0
H  H5  1  0.85392110  0.22780294  0.09470413  1  0  0.111407  0  0.988969  0  0  0.116421  0  1.059283  0  0  0.118808  0  1.058746  0  0  0.110589  0.114668  0  1.059802  0
H  H6  1  0.35014845  0.10968713  0.88668969  1  0  0.096503  0  0.98557  0  0  0.103258  0  1.052567  0  0  0.105825  0  1.05166  0  0  0.104467  0.101376  0  1.053358  0
H  H7  1  0.64985224  0.89031291  0.11331447  1  0  0.096528  0  0.985559  0  0  0.103281  0  1.052556  0  0  0.105849  0  1.051648  0  0  0.104476  0.101397  0  1.053347  0
H  H8  1  0.20980375  0.48145381  0.85907208  1  0  0.075074  0  0.942342  0  0  0.09011  0  1.005164  0  0  0.09012  0  1.006133  0  0  0.106784  0.089997  0  1.004618  0
H  H9  1  0.79020388  0.51854611  0.14092743  1  0  0.075061  0  0.942291  0  0  0.090119  0  1.005133  0  0  0.09013  0  1.006103  0  0  0.106771  0.090005  0  1.004583  0
H  H10  1  0.35728997  0.46579432  0.76791868  1  0  0.080428  0  0.924526  0  0  0.097184  0  0.984041  0  0  0.096961  0  0.98525  0  0  0.111278  0.097241  0  0.98331  0
H  H11  1  0.64271378  0.53420957  0.23207878  1  0  0.080351  0  0.924552  0  0  0.097175  0  0.984034  0  0  0.096953  0  0.985244  0  0  0.111272  0.097231  0  0.983297  0
H  H12  1  0.06688277  0.42828458  0.57588397  1  0  0.080671  0  0.958843  0  0  0.093948  0  1.028121  0  0  0.095131  0  1.02848  0  0  0.089681  0.093069  0  1.027914  0
H  H13  1  0.93311785  0.57171537  0.42411590  1  0  0.080679  0  0.958853  0  0  0.093965  0  1.028117  0  0  0.09515  0  1.028476  0  0  0.089684  0.093085  0  1.027912  0
H  H14  1  0.91160126  0.43512817  0.66294123  1  0  0.080804  0  0.957249  0  0  0.09791  0  1.021133  0  0  0.09872  0  1.021513  0  0  0.087268  0.097216  0  1.021055  0
H  H15  1  0.08840018  0.56487046  0.33705952  1  0  0.080777  0  0.957274  0  0  0.097882  0  1.021153  0  0  0.098694  0  1.021531  0  0  0.087248  0.097186  0  1.021077  0
H  H16  1  0.84853862  0.12613169  0.54325812  1  0  0.066735  0  0.925998  0  0  0.084526  0  0.986413  0  0  0.084203  0  0.987888  0  0  0.103435  0.084688  0  0.985447  0
H  H17  1  0.15146199  0.87386825  0.45674175  1  0  0.066733  0  0.926004  0  0  0.084525  0  0.98642  0  0  0.084203  0  0.987894  0  0  0.103433  0.084683  0  0.985455  0
H  H18  1  0.09949870  0.15529133  0.63556965  1  0  0.052027  0  0.928087  0  0  0.070067  0  0.990391  0  0  0.06976  0  0.991624  0  0  0.096517  0.07022  0  0.989591  0
H  H19  1  0.90049992  0.84470729  0.36443056  1  0  0.052032  0  0.928079  0  0  0.070099  0  0.990359  0  0  0.06979  0  0.991593  0  0  0.096525  0.070246  0  0.989564  0
H  H20  1  0.86024191  0.99322302  0.71001159  1  0  0.266006  0  0.965867  0  0  0.252174  0  1.034579  0  0  0.257842  0  1.031753  0  0  0.265818  0.248166  0  1.036621  0
H  H21  1  0.13975733  0.00677696  0.28998972  1  0  0.266001  0  0.96587  0  0  0.252167  0  1.03458  0  0  0.257835  0  1.031753  0  0  0.265816  0.248157  0  1.03663  0
H  H22  1  0.00168280  0.18554516  0.81718279  1  0  0.263777  0  0.969189  0  0  0.251928  0  1.03465  0  0  0.257653  0  1.031574  0  0  0.263604  0.24789  0  1.036853  0
H  H23  1  0.99831841  0.81445613  0.18281734  1  0  0.263756  0  0.969218  0  0  0.251908  0  1.034672  0  0  0.257633  0  1.031595  0  0  0.263588  0.247865  0  1.036883  0
C  C24  1  0.42523519  0.79009161  0.73901225  1  0  0.167806  0  3.661395  0  0  0.106501  0  3.924805  0  0  0.120546  0  3.937254  0  0  0.139683  0.097461  0  3.916154  0
C  C25  1  0.57476379  0.20991099  0.26098673  1  0  0.167783  0  3.661279  0  0  0.106498  0  3.924693  0  0  0.120544  0  3.937141  0  0  0.139665  0.09746  0  3.916045  0
C  C26  1  0.24624763  0.81480359  0.85583893  1  0  -0.050767  0  3.659135  0  0  -0.089595  0  3.915676  0  0  -0.088131  0  3.93475  0  0  -0.000844  -0.090555  0  3.902934  0
C  C27  1  0.75375360  0.18519772  0.14416205  1  0  -0.050713  0  3.659057  0  0  -0.089519  0  3.915591  0  0  -0.088056  0  3.934666  0  0  -0.000832  -0.090484  0  3.902851  0
C  C28  1  0.34615013  0.98050888  0.84497942  1  0  -0.002059  0  3.758796  0  0  -0.035482  0  4.023225  0  0  -0.034203  0  4.04319  0  0  -0.009921  -0.03633  0  4.009837  0
C  C29  1  0.65384773  0.01949114  0.15502334  1  0  -0.002079  0  3.7588  0  0  -0.035493  0  4.023218  0  0  -0.034213  0  4.043183  0  0  -0.009901  -0.036331  0  4.009822  0
C  C30  1  0.23118712  0.50382634  0.77353643  1  0  0.007835  0  3.607209  0  0  -0.050165  0  3.857887  0  0  -0.04564  0  3.869734  0  0  -0.052222  -0.053089  0  3.849765  0
C  C31  1  0.76881628  0.49617357  0.22646227  1  0  0.008026  0  3.607058  0  0  -0.050113  0  3.857863  0  0  -0.045594  0  3.869724  0  0  -0.052174  -0.053024  0  3.849721  0
C  C32  1  0.03723955  0.39598828  0.65749355  1  0  -0.172176  0  3.685967  0  0  -0.213096  0  3.943446  0  0  -0.215565  0  3.956352  0  0  -0.170887  -0.211246  0  3.934571  0
C  C33  1  0.96276126  0.60400897  0.34250524  1  0  -0.172232  0  3.685991  0  0  -0.213136  0  3.943513  0  0  -0.21561  0  3.956428  0  0  -0.17089  -0.211292  0  3.934632  0
C  C34  1  0.97139193  0.19453251  0.63540792  1  0  0.084724  0  3.635734  0  0  0.028937  0  3.898895  0  0  0.033145  0  3.911914  0  0  -0.075984  0.026184  0  3.889866  0
C  C35  1  0.02860810  0.80546611  0.36459256  1  0  0.084727  0  3.63571  0  0  0.028909  0  3.898881  0  0  0.03312  0  3.911902  0  0  -0.076003  0.026169  0  3.889837  0
C  C36  1  0.37701109  0.25171206  0.50834167  1  0  0.305968  0  4.07386  0  0  0.285642  0  4.373094  0  0  0.308309  0  4.387163  0  0  0.151242  0.270358  0  4.363175  0
C  C37  1  0.62298813  0.74828790  0.49165880  1  0  0.305904  0  4.073952  0  0  0.285574  0  4.373189  0  0  0.30824  0  4.387258  0  0  0.151208  0.270283  0  4.363272  0
C  C38  1  0.76536504  0.54293063  0.91099532  1  0  0.316017  0  4.060827  0  0  0.294012  0  4.365134  0  0  0.317056  0  4.378024  0  0  0.151601  0.278479  0  4.355953  0
C  C39  1  0.23462977  0.45706261  0.08900278  1  0  0.31605  0  4.060564  0  0  0.294048  0  4.364878  0  0  0.317093  0  4.377769  0  0  0.151605  0.278518  0  4.355695  0
S  S40  1  0.22624427  0.30292930  0.40278429  1  0  -0.327607  0  2.087806  0  0  -0.306525  0  2.381546  0  0  -0.322416  0  2.380902  0  0  -0.128248  -0.295506  0  2.381808  0
S  S41  1  0.77375116  0.69706532  0.59721576  1  0  -0.327616  0  2.087811  0  0  -0.30654  0  2.381564  0  0  -0.322429  0  2.380917  0  0  -0.128258  -0.295514  0  2.381823  0
S  S42  1  0.81805402  0.75258044  0.96671483  1  0  -0.336684  0  2.071458  0  0  -0.313134  0  2.361536  0  0  -0.3276  0  2.357654  0  0  -0.133937  -0.303049  0  2.363981  0
S  S43  1  0.18194459  0.24741816  0.03328453  1  0  -0.336628  0  2.071546  0  0  -0.313084  0  2.361628  0  0  -0.327548  0  2.357749  0  0  -0.133908  -0.303005  0  2.364076  0
N  N44  1  0.45758311  0.96344344  0.77207840  1  0  -0.400228  0  3.337908  0  0  -0.316416  0  3.63887  0  0  -0.335894  0  3.650426  0  0  -0.366958  -0.303313  0  3.630751  0
N  N45  1  0.54241447  0.03655917  0.22792117  1  0  -0.400228  0  3.338083  0  0  -0.316448  0  3.63908  0  0  -0.335917  0  3.650621  0  0  -0.366964  -0.303346  0  3.630956  0
N  N46  1  0.29844762  0.69662008  0.78862395  1  0  -0.055062  0  3.569521  0  0  0.040125  0  3.785006  0  0  0.025122  0  3.811607  0  0  -0.239051  0.050026  0  3.766918  0
N  N47  1  0.70155357  0.30338118  0.21137532  1  0  -0.055164  0  3.56953  0  0  0.040043  0  3.785053  0  0  0.025042  0  3.811653  0  0  -0.23909  0.049937  0  3.766968  0
N  N48  1  0.89098448  0.12877967  0.72821919  1  0  -0.627084  0  3.165583  0  0  -0.557563  0  3.414729  0  0  -0.57691  0  3.41083  0  0  -0.629888  -0.544218  0  3.417202  0
N  N49  1  0.10901672  0.87122160  0.27178008  1  0  -0.627065  0  3.165581  0  0  -0.557531  0  3.414711  0  0  -0.576871  0  3.410805  0  0  -0.62986  -0.544177  0  3.417182  0
N  N50  1  0.48633112  0.20863004  0.58301021  1  0  -0.58849  0  3.010706  0  0  -0.521714  0  3.326287  0  0  -0.543141  0  3.325205  0  0  -0.420402  -0.507268  0  3.32692  0
N  N51  1  0.51367373  0.79136993  0.41699132  1  0  -0.588424  0  3.010715  0  0  -0.521652  0  3.326294  0  0  -0.543074  0  3.325206  0  0  -0.42037  -0.507197  0  3.326913  0
N  N52  1  0.72576006  0.38847920  0.86971520  1  0  -0.586036  0  2.97277  0  0  -0.520472  0  3.282366  0  0  -0.541677  0  3.281541  0  0  -0.418033  -0.506178  0  3.282769  0
N  N53  1  0.27423979  0.61152214  0.13028722  1  0  -0.586124  0  2.972467  0  0  -0.520571  0  3.282095  0  0  -0.541775  0  3.281261  0  0  -0.418049  -0.506274  0  3.282493  0
