# generated using pymatgen
data_CdH18C26N4O7
_symmetry_space_group_name_H-M   'P 1'
_cell_length_a   13.51270128
_cell_length_b   13.51275495
_cell_length_c   16.05191752
_cell_angle_alpha   68.53907009
_cell_angle_beta   68.53891141
_cell_angle_gamma   72.55415582
_symmetry_Int_Tables_number   1
_chemical_formula_structural   CdH18C26N4O7
_chemical_formula_sum   'Cd4 H72 C104 N16 O28'
_cell_volume   2491.61291348
_cell_formula_units_Z   4
loop_
 _symmetry_equiv_pos_site_id
 _symmetry_equiv_pos_as_xyz
  1  'x, y, z'
loop_
 _atom_site_type_symbol
 _atom_site_label
 _atom_site_symmetry_multiplicity
 _atom_site_fract_x
 _atom_site_fract_y
 _atom_site_fract_z
 _atom_site_occupancy
 _atom_site_pbe_bader_charge
 _atom_site_pbe_bader_spin_density
 _atom_site_pbe_cm5_charge
 _atom_site_pbe_ddec_charge
 _atom_site_pbe_ddec_spin_density
 _atom_site_pbe_ddec_sum_bond_order
 _atom_site_pbe_magmom
Cd  Cd0  1  0.39373240  0.21149352  0.04687125  1  1.209812  0  0.77824  0.82792  0  2.117494  0
Cd  Cd1  1  0.78850132  0.60626909  0.45312954  1  1.209787  0  0.778281  0.828001  0  2.11741  0
Cd  Cd2  1  0.60626707  0.78850995  0.95312742  1  1.209764  0  0.778261  0.827927  0  2.117463  0
Cd  Cd3  1  0.21149496  0.39373177  0.54687279  1  1.209733  0  0.778249  0.827917  0  2.117581  0
H  H4  1  0.49182639  0.50386070  0.11414452  1  0.637231  0  0.295857  0.352096  0  0.987961  0
H  H5  1  0.49613954  0.50817307  0.38585905  1  0.637268  0  0.295864  0.352081  0  0.987909  0
H  H6  1  0.50817720  0.49613647  0.88585669  1  0.637238  0  0.29587  0.352168  0  0.987866  0
H  H7  1  0.50385839  0.49182431  0.61414323  1  0.637263  0  0.295831  0.351981  0  0.988037  0
H  H8  1  0.97329406  0.27303809  0.13634835  1  0.464004  0  0.32428  0.283468  0  0.938519  0
H  H9  1  0.72696314  0.02670873  0.36364793  1  0.463985  0  0.324288  0.283478  0  0.938513  0
H  H10  1  0.02671198  0.72695785  0.86365372  1  0.464029  0  0.324313  0.283456  0  0.938594  0
H  H11  1  0.27304287  0.97328719  0.63634855  1  0.464052  0  0.324288  0.283476  0  0.938619  0
H  H12  1  0.65095695  0.09819061  0.07311175  1  0.500416  0  0.305161  0.275605  0  1.0034  0
H  H13  1  0.90181028  0.34903919  0.42688928  1  0.500428  0  0.305186  0.275582  0  1.003479  0
H  H14  1  0.34904421  0.90180699  0.92688760  1  0.50039  0  0.305131  0.275577  0  1.003422  0
H  H15  1  0.09819571  0.65095993  0.57310809  1  0.500339  0  0.305147  0.275516  0  1.00351  0
H  H16  1  0.65263453  0.46538523  0.78427959  1  0.096986  0  0.104145  0.103418  0  1.032859  0
H  H17  1  0.53462110  0.34736485  0.71571734  1  0.097054  0  0.104144  0.103404  0  1.032921  0
H  H18  1  0.34736010  0.53461752  0.21572267  1  0.097036  0  0.104172  0.103477  0  1.032837  0
H  H19  1  0.46537842  0.65263302  0.28427869  1  0.096974  0  0.10417  0.103529  0  1.032819  0
H  H20  1  0.83952035  0.48574170  0.68472957  1  0.113196  0  0.098414  0.100523  0  1.053682  0
H  H21  1  0.51425509  0.16047773  0.81527066  1  0.113401  0  0.098429  0.100593  0  1.053695  0
H  H22  1  0.16047105  0.51426244  0.31527700  1  0.112944  0  0.098437  0.100599  0  1.053587  0
H  H23  1  0.48574122  0.83951752  0.18472469  1  0.113148  0  0.09846  0.100619  0  1.053676  0
H  H24  1  0.96213047  0.15694113  0.82120507  1  0.103789  0  0.110344  0.123572  0  0.988529  0
H  H25  1  0.84306364  0.03787423  0.67879352  1  0.103896  0  0.110353  0.123636  0  0.988491  0
H  H26  1  0.03786813  0.84306565  0.17878910  1  0.103694  0  0.11034  0.123623  0  0.988449  0
H  H27  1  0.15693995  0.96212534  0.32121192  1  0.103837  0  0.110312  0.123528  0  0.988554  0
H  H28  1  0.77545360  0.13730548  0.92637936  1  0.100084  0  0.103072  0.102979  0  1.020008  0
H  H29  1  0.86269848  0.22454839  0.57361604  1  0.099978  0  0.103134  0.103088  0  1.020057  0
H  H30  1  0.22454509  0.86269333  0.07361476  1  0.099969  0  0.103113  0.103051  0  1.020095  0
H  H31  1  0.13730265  0.77545160  0.42638505  1  0.099915  0  0.103154  0.103125  0  1.020083  0
H  H32  1  0.32829176  0.45907670  0.07070693  1  0.131952  0  0.115903  0.09369  0  1.011183  0
H  H33  1  0.54091968  0.67170989  0.42930033  1  0.132005  0  0.115913  0.093704  0  1.011181  0
H  H34  1  0.67170850  0.54092661  0.92928842  1  0.131992  0  0.115874  0.093641  0  1.01128  0
H  H35  1  0.45906769  0.32829339  0.57070963  1  0.13193  0  0.115889  0.093675  0  1.011246  0
H  H36  1  0.15810879  0.59869818  0.09695485  1  0.104862  0  0.106168  0.109084  0  1.028262  0
H  H37  1  0.40130144  0.84189348  0.40304638  1  0.104878  0  0.106165  0.109068  0  1.028293  0
H  H38  1  0.84189313  0.40130406  0.90304531  1  0.104903  0  0.106167  0.10907  0  1.028326  0
H  H39  1  0.59869235  0.15811261  0.59695573  1  0.104808  0  0.106187  0.109139  0  1.028236  0
H  H40  1  0.97964998  0.55285169  0.12537811  1  0.135553  0  0.113612  0.131769  0  1.009277  0
H  H41  1  0.44715232  0.02035041  0.37462006  1  0.135249  0  0.11361  0.131741  0  1.009295  0
H  H42  1  0.02035033  0.44715006  0.87462581  1  0.135325  0  0.113592  0.131724  0  1.009297  0
H  H43  1  0.55284877  0.97965277  0.62537943  1  0.135382  0  0.113646  0.131799  0  1.009255  0
H  H44  1  0.15597096  0.23747479  0.09575946  1  0.110352  0  0.124065  0.113163  0  1.008979  0
H  H45  1  0.76253006  0.84403141  0.40423807  1  0.110401  0  0.124027  0.113123  0  1.00902  0
H  H46  1  0.84402678  0.76253612  0.90423244  1  0.110313  0  0.12405  0.113129  0  1.009028  0
H  H47  1  0.23746459  0.15596975  0.59576530  1  0.110354  0  0.124045  0.113119  0  1.009001  0
H  H48  1  0.65756983  0.49933902  0.12691604  1  0.133626  0  0.109222  0.127071  0  1.025557  0
H  H49  1  0.50066006  0.34243403  0.37308519  1  0.133764  0  0.109263  0.12712  0  1.025552  0
H  H50  1  0.34243859  0.50065804  0.87307560  1  0.133699  0  0.109255  0.127072  0  1.025514  0
H  H51  1  0.49933949  0.65756388  0.62692015  1  0.133747  0  0.109257  0.12707  0  1.025593  0
H  H52  1  0.55440236  0.21880121  0.14453826  1  0.079115  0  0.107503  0.118934  0  1.017289  0
H  H53  1  0.78119957  0.44559346  0.35546549  1  0.078665  0  0.107527  0.118935  0  1.017361  0
H  H54  1  0.44559885  0.78119401  0.85546616  1  0.078937  0  0.107529  0.118925  0  1.017361  0
H  H55  1  0.21880150  0.55441050  0.64453066  1  0.078687  0  0.107503  0.118945  0  1.01739  0
H  H56  1  0.87983413  0.19024808  0.14244585  1  0.086987  0  0.107331  0.108659  0  1.021006  0
H  H57  1  0.80974939  0.12016499  0.35755338  1  0.086904  0  0.107364  0.108673  0  1.020965  0
H  H58  1  0.12017034  0.80974416  0.85755724  1  0.086976  0  0.107324  0.108645  0  1.021074  0
H  H59  1  0.19025654  0.87983809  0.64244028  1  0.086878  0  0.107322  0.108574  0  1.021054  0
H  H60  1  0.62473177  0.98500197  0.01106021  1  0.136952  0  0.121978  0.10885  0  0.994701  0
H  H61  1  0.01499882  0.37526812  0.48894072  1  0.136923  0  0.121975  0.108799  0  0.99474  0
H  H62  1  0.37526618  0.01499382  0.98894318  1  0.136906  0  0.121953  0.108834  0  0.994746  0
H  H63  1  0.98500226  0.62473424  0.51105529  1  0.136878  0  0.121969  0.108827  0  0.994741  0
H  H64  1  0.78400470  0.66769827  0.22738245  1  0.103751  0  0.108822  0.113178  0  0.998741  0
H  H65  1  0.33230625  0.21599241  0.27261796  1  0.103688  0  0.108828  0.113191  0  0.998686  0
H  H66  1  0.21598915  0.33230223  0.77262012  1  0.103725  0  0.108821  0.113173  0  0.9987  0
H  H67  1  0.66769886  0.78401243  0.72737852  1  0.103726  0  0.108815  0.113178  0  0.998703  0
H  H68  1  0.69918474  0.65023011  0.12113320  1  0.126392  0  0.113987  0.090974  0  1.046694  0
H  H69  1  0.34977145  0.30081499  0.37886798  1  0.126375  0  0.113981  0.090944  0  1.046725  0
H  H70  1  0.30081480  0.34976778  0.87886842  1  0.126453  0  0.114003  0.090979  0  1.046702  0
H  H71  1  0.65023050  0.69918407  0.62113378  1  0.126425  0  0.113985  0.090991  0  1.046691  0
H  H72  1  0.79150876  0.85237464  0.22365393  1  0.151894  0  0.109006  0.129062  0  1.050358  0
H  H73  1  0.14762759  0.20848887  0.27634650  1  0.15193  0  0.108982  0.129049  0  1.050349  0
H  H74  1  0.20848916  0.14762273  0.77634524  1  0.151958  0  0.109004  0.12903  0  1.050276  0
H  H75  1  0.85238077  0.79151379  0.72364778  1  0.152295  0  0.109007  0.129035  0  1.050268  0
C  C76  1  0.58981964  0.28727578  0.92548794  1  1.516227  0  0.205846  0.569842  0  4.190487  0
C  C77  1  0.71272544  0.41018048  0.57450968  1  1.516242  0  0.205832  0.56972  0  4.190659  0
C  C78  1  0.41017825  0.71272478  0.07451212  1  1.516171  0  0.20579  0.569709  0  4.190623  0
C  C79  1  0.28727410  0.58981580  0.42548808  1  1.516662  0  0.205727  0.569562  0  4.19097  0
C  C80  1  0.70171475  0.30056797  0.86418025  1  -0.041932  0  -0.019007  -0.046797  0  3.981492  0
C  C81  1  0.69943272  0.29828604  0.63581728  1  -0.041781  0  -0.019043  -0.046716  0  3.981603  0
C  C82  1  0.29828394  0.69943325  0.13581935  1  -0.04195  0  -0.019035  -0.046712  0  3.981587  0
C  C83  1  0.30056604  0.70170960  0.36418342  1  -0.042236  0  -0.019019  -0.046649  0  3.981723  0
C  C84  1  0.72003476  0.39828500  0.79449420  1  -0.033974  0  -0.084452  -0.093415  0  3.971407  0
C  C85  1  0.60172001  0.27996411  0.70550324  1  -0.033769  0  -0.084457  -0.093486  0  3.97156  0
C  C86  1  0.27996307  0.60172035  0.20550625  1  -0.033702  0  -0.084474  -0.093521  0  3.971475  0
C  C87  1  0.39827796  0.72002846  0.29449305  1  -0.034074  0  -0.084435  -0.09353  0  3.97168  0
C  C88  1  0.82444142  0.40980175  0.73777601  1  -0.055979  0  -0.087642  -0.100626  0  3.970604  0
C  C89  1  0.59019817  0.17555740  0.76222610  1  -0.056035  0  -0.08769  -0.100768  0  3.970542  0
C  C90  1  0.17555483  0.59020152  0.26222807  1  -0.05613  0  -0.087678  -0.100772  0  3.970591  0
C  C91  1  0.40979978  0.82443677  0.23777033  1  -0.05548  0  -0.087669  -0.100864  0  3.970635  0
C  C92  1  0.91195622  0.32344337  0.74767820  1  -0.019211  0  -0.010039  -0.009981  0  3.955291  0
C  C93  1  0.67655984  0.08804240  0.75232099  1  -0.020124  0  -0.010027  -0.009862  0  3.955216  0
C  C94  1  0.08803919  0.67656243  0.25232473  1  -0.018697  0  -0.010072  -0.009918  0  3.955163  0
C  C95  1  0.32343972  0.91195389  0.24768050  1  -0.020392  0  -0.010142  -0.009825  0  3.955149  0
C  C96  1  0.02371452  0.33559858  0.68449238  1  1.547203  0  0.188168  0.549299  0  4.243348  0
C  C97  1  0.66440546  0.97628740  0.81550907  1  1.547105  0  0.188142  0.549261  0  4.243479  0
C  C98  1  0.97628330  0.66440918  0.31551107  1  1.546548  0  0.188256  0.549346  0  4.243297  0
C  C99  1  0.33559166  0.02371093  0.18449379  1  1.546898  0  0.188183  0.549353  0  4.243422  0
C  C100  1  0.89391506  0.22461420  0.81551082  1  -0.022373  0  -0.079487  -0.096772  0  3.950108  0
C  C101  1  0.77538399  0.10608619  0.68448223  1  -0.02158  0  -0.079499  -0.096867  0  3.950104  0
C  C102  1  0.10608118  0.77538744  0.18448505  1  -0.022326  0  -0.079498  -0.096811  0  3.94998  0
C  C103  1  0.22461557  0.89391011  0.31551926  1  -0.021411  0  -0.079433  -0.096766  0  3.950055  0
C  C104  1  0.78973787  0.21397621  0.87383871  1  -0.076891  0  -0.08207  -0.082964  0  3.962403  0
C  C105  1  0.78602869  0.21026542  0.62615914  1  -0.07701  0  -0.082077  -0.083069  0  3.962581  0
C  C106  1  0.21025999  0.78602514  0.12615737  1  -0.076744  0  -0.082055  -0.083044  0  3.962728  0
C  C107  1  0.21397248  0.78973218  0.37384331  1  -0.076976  0  -0.082126  -0.083155  0  3.962628  0
C  C108  1  0.24941033  0.44291325  0.08188907  1  0.476226  0  0.039885  0.069701  0  3.953489  0
C  C109  1  0.55709047  0.75058891  0.41811357  1  0.476035  0  0.03982  0.06966  0  3.953813  0
C  C110  1  0.75058747  0.55709450  0.91811003  1  0.47604  0  0.039902  0.069737  0  3.95344  0
C  C111  1  0.44290176  0.24941268  0.58189104  1  0.475826  0  0.039907  0.069734  0  3.953463  0
C  C112  1  0.15427297  0.51932029  0.09725192  1  -0.031536  0  -0.079628  -0.099282  0  3.99159  0
C  C113  1  0.48068000  0.84572549  0.40275149  1  -0.031442  0  -0.079555  -0.099191  0  3.991602  0
C  C114  1  0.84572490  0.48068189  0.90275013  1  -0.031501  0  -0.079546  -0.099245  0  3.991402  0
C  C115  1  0.51931140  0.15427865  0.59725570  1  -0.031351  0  -0.079589  -0.099312  0  3.991498  0
C  C116  1  0.05489229  0.49475010  0.11277876  1  -9e-05  0  -0.069363  -0.118348  0  3.873959  0
C  C117  1  0.50525077  0.94510748  0.38722223  1  0.000231  0  -0.069392  -0.118305  0  3.873973  0
C  C118  1  0.94510806  0.50524845  0.88722365  1  0.000115  0  -0.069411  -0.118277  0  3.873913  0
C  C119  1  0.49474953  0.05489426  0.61277858  1  0.000148  0  -0.069405  -0.118332  0  3.874006  0
C  C120  1  0.05383775  0.39174380  0.11139721  1  0.320996  0  0.109439  0.222418  0  3.997749  0
C  C121  1  0.60825809  0.94616768  0.38859791  1  0.320853  0  0.109422  0.222245  0  3.997768  0
C  C122  1  0.94616496  0.60825747  0.88859677  1  0.320995  0  0.109443  0.222324  0  3.997676  0
C  C123  1  0.39174301  0.05383470  0.61140120  1  0.32085  0  0.109433  0.222281  0  3.997815  0
C  C124  1  0.15282042  0.31927276  0.09525381  1  0.578782  0  0.044749  -0.011859  0  3.908528  0
C  C125  1  0.68072840  0.84718131  0.40474947  1  0.578802  0  0.044891  -0.011681  0  3.908444  0
C  C126  1  0.84718226  0.68073253  0.90474516  1  0.578848  0  0.044855  -0.011765  0  3.908533  0
C  C127  1  0.31926628  0.15281826  0.59525564  1  0.578824  0  0.044844  -0.011707  0  3.908467  0
C  C128  1  0.85930034  0.41319371  0.12630506  1  1.382319  0  0.243985  0.476795  0  4.116324  0
C  C129  1  0.58680829  0.14070201  0.37369187  1  1.382204  0  0.243994  0.476877  0  4.116407  0
C  C130  1  0.14070162  0.58680373  0.87369284  1  1.382692  0  0.244009  0.476938  0  4.115953  0
C  C131  1  0.41319846  0.85930095  0.62630531  1  1.382761  0  0.244092  0.476976  0  4.116103  0
C  C132  1  0.77874614  0.35323662  0.13260601  1  0.011652  0  -0.018463  -0.016766  0  4.039471  0
C  C133  1  0.64676256  0.22125171  0.36739320  1  0.011108  0  -0.018456  -0.016837  0  4.03956  0
C  C134  1  0.22125424  0.64675793  0.86739327  1  0.011209  0  -0.018415  -0.016696  0  4.039268  0
C  C135  1  0.35324099  0.77874783  0.63260292  1  0.010714  0  -0.018462  -0.016883  0  4.039597  0
C  C136  1  0.67517349  0.41409528  0.13053154  1  -0.086262  0  -0.095372  -0.229653  0  3.931094  0
C  C137  1  0.58590348  0.32482473  0.36946901  1  -0.085133  0  -0.095449  -0.229711  0  3.931067  0
C  C138  1  0.32483008  0.58590186  0.86946345  1  -0.086402  0  -0.09544  -0.22968  0  3.930988  0
C  C139  1  0.41409766  0.67517446  0.63053047  1  -0.085162  0  -0.095428  -0.229651  0  3.931122  0
C  C140  1  0.59495087  0.36681677  0.13244928  1  0.507302  0  0.087252  0.340606  0  4.066006  0
C  C141  1  0.63318112  0.40504844  0.36755309  1  0.507334  0  0.087188  0.340479  0  4.066064  0
C  C142  1  0.40505109  0.63318068  0.86755048  1  0.507215  0  0.087199  0.340537  0  4.065839  0
C  C143  1  0.36681922  0.59495011  0.63244870  1  0.507281  0  0.087213  0.340529  0  4.065996  0
C  C144  1  0.61840967  0.25621088  0.13918882  1  0.03031  0  -0.094554  -0.21164  0  3.908646  0
C  C145  1  0.74378583  0.38159167  0.36081323  1  0.03069  0  -0.094521  -0.211504  0  3.908842  0
C  C146  1  0.38159470  0.74378772  0.86080735  1  0.030488  0  -0.094551  -0.211601  0  3.9088  0
C  C147  1  0.25621445  0.61841245  0.63918685  1  0.030709  0  -0.094527  -0.211616  0  3.908757  0
C  C148  1  0.72169480  0.19533548  0.14155414  1  -0.04193  0  -0.020809  -0.019196  0  4.041028  0
C  C149  1  0.80466056  0.27830914  0.35844473  1  -0.041924  0  -0.020886  -0.019265  0  4.041215  0
C  C150  1  0.27830879  0.80466007  0.85844196  1  -0.040294  0  -0.020831  -0.019147  0  4.041151  0
C  C151  1  0.19533887  0.72169752  0.64155358  1  -0.042636  0  -0.020805  -0.019168  0  4.041009  0
C  C152  1  0.80203462  0.24340058  0.13828009  1  -0.053623  0  -0.094128  -0.162486  0  3.983179  0
C  C153  1  0.75659760  0.19796648  0.36172148  1  -0.052915  0  -0.094105  -0.162436  0  3.983088  0
C  C154  1  0.19796903  0.75659179  0.86172010  1  -0.055127  0  -0.094144  -0.162556  0  3.983292  0
C  C155  1  0.24340831  0.80203821  0.63827231  1  -0.052125  0  -0.094174  -0.162402  0  3.983482  0
C  C156  1  0.75134379  0.07653888  0.15172541  1  1.385002  0  0.239811  0.478167  0  4.111428  0
C  C157  1  0.92345640  0.24865966  0.34827627  1  1.385034  0  0.239777  0.47809  0  4.11135  0
C  C158  1  0.24865902  0.92345603  0.84827363  1  1.384966  0  0.239755  0.478062  0  4.111549  0
C  C159  1  0.07654062  0.75134584  0.65172377  1  1.385078  0  0.239788  0.47808  0  4.111506  0
C  C160  1  0.70473976  0.93355680  0.11919017  1  0.347219  0  0.108736  0.219123  0  3.999927  0
C  C161  1  0.06644325  0.29525761  0.38081109  1  0.347204  0  0.108713  0.218965  0  3.999878  0
C  C162  1  0.29526059  0.06644094  0.88081124  1  0.347244  0  0.108779  0.219116  0  3.99982  0
C  C163  1  0.93356189  0.70474243  0.61918189  1  0.347522  0  0.108748  0.219126  0  3.999916  0
C  C164  1  0.66030618  0.91634850  0.06021809  1  0.527948  0  0.046969  0.003056  0  3.89751  0
C  C165  1  0.08365358  0.33969093  0.43978451  1  0.527679  0  0.046992  0.00323  0  3.897377  0
C  C166  1  0.33969659  0.08364960  0.93978246  1  0.527829  0  0.046976  0.003114  0  3.897402  0
C  C167  1  0.91634929  0.66030000  0.56021825  1  0.527608  0  0.046977  0.003141  0  3.897611  0
C  C168  1  0.74871186  0.74023138  0.18110588  1  -0.05545  0  -0.082115  -0.097531  0  3.989092  0
C  C169  1  0.25977055  0.25128754  0.31889406  1  -0.055413  0  -0.082101  -0.097545  0  3.989163  0
C  C170  1  0.25128764  0.25976970  0.81889476  1  -0.055247  0  -0.082089  -0.097529  0  3.989069  0
C  C171  1  0.74023057  0.74871325  0.68110493  1  -0.055766  0  -0.082106  -0.09753  0  3.989105  0
C  C172  1  0.70099323  0.72956468  0.12227244  1  0.46039  0  0.032206  0.064979  0  3.958278  0
C  C173  1  0.27043638  0.29900242  0.37772958  1  0.460763  0  0.032236  0.065042  0  3.95843  0
C  C174  1  0.29900145  0.27043409  0.87773104  1  0.460621  0  0.032226  0.065023  0  3.958286  0
C  C175  1  0.72956387  0.70100249  0.62226653  1  0.461171  0  0.032211  0.06489  0  3.958439  0
C  C176  1  0.75244412  0.84265506  0.17961189  1  0.023081  0  -0.072751  -0.133245  0  3.899831  0
C  C177  1  0.15734669  0.24755288  0.32038952  1  0.023007  0  -0.072745  -0.133212  0  3.899841  0
C  C178  1  0.24755057  0.15734371  0.82039222  1  0.022961  0  -0.072746  -0.133189  0  3.899625  0
C  C179  1  0.84265845  0.75244797  0.67960508  1  0.022639  0  -0.07277  -0.133208  0  3.899686  0
N  N180  1  0.24763040  0.34413354  0.08116629  1  -1.243489  0  -0.332728  -0.227543  0  3.595837  0
N  N181  1  0.65586875  0.75237065  0.41883557  1  -1.243361  0  -0.332815  -0.227657  0  3.596198  0
N  N182  1  0.75237141  0.65587586  0.91882794  1  -1.24331  0  -0.332824  -0.227605  0  3.595983  0
N  N183  1  0.34412187  0.24763044  0.58116970  1  -1.243203  0  -0.332866  -0.227651  0  3.596068  0
N  N184  1  0.96190583  0.35426260  0.12474792  1  -1.237339  0  -0.393947  -0.371958  0  3.595589  0
N  N185  1  0.64573932  0.03809553  0.37525238  1  -1.237302  0  -0.393988  -0.371939  0  3.595633  0
N  N186  1  0.03809534  0.64573581  0.87525615  1  -1.237338  0  -0.394019  -0.371986  0  3.595549  0
N  N187  1  0.35426584  0.96190532  0.62474595  1  -1.23723  0  -0.393977  -0.371955  0  3.595772  0
N  N188  1  0.69685032  0.04068609  0.11436307  1  -1.261965  0  -0.39406  -0.374836  0  3.579781  0
N  N189  1  0.95931416  0.30314519  0.38564017  1  -1.262071  0  -0.394131  -0.374807  0  3.579981  0
N  N190  1  0.30314841  0.95931194  0.88563938  1  -1.261932  0  -0.394069  -0.374831  0  3.579811  0
N  N191  1  0.04068941  0.69685276  0.61435769  1  -1.261991  0  -0.394057  -0.374784  0  3.579858  0
N  N192  1  0.65896201  0.81688434  0.06198235  1  -1.269067  0  -0.342425  -0.242883  0  3.597348  0
N  N193  1  0.18311862  0.34103831  0.43801706  1  -1.269047  0  -0.342417  -0.242921  0  3.597494  0
N  N194  1  0.34103428  0.18311573  0.93801961  1  -1.269298  0  -0.342453  -0.242943  0  3.597346  0
N  N195  1  0.81688253  0.65896089  0.56198614  1  -1.269351  0  -0.342414  -0.242868  0  3.597557  0
O  O196  1  0.50942224  0.36532953  0.91903558  1  -1.17012  0  -0.314867  -0.555821  0  2.204344  0
O  O197  1  0.63466919  0.49057521  0.58096434  1  -1.170071  0  -0.314859  -0.555737  0  2.204342  0
O  O198  1  0.49057407  0.63466895  0.08096935  1  -1.170015  0  -0.314806  -0.55575  0  2.204367  0
O  O199  1  0.36532956  0.50942042  0.41903449  1  -1.170171  0  -0.314785  -0.555678  0  2.204491  0
O  O200  1  0.57682680  0.19353388  0.98427291  1  -1.170042  0  -0.324312  -0.555337  0  2.303762  0
O  O201  1  0.80646767  0.42317486  0.51572533  1  -1.170093  0  -0.324305  -0.555299  0  2.303735  0
O  O202  1  0.42317109  0.80646589  0.01572615  1  -1.170101  0  -0.324317  -0.555294  0  2.303738  0
O  O203  1  0.19353104  0.57682477  0.48427476  1  -1.170105  0  -0.324288  -0.55522  0  2.303805  0
O  O204  1  0.09216452  0.25237448  0.66921565  1  -1.174338  0  -0.327169  -0.55713  0  2.178151  0
O  O205  1  0.74762958  0.90783633  0.83078419  1  -1.174325  0  -0.327165  -0.557149  0  2.17823  0
O  O206  1  0.90782924  0.74763239  0.33078311  1  -1.1739  0  -0.327262  -0.557232  0  2.178124  0
O  O207  1  0.25236913  0.09216330  0.16921591  1  -1.174178  0  -0.32717  -0.557179  0  2.178197  0
O  O208  1  0.04453812  0.43228206  0.64688715  1  -1.148777  0  -0.345396  -0.561816  0  2.204024  0
O  O209  1  0.56772145  0.95546596  0.85311445  1  -1.148662  0  -0.345372  -0.561745  0  2.204005  0
O  O210  1  0.95546541  0.56772311  0.35311907  1  -1.148642  0  -0.345377  -0.561788  0  2.203965  0
O  O211  1  0.43227649  0.04453142  0.14688845  1  -1.148568  0  -0.345378  -0.561817  0  2.203954  0
O  O212  1  0.83526332  0.51097202  0.12041795  1  -1.137283  0  -0.280762  -0.477099  0  2.193326  0
O  O213  1  0.48902937  0.16473635  0.37958130  1  -1.137177  0  -0.280771  -0.477131  0  2.193333  0
O  O214  1  0.16473943  0.48902606  0.87957700  1  -1.13734  0  -0.280767  -0.477153  0  2.193095  0
O  O215  1  0.51097744  0.83526263  0.62041772  1  -1.137418  0  -0.280787  -0.477158  0  2.193305  0
O  O216  1  0.49461125  0.42384478  0.12878762  1  -1.172129  0  -0.362844  -0.474246  0  2.312035  0
O  O217  1  0.57615520  0.50538650  0.37121715  1  -1.172166  0  -0.362793  -0.474185  0  2.312013  0
O  O218  1  0.50539152  0.57615332  0.87121169  1  -1.172182  0  -0.362827  -0.474291  0  2.311822  0
O  O219  1  0.42384113  0.49460958  0.62878603  1  -1.172118  0  -0.362809  -0.474118  0  2.312077  0
O  O220  1  0.82074521  0.01664893  0.19117815  1  -1.138693  0  -0.295783  -0.478788  0  2.102174  0
O  O221  1  0.98334900  0.17925720  0.30882547  1  -1.138531  0  -0.295705  -0.478718  0  2.102123  0
O  O222  1  0.17926410  0.98334322  0.80881973  1  -1.138556  0  -0.295699  -0.478698  0  2.102375  0
O  O223  1  0.01665140  0.82073737  0.69117941  1  -1.138633  0  -0.295713  -0.478681  0  2.102427  0
