# generated using pymatgen
data_CdH16C18(NO)4
_symmetry_space_group_name_H-M   'P 1'
_cell_length_a   8.64432596
_cell_length_b   10.60072048
_cell_length_c   12.61885141
_cell_angle_alpha   101.14991155
_cell_angle_beta   92.68985225
_cell_angle_gamma   96.74285363
_symmetry_Int_Tables_number   1
_chemical_formula_structural   CdH16C18(NO)4
_chemical_formula_sum   'Cd2 H32 C36 N8 O8'
_cell_volume   1123.78729665
_cell_formula_units_Z   2
loop_
 _symmetry_equiv_pos_site_id
 _symmetry_equiv_pos_as_xyz
  1  'x, y, z'
loop_
 _atom_site_type_symbol
 _atom_site_label
 _atom_site_symmetry_multiplicity
 _atom_site_fract_x
 _atom_site_fract_y
 _atom_site_fract_z
 _atom_site_occupancy
 _atom_site_pbe_bader_spin_density
 _atom_site_pbe_cm5_charge
 _atom_site_pbe_ddec_charge
 _atom_site_pbe_ddec_spin_density
 _atom_site_pbe_ddec_sum_bond_order
 _atom_site_pbe_magmom
Cd  Cd0  1  0.43141017  0.22874889  0.25644556  1  0  0.755751  0.767007  0  2.28399  0
Cd  Cd1  1  0.56859846  0.77124165  0.74355596  1  0  0.755777  0.766861  0  2.284289  0
H  H2  1  0.29126072  0.49958087  0.36337840  1  0  0.123518  0.114013  0  1.024796  0
H  H3  1  0.70878036  0.50042911  0.63660707  1  0  0.123552  0.113955  0  1.024837  0
H  H4  1  0.91002730  0.43158885  0.56176635  1  0  0.109693  0.116507  0  1.012144  0
H  H5  1  0.09000535  0.56838143  0.43822205  1  0  0.109852  0.11673  0  1.012133  0
H  H6  1  0.10982519  0.28921647  0.48555891  1  0  0.110305  0.115704  0  1.004351  0
H  H7  1  0.89020252  0.71075859  0.51442525  1  0  0.110249  0.115587  0  1.004331  0
H  H8  1  0.03696420  0.12496309  0.31717822  1  0  0.115523  0.12598  0  0.997569  0
H  H9  1  0.96304672  0.87503122  0.68280577  1  0  0.115526  0.12599  0  0.997461  0
H  H10  1  0.76381138  0.10153445  0.23045336  1  0  0.117674  0.084489  0  0.993104  0
H  H11  1  0.23619315  0.89844921  0.76953501  1  0  0.11769  0.084506  0  0.993124  0
H  H12  1  0.55587275  0.07940780  0.83536668  1  0  0.124394  0.118055  0  1.037598  0
H  H13  1  0.44414121  0.92059436  0.16463215  1  0  0.124422  0.118105  0  1.037462  0
H  H14  1  0.68620268  0.26707517  0.87105702  1  0  0.117773  0.127475  0  0.983017  0
H  H15  1  0.31379058  0.73293656  0.12894549  1  0  0.117763  0.127477  0  0.983123  0
H  H16  1  0.76744245  0.50575163  0.90746842  1  0  0.107341  0.11783  0  1.036616  0
H  H17  1  0.23251139  0.49426286  0.09254693  1  0  0.107407  0.118069  0  1.03646  0
H  H18  1  0.72408885  0.63753897  0.09040235  1  0  0.112188  0.117046  0  0.98021  0
H  H19  1  0.27586226  0.36246584  0.90961613  1  0  0.112203  0.116969  0  0.980371  0
H  H20  1  0.58640257  0.52369334  0.22353308  1  0  0.116389  0.085292  0  0.990293  0
H  H21  1  0.41355956  0.47629693  0.77647097  1  0  0.116407  0.085311  0  0.990182  0
H  H22  1  0.16867147  0.02715013  0.51579054  1  0  0.087294  0.136427  0  1.01449  0
H  H23  1  0.83130978  0.97286636  0.48421137  1  0  0.087252  0.136378  0  1.014486  0
H  H24  1  0.24638821  0.88541004  0.44827975  1  0  0.084437  0.136074  0  1.02199  0
H  H25  1  0.75358400  0.11460060  0.55172320  1  0  0.084389  0.135989  0  1.022004  0
H  H26  1  0.36210985  0.00147055  0.55076916  1  0  0.096361  0.161437  0  1.012748  0
H  H27  1  0.63786602  0.99853433  0.44923702  1  0  0.096338  0.161462  0  1.012754  0
H  H28  1  0.94120270  0.16708126  0.04805175  1  0  0.091049  0.148598  0  0.99746  0
H  H29  1  0.05880745  0.83292669  0.95194860  1  0  0.090972  0.148501  0  0.997516  0
H  H30  1  0.91239049  0.31781479  0.13454488  1  0  0.088574  0.14032  0  1.023989  0
H  H31  1  0.08760848  0.68219500  0.86545127  1  0  0.088565  0.140323  0  1.024016  0
H  H32  1  0.01820294  0.31899832  0.01849557  1  0  0.090753  0.138862  0  1.010595  0
H  H33  1  0.98180397  0.68101056  0.98150160  1  0  0.090786  0.13893  0  1.010487  0
C  C34  1  0.61346376  0.42530918  0.46840498  1  0  0.129921  0.13308  0  3.969273  0
C  C35  1  0.38657272  0.57469602  0.53159301  1  0  0.12978  0.13266  0  3.969544  0
C  C36  1  0.38370243  0.50185636  0.42594379  1  0  0.068206  0.03565  0  3.868998  0
C  C37  1  0.61633099  0.49814199  0.57404506  1  0  0.068063  0.035483  0  3.869158  0
C  C38  1  0.73438201  0.34193111  0.43239631  1  0  0.121046  0.169369  0  4.00511  0
C  C39  1  0.26564182  0.65806624  0.56759748  1  0  0.121243  0.169671  0  4.004875  0
C  C40  1  0.88169873  0.35758643  0.48832964  1  0  -0.078554  -0.167379  0  3.9524  0
C  C41  1  0.11832510  0.64238569  0.51165309  1  0  -0.078904  -0.168076  0  3.952924  0
C  C42  1  0.99239615  0.27937939  0.44688813  1  0  -0.061833  -0.019776  0  3.945194  0
C  C43  1  0.00763767  0.72059664  0.55309092  1  0  -0.061686  -0.019301  0  3.94503  0
C  C44  1  0.95224613  0.18598669  0.35253777  1  0  -0.067912  -0.097617  0  3.916978  0
C  C45  1  0.04776633  0.81400280  0.64744791  1  0  -0.067889  -0.097749  0  3.916901  0
C  C46  1  0.80203445  0.17434035  0.30349026  1  0  0.056478  0.1052  0  3.949694  0
C  C47  1  0.19796646  0.82565105  0.69650310  1  0  0.056503  0.105266  0  3.949893  0
C  C48  1  0.45493875  0.87053851  0.98734250  1  0  0.132333  0.131104  0  3.969456  0
C  C49  1  0.54505327  0.12945575  0.01265248  1  0  0.132337  0.131276  0  3.969271  0
C  C50  1  0.46903856  0.95312668  0.08952829  1  0  0.067475  0.032183  0  3.861587  0
C  C51  1  0.53096932  0.04686576  0.91046953  1  0  0.067426  0.03195  0  3.861544  0
C  C52  1  0.59359535  0.27070366  0.02846033  1  0  0.121593  0.164915  0  4.015011  0
C  C53  1  0.40640675  0.72929074  0.97154624  1  0  0.12146  0.16479  0  4.014775  0
C  C54  1  0.66580575  0.32674639  0.94845479  1  0  -0.071389  -0.15173  0  3.924954  0
C  C55  1  0.33419443  0.67325865  0.05155335  1  0  -0.071426  -0.151879  0  3.925014  0
C  C56  1  0.71408028  0.45985889  0.96975127  1  0  -0.065823  -0.025646  0  3.945574  0
C  C57  1  0.28589284  0.54014507  0.03026415  1  0  -0.06587  -0.025859  0  3.945076  0
C  C58  1  0.68847598  0.53312498  0.07028391  1  0  -0.079227  -0.125743  0  3.967577  0
C  C59  1  0.31148893  0.46687795  0.92972937  1  0  -0.07927  -0.125585  0  3.967398  0
C  C60  1  0.61305336  0.47050024  0.14483425  1  0  0.053017  0.099728  0  3.973861  0
C  C61  1  0.38691111  0.52949778  0.85516953  1  0  0.053023  0.099659  0  3.973717  0
C  C62  1  0.33640295  0.06253627  0.39948988  1  0  0.188491  0.676239  0  4.162017  0
C  C63  1  0.66358617  0.93746484  0.60051951  1  0  0.18844  0.676086  0  4.161701  0
C  C64  1  0.27298568  0.98915262  0.48309064  1  0  -0.255859  -0.52091  0  3.912466  0
C  C65  1  0.72698666  0.01085225  0.51691696  1  0  -0.2559  -0.520986  0  3.912379  0
C  C66  1  0.14507947  0.26707454  0.15093584  1  0  0.181943  0.658533  0  4.19533  0
C  C67  1  0.85492046  0.73295179  0.84907244  1  0  0.181807  0.658048  0  4.195823  0
C  C68  1  0.99410668  0.26609258  0.08406498  1  0  -0.254732  -0.522462  0  3.923117  0
C  C69  1  0.00590212  0.73391441  0.91593674  1  0  -0.254647  -0.522311  0  3.923012  0
N  N70  1  0.49575314  0.42912833  0.39573607  1  0  -0.298102  -0.214605  0  3.45703  0
N  N71  1  0.50427537  0.57087778  0.60426168  1  0  -0.297987  -0.214381  0  3.457229  0
N  N72  1  0.69625041  0.25073830  0.34160363  1  0  -0.311776  -0.263315  0  3.473014  0
N  N73  1  0.30376046  0.74925802  0.65839177  1  0  -0.311831  -0.263328  0  3.473114  0
N  N74  1  0.48654361  0.92003498  0.89910447  1  0  -0.294828  -0.204524  0  3.458174  0
N  N75  1  0.51346457  0.07995266  0.10089737  1  0  -0.294857  -0.204694  0  3.458207  0
N  N76  1  0.56692336  0.34274259  0.12474640  1  0  -0.311299  -0.269964  0  3.461164  0
N  N77  1  0.43308825  0.65724508  0.87525720  1  0  -0.311155  -0.269694  0  3.460653  0
O  O78  1  0.31780421  0.18292469  0.41186726  1  0  -0.353694  -0.588727  0  2.176299  0
O  O79  1  0.68220654  0.81708239  0.58814646  1  0  -0.353658  -0.588585  0  2.176185  0
O  O80  1  0.40668214  0.00499283  0.32213751  1  0  -0.354944  -0.60569  0  2.126833  0
O  O81  1  0.59328236  0.99500419  0.67786057  1  0  -0.354821  -0.605491  0  2.126802  0
O  O82  1  0.20772917  0.37326613  0.21025822  1  0  -0.352486  -0.605162  0  2.132275  0
O  O83  1  0.79225846  0.62676302  0.78974912  1  0  -0.35248  -0.604879  0  2.132495  0
O  O84  1  0.20357123  0.16045847  0.14295805  1  0  -0.35699  -0.57363  0  2.146404  0
O  O85  1  0.79643193  0.83956793  0.85705831  1  0  -0.356922  -0.57347  0  2.146335  0
