# generated using pymatgen
data_CdH15C12NO8
_symmetry_space_group_name_H-M   'P 1'
_cell_length_a   7.74314882
_cell_length_b   9.74510175
_cell_length_c   10.41491833
_cell_angle_alpha   71.62548674
_cell_angle_beta   92.86457152
_cell_angle_gamma   78.36526685
_symmetry_Int_Tables_number   1
_chemical_formula_structural   CdH15C12NO8
_chemical_formula_sum   'Cd2 H30 C24 N2 O16'
_cell_volume   725.02404649
_cell_formula_units_Z   2
loop_
 _symmetry_equiv_pos_site_id
 _symmetry_equiv_pos_as_xyz
  1  'x, y, z'
loop_
 _atom_site_type_symbol
 _atom_site_label
 _atom_site_symmetry_multiplicity
 _atom_site_fract_x
 _atom_site_fract_y
 _atom_site_fract_z
 _atom_site_occupancy
 _atom_site_hle17_bader_spin_density
 _atom_site_hle17_ddec_charge
 _atom_site_hle17_ddec_spin_density
 _atom_site_hle17_ddec_sum_bond_order
 _atom_site_hle17_magmom
 _atom_site_hse06_10hf_bader_spin_density
 _atom_site_hse06_10hf_ddec_charge
 _atom_site_hse06_10hf_ddec_spin_density
 _atom_site_hse06_10hf_ddec_sum_bond_order
 _atom_site_hse06_10hf_magmom
 _atom_site_hse06_bader_spin_density
 _atom_site_hse06_ddec_charge
 _atom_site_hse06_ddec_spin_density
 _atom_site_hse06_ddec_sum_bond_order
 _atom_site_hse06_magmom
 _atom_site_pbe_bader_spin_density
 _atom_site_pbe_cm5_charge
 _atom_site_pbe_ddec_charge
 _atom_site_pbe_ddec_spin_density
 _atom_site_pbe_ddec_sum_bond_order
 _atom_site_pbe_magmom
Cd  Cd0  1  0.05716550  0.27650759  0.41639312  1  0  1.259451  0  1.489656  0  0  1.085675  0  1.917765  0  0  1.147302  0  1.85663  0  0  0.768539  1.037741  0  1.962318  0
Cd  Cd1  1  0.99071479  0.74434969  0.57975114  1  0  1.240946  0  1.542149  0  0  1.070324  0  1.971327  0  0  1.129551  0  1.911055  0  0  0.77056  1.024602  0  2.015662  0
H  H2  1  0.23179887  0.65173523  0.04295066  1  0  0.302029  0  0.900389  0  0  0.281432  0  0.965749  0  0  0.290262  0  0.959006  0  0  0.305804  0.275149  0  0.970533  0
H  H3  1  0.28242346  0.60184700  0.21269363  1  0  0.304244  0  0.854365  0  0  0.287797  0  0.911368  0  0  0.296712  0  0.904368  0  0  0.316913  0.281329  0  0.916595  0
H  H4  1  0.02150576  0.27449125  0.92729457  1  0  0.1073  0  0.952632  0  0  0.112732  0  1.023281  0  0  0.116947  0  1.019608  0  0  0.105817  0.109478  0  1.026553  0
H  H5  1  0.31222297  0.89142679  0.25333544  1  0  0.116956  0  0.924076  0  0  0.130196  0  0.978546  0  0  0.133875  0  0.975883  0  0  0.11524  0.127619  0  0.980355  0
H  H6  1  0.93874572  0.58234180  0.34809785  1  0  0.42305  0  0.870285  0  0  0.39413  0  0.935838  0  0  0.404943  0  0.920225  0  0  0.291753  0.386314  0  0.947055  0
H  H7  1  0.75017271  0.12582107  0.43290208  1  0  0.449405  0  0.816396  0  0  0.422481  0  0.880972  0  0  0.432206  0  0.866827  0  0  0.307236  0.415382  0  0.891303  0
H  H8  1  0.83384275  0.51866193  0.46533228  1  0  0.421741  0  0.886383  0  0  0.388054  0  0.955449  0  0  0.399689  0  0.938787  0  0  0.287697  0.379606  0  0.967496  0
H  H9  1  0.33689300  0.90654441  0.83620954  1  0  0.109698  0  0.932998  0  0  0.122109  0  0.989898  0  0  0.125856  0  0.987138  0  0  0.110741  0.11944  0  0.99193  0
H  H10  1  0.85154310  0.07597702  0.57671324  1  0  0.422217  0  0.864303  0  0  0.391593  0  0.934894  0  0  0.401436  0  0.920413  0  0  0.294914  0.384439  0  0.945445  0
H  H11  1  0.53281828  0.71281645  0.01567965  1  0  0.093584  0  0.912507  0  0  0.110923  0  0.966367  0  0  0.111817  0  0.966434  0  0  0.120599  0.110227  0  0.966354  0
H  H12  1  0.54063977  0.70374054  0.18919195  1  0  0.097557  0  0.904553  0  0  0.113199  0  0.959727  0  0  0.11451  0  0.959309  0  0  0.121354  0.112179  0  0.960199  0
H  H13  1  0.37381564  0.43443939  0.04951414  1  0  0.061508  0  0.921791  0  0  0.073326  0  0.980401  0  0  0.074905  0  0.979625  0  0  0.114132  0.072115  0  0.981325  0
H  H14  1  0.67981337  0.49274455  0.05060604  1  0  0.118182  0  0.964063  0  0  0.136057  0  1.028521  0  0  0.139097  0  1.025931  0  0  0.09088  0.133757  0  1.030699  0
H  H15  1  0.68602402  0.31211996  0.16284604  1  0  0.12453  0  0.96566  0  0  0.142966  0  1.030343  0  0  0.144554  0  1.030731  0  0  0.096883  0.141778  0  1.030094  0
H  H16  1  0.69070930  0.45709026  0.22894911  1  0  0.128992  0  0.971719  0  0  0.150478  0  1.0303  0  0  0.152412  0  1.029945  0  0  0.094476  0.148972  0  1.030908  0
H  H17  1  0.61497360  0.42409279  0.89056593  1  0  0.29471  0  0.87512  0  0  0.278275  0  0.934517  0  0  0.286168  0  0.928884  0  0  0.315787  0.272385  0  0.939017  0
H  H18  1  0.41350825  0.46727749  0.79657664  1  0  0.30746  0  0.873884  0  0  0.29383  0  0.926799  0  0  0.30186  0  0.921088  0  0  0.311373  0.288063  0  0.930988  0
H  H19  1  0.22244142  0.92544918  0.60634255  1  0  0.428216  0  0.861263  0  0  0.399004  0  0.923397  0  0  0.409795  0  0.907615  0  0  0.292958  0.390931  0  0.935291  0
H  H20  1  0.12583266  0.45037020  0.74549470  1  0  0.430072  0  0.870995  0  0  0.396495  0  0.93975  0  0  0.407738  0  0.923675  0  0  0.291326  0.388255  0  0.951502  0
H  H21  1  0.21034240  0.92567084  0.45845824  1  0  0.436861  0  0.860408  0  0  0.405846  0  0.923787  0  0  0.417482  0  0.906833  0  0  0.291867  0.397299  0  0.936279  0
H  H22  1  0.99268197  0.74022792  0.12479436  1  0  0.099286  0  0.96743  0  0  0.105701  0  1.036786  0  0  0.109726  0  1.03286  0  0  0.107963  0.102896  0  1.039616  0
H  H23  1  0.12450822  0.57541195  0.82453916  1  0  0.422821  0  0.882147  0  0  0.386177  0  0.955337  0  0  0.398383  0  0.93761  0  0  0.286502  0.377551  0  0.967828  0
H  H24  1  0.61843800  0.11171607  0.16059072  1  0  0.118776  0  0.971979  0  0  0.123663  0  1.042818  0  0  0.128265  0  1.038767  0  0  0.107487  0.12029  0  1.045724  0
H  H25  1  0.69270240  0.07037010  0.76358272  1  0  0.109209  0  0.945761  0  0  0.120266  0  1.006205  0  0  0.124099  0  1.002855  0  0  0.110173  0.117613  0  1.008466  0
H  H26  1  0.41793572  0.22641406  0.80548708  1  0  0.082616  0  0.954919  0  0  0.097275  0  1.015939  0  0  0.097601  0  1.016697  0  0  0.115645  0.096912  0  1.015576  0
H  H27  1  0.40393246  0.25761145  0.96304627  1  0  0.08724  0  0.934603  0  0  0.101227  0  0.998469  0  0  0.102167  0  0.998498  0  0  0.116316  0.10037  0  0.998797  0
H  H28  1  0.73953982  0.31008007  0.72126105  1  0  0.079951  0  0.917894  0  0  0.092046  0  0.975827  0  0  0.093213  0  0.976396  0  0  0.119722  0.091174  0  0.975465  0
H  H29  1  0.43693019  0.35269819  0.58617124  1  0  0.118868  0  0.942813  0  0  0.13775  0  1.00744  0  0  0.139888  0  1.006433  0  0  0.093647  0.136206  0  1.008087  0
H  H30  1  0.58827729  0.43802404  0.48944254  1  0  0.129997  0  0.9489  0  0  0.152637  0  1.006698  0  0  0.154052  0  1.006827  0  0  0.099889  0.151476  0  1.006953  0
H  H31  1  0.41571228  0.54779816  0.54669849  1  0  0.122137  0  0.932818  0  0  0.14499  0  0.990216  0  0  0.146583  0  0.989584  0  0  0.095649  0.143799  0  0.990705  0
C  C32  1  0.13456982  0.18305550  0.71572854  1  0  0.633981  0  3.937667  0  0  0.582004  0  4.232801  0  0  0.616075  0  4.226815  0  0  0.197936  0.558737  0  4.235875  0
C  C33  1  0.17201496  0.09754370  0.86529521  1  0  -0.081083  0  3.802317  0  0  -0.054098  0  4.040584  0  0  -0.063662  0  4.064447  0  0  -0.024676  -0.048033  0  4.025093  0
C  C34  1  0.10744949  0.16316510  0.96046543  1  0  -0.076228  0  3.701964  0  0  -0.114523  0  3.954503  0  0  -0.111741  0  3.972738  0  0  -0.076065  -0.116669  0  3.943589  0
C  C35  1  0.15748303  0.08895019  0.09992699  1  0  -0.046081  0  3.742387  0  0  -0.019088  0  3.978561  0  0  -0.027639  0  4.00115  0  0  -0.011569  -0.013954  0  3.964334  0
C  C36  1  0.09597902  0.16424748  0.20025295  1  0  0.634643  0  3.95062  0  0  0.581861  0  4.244008  0  0  0.615698  0  4.240205  0  0  0.193914  0.558687  0  4.245616  0
C  C37  1  0.27157361  0.94750228  0.14445259  1  0  -0.076471  0  3.651369  0  0  -0.115619  0  3.903887  0  0  -0.113013  0  3.920864  0  0  -0.068687  -0.116463  0  3.891948  0
C  C38  1  0.33450777  0.88069769  0.05022842  1  0  0.042643  0  3.784313  0  0  0.066627  0  4.035292  0  0  0.062921  0  4.060571  0  0  -0.016371  0.068897  0  4.017976  0
C  C39  1  0.28483810  0.95601829  0.91092140  1  0  -0.101327  0  3.704667  0  0  -0.14021  0  3.959077  0  0  -0.138565  0  3.977922  0  0  -0.080372  -0.140706  0  3.946142  0
C  C40  1  0.45176260  0.72749910  0.09573070  1  0  0.002621  0  3.565307  0  0  -0.062478  0  3.816754  0  0  -0.058273  0  3.827179  0  0  -0.049731  -0.06537  0  3.809695  0
C  C41  1  0.43177446  0.45705167  0.13715553  1  0  0.071189  0  3.513623  0  0  0.055561  0  3.759501  0  0  0.056482  0  3.76989  0  0  0.003723  0.054564  0  3.7527  0
C  C42  1  0.63255187  0.43034966  0.14417486  1  0  -0.355998  0  3.691283  0  0  -0.440394  0  3.935555  0  0  -0.443583  0  3.944159  0  0  -0.254581  -0.437804  0  3.929873  0
C  C43  1  0.37366739  0.35181709  0.26458683  1  0  0.620046  0  3.922728  0  0  0.572302  0  4.226851  0  0  0.604351  0  4.22303  0  0  0.195768  0.550474  0  4.228695  0
C  C44  1  0.95028647  0.81640849  0.84867564  1  0  0.676042  0  3.88068  0  0  0.617801  0  4.18308  0  0  0.653101  0  4.175785  0  0  0.217546  0.593869  0  4.187102  0
C  C45  1  0.85751452  0.89920929  0.93432176  1  0  -0.071558  0  3.77528  0  0  -0.044197  0  4.011241  0  0  -0.054578  0  4.036033  0  0  -0.019744  -0.037891  0  3.995363  0
C  C46  1  0.89793081  0.84528999  0.07560274  1  0  -0.057715  0  3.710195  0  0  -0.096697  0  3.959127  0  0  -0.093289  0  3.978651  0  0  -0.072076  -0.099157  0  3.946987  0
C  C47  1  0.81652222  0.92367676  0.15631116  1  0  -0.057217  0  3.756303  0  0  -0.030306  0  3.991151  0  0  -0.040306  0  4.015054  0  0  -0.014748  -0.023992  0  3.975527  0
C  C48  1  0.87195228  0.86543192  0.30675445  1  0  0.639935  0  3.914803  0  0  0.588419  0  4.204968  0  0  0.622673  0  4.20028  0  0  0.197993  0.565047  0  4.207269  0
C  C49  1  0.68809381  0.05600666  0.09533817  1  0  -0.086995  0  3.642097  0  0  -0.122553  0  3.889414  0  0  -0.120771  0  3.908226  0  0  -0.070625  -0.1228  0  3.876167  0
C  C50  1  0.64510447  0.11094847  0.95324214  1  0  0.046651  0  3.750579  0  0  0.071551  0  3.997275  0  0  0.066955  0  4.02342  0  0  -0.018176  0.074353  0  3.979307  0
C  C51  1  0.72948190  0.03203635  0.87368467  1  0  -0.095123  0  3.680147  0  0  -0.132082  0  3.930017  0  0  -0.129872  0  3.948705  0  0  -0.075343  -0.132835  0  3.916993  0
C  C52  1  0.49423994  0.24345678  0.88806437  1  0  -0.011781  0  3.590154  0  0  -0.078573  0  3.842333  0  0  -0.074136  0  3.853959  0  0  -0.057578  -0.081576  0  3.834559  0
C  C53  1  0.63512479  0.41187819  0.70164924  1  0  0.061511  0  3.526932  0  0  0.045349  0  3.770306  0  0  0.045083  0  3.782349  0  0  0.007481  0.045528  0  3.761898  0
C  C54  1  0.51083591  0.44010083  0.57404968  1  0  -0.323895  0  3.662305  0  0  -0.411996  0  3.910263  0  0  -0.413424  0  3.918204  0  0  -0.245025  -0.410521  0  3.904598  0
C  C55  1  0.73387914  0.53513439  0.70054814  1  0  0.641319  0  3.883087  0  0  0.589756  0  4.190312  0  0  0.622745  0  4.184319  0  0  0.2095  0.567304  0  4.193554  0
N  N56  1  0.33930455  0.61487538  0.12149584  1  0  -0.302775  0  3.256861  0  0  -0.239443  0  3.46894  0  0  -0.253846  0  3.475526  0  0  -0.469147  -0.229421  0  3.464521  0
N  N57  1  0.53829244  0.39141157  0.82523998  1  0  -0.302891  0  3.306608  0  0  -0.240265  0  3.514435  0  0  -0.25468  0  3.523093  0  0  -0.47664  -0.230177  0  3.508631  0
O  O58  1  0.17028360  0.11157326  0.63214014  1  0  -0.665038  0  2.027088  0  0  -0.591713  0  2.26809  0  0  -0.62225  0  2.256296  0  0  -0.322036  -0.568957  0  2.276628  0
O  O59  1  0.07357377  0.32237531  0.67710965  1  0  -0.649066  0  1.99645  0  0  -0.59182  0  2.230903  0  0  -0.618269  0  2.222459  0  0  -0.318328  -0.572264  0  2.235489  0
O  O60  1  0.02705779  0.30160387  0.15834968  1  0  -0.617586  0  1.906555  0  0  -0.562191  0  2.130186  0  0  -0.589199  0  2.123446  0  0  -0.324052  -0.542395  0  2.134009  0
O  O61  1  0.11954339  0.08448740  0.32721484  1  0  -0.687509  0  2.089577  0  0  -0.614562  0  2.334936  0  0  -0.646793  0  2.325262  0  0  -0.326819  -0.589967  0  2.341172  0
O  O62  1  0.43765807  0.21678856  0.29341859  1  0  -0.581934  0  1.923967  0  0  -0.541147  0  2.143011  0  0  -0.563258  0  2.13553  0  0  -0.31723  -0.525629  0  2.147499  0
O  O63  1  0.26113648  0.41722060  0.32637578  1  0  -0.676831  0  1.988528  0  0  -0.610257  0  2.233285  0  0  -0.640233  0  2.221385  0  0  -0.338858  -0.589028  0  2.240727  0
O  O64  1  0.87140972  0.50352796  0.37897637  1  0  -0.833393  0  1.89195  0  0  -0.769324  0  2.091311  0  0  -0.794593  0  2.05643  0  0  -0.578251  -0.750819  0  2.115873  0
O  O65  1  0.80235659  0.16557304  0.49759713  1  0  -0.827696  0  1.78534  0  0  -0.769664  0  1.967386  0  0  -0.791604  0  1.936995  0  0  -0.580342  -0.754429  0  1.989164  0
O  O66  1  0.90433882  0.87318009  0.72017854  1  0  -0.664163  0  2.056746  0  0  -0.592961  0  2.312326  0  0  -0.623073  0  2.29903  0  0  -0.319512  -0.570889  0  2.321492  0
O  O67  1  0.06863599  0.69720634  0.90712048  1  0  -0.638072  0  1.994994  0  0  -0.576102  0  2.217301  0  0  -0.602121  0  2.206652  0  0  -0.313873  -0.557738  0  2.223901  0
O  O68  1  0.99991389  0.74759780  0.35309565  1  0  -0.680405  0  1.975621  0  0  -0.610883  0  2.211773  0  0  -0.641029  0  2.200425  0  0  -0.336607  -0.588685  0  2.218418  0
O  O69  1  0.79682455  0.93087102  0.38313919  1  0  -0.616528  0  1.953105  0  0  -0.557177  0  2.181281  0  0  -0.584225  0  2.171129  0  0  -0.311474  -0.536935  0  2.1882  0
O  O70  1  0.75364751  0.56311130  0.80904315  1  0  -0.602763  0  1.898823  0  0  -0.562221  0  2.113484  0  0  -0.584676  0  2.105103  0  0  -0.326075  -0.546637  0  2.118883  0
O  O71  1  0.79238060  0.59455966  0.58827180  1  0  -0.65901  0  2.088901  0  0  -0.580614  0  2.329426  0  0  -0.612137  0  2.318348  0  0  -0.319847  -0.558306  0  2.336513  0
O  O72  1  0.17822506  0.53347436  0.75475144  1  0  -0.840065  0  1.887423  0  0  -0.772469  0  2.078079  0  0  -0.797391  0  2.044024  0  0  -0.567364  -0.754416  0  2.102306  0
O  O73  1  0.23315116  0.85572926  0.55428867  1  0  -0.832991  0  1.796352  0  0  -0.774259  0  1.968978  0  0  -0.796949  0  1.934122  0  0  -0.591881  -0.758344  0  1.99469  0
