# generated using pymatgen
data_CuH11C13N3O4
_symmetry_space_group_name_H-M   'P 1'
_cell_length_a   10.84203044
_cell_length_b   12.61407987
_cell_length_c   14.19416572
_cell_angle_alpha   89.99974260
_cell_angle_beta   110.06595779
_cell_angle_gamma   89.99995569
_symmetry_Int_Tables_number   1
_chemical_formula_structural   CuH11C13N3O4
_chemical_formula_sum   'Cu4 H44 C52 N12 O16'
_cell_volume   1823.39010306
_cell_formula_units_Z   4
loop_
 _symmetry_equiv_pos_site_id
 _symmetry_equiv_pos_as_xyz
  1  'x, y, z'
loop_
 _atom_site_type_symbol
 _atom_site_label
 _atom_site_symmetry_multiplicity
 _atom_site_fract_x
 _atom_site_fract_y
 _atom_site_fract_z
 _atom_site_occupancy
 _atom_site_pbe_bader_charge
 _atom_site_pbe_bader_spin_density
 _atom_site_pbe_cm5_charge
 _atom_site_pbe_ddec_charge
 _atom_site_pbe_ddec_spin_density
 _atom_site_pbe_ddec_sum_bond_order
 _atom_site_pbe_magmom
Cu  Cu0  1  0.09779708  0.56668840  0.52890867  1  1.095328  0.589964  0.693796  0.78068  0.743035  2.395674  0.591
Cu  Cu1  1  0.90223135  0.06666322  0.97109657  1  1.09278  0.589896  0.693802  0.780756  0.743081  2.395749  0.591
Cu  Cu2  1  0.90221794  0.43333888  0.47109355  1  1.09288  0.58986  0.693719  0.780768  0.74303  2.395234  0.591
Cu  Cu3  1  0.09781116  0.93331411  0.02891288  1  1.095287  0.589976  0.693881  0.780668  0.743058  2.396122  0.591
H  H4  1  0.01694369  0.25965128  0.24947827  1  0.155641  0.000611  0.122123  0.140868  0.000471  0.970558  0.0
H  H5  1  0.98305356  0.75964620  0.25051272  1  0.155639  0.000611  0.122175  0.140927  0.000471  0.970511  0.0
H  H6  1  0.98305072  0.74034745  0.75051290  1  0.155705  0.000611  0.122158  0.140885  0.000471  0.970543  0.0
H  H7  1  0.01695361  0.24035253  0.74948602  1  0.155708  0.000611  0.12217  0.140909  0.000471  0.970582  0.0
H  H8  1  0.37999351  0.14361024  0.22916991  1  0.083154  0.000297  0.113701  0.124496  0.000205  0.997775  0.0
H  H9  1  0.62000701  0.64361244  0.27083157  1  0.083109  0.000297  0.113698  0.124472  0.000205  0.997847  0.0
H  H10  1  0.62000775  0.85638928  0.77083362  1  0.083001  0.000297  0.113713  0.124482  0.000205  0.997993  0.0
H  H11  1  0.37999328  0.35639501  0.72916467  1  0.083037  0.000298  0.113767  0.124556  0.000205  0.997882  0.0
H  H12  1  0.38406254  0.38711537  0.44449167  1  0.112327  0.000337  0.11235  0.124246  0.000248  0.996879  0.0
H  H13  1  0.61592939  0.88712025  0.05550940  1  0.112289  0.000337  0.112359  0.124206  0.000248  0.996837  0.0
H  H14  1  0.61592202  0.61287702  0.55551523  1  0.112268  0.000337  0.112396  0.124315  0.000248  0.996824  0.0
H  H15  1  0.38408171  0.11288324  0.94448827  1  0.112366  0.000337  0.112341  0.124283  0.000248  0.996866  0.0
H  H16  1  0.57854593  0.43339553  0.36850956  1  0.124981  -6e-05  0.144629  0.118321  -6.6e-05  0.973796  0.0
H  H17  1  0.42143899  0.93339936  0.13148243  1  0.125017  -6e-05  0.144633  0.118331  -6.7e-05  0.973974  0.0
H  H18  1  0.42144061  0.56660003  0.63148235  1  0.125033  -6e-05  0.144617  0.11829  -6.6e-05  0.973825  0.0
H  H19  1  0.57855149  0.06660175  0.86850911  1  0.12496  -6e-05  0.14466  0.118346  -6.6e-05  0.973852  0.0
H  H20  1  0.48981346  0.05098402  0.36007763  1  0.034194  2e-06  0.096884  0.096993  -4e-06  1.010395  0.0
H  H21  1  0.51018045  0.55098299  0.13993445  1  0.034405  2e-06  0.096856  0.096873  -4e-06  1.010457  0.0
H  H22  1  0.51017697  0.94901789  0.63993644  1  0.03441  2e-06  0.096861  0.096881  -4e-06  1.010461  0.0
H  H23  1  0.48981393  0.44901575  0.86007009  1  0.034617  2e-06  0.096856  0.096917  -4e-06  1.01037  0.0
H  H24  1  0.57625940  0.06000374  0.48927873  1  0.045171  1.2e-05  0.103712  0.11062  7e-06  0.978675  0.0
H  H25  1  0.42374825  0.56000501  0.01073129  1  0.045263  1.2e-05  0.103703  0.11059  6e-06  0.978534  0.0
H  H26  1  0.42374479  0.93999420  0.51073332  1  0.045228  1.2e-05  0.10371  0.110608  7e-06  0.978525  0.0
H  H27  1  0.57625596  0.43999373  0.98927231  1  0.045276  1.2e-05  0.103714  0.110579  7e-06  0.978556  0.0
H  H28  1  0.69476194  0.99241615  0.33056850  1  0.00973  -6e-06  0.087643  0.076475  -6e-06  0.97814  0.0
H  H29  1  0.30522476  0.49241351  0.16942936  1  0.009487  -6e-06  0.087642  0.076516  -6e-06  0.978153  0.0
H  H30  1  0.30521674  0.00758576  0.66942769  1  0.009524  -6e-06  0.087651  0.076467  -6e-06  0.978173  0.0
H  H31  1  0.69476080  0.50758760  0.83056511  1  0.009655  -6e-06  0.087643  0.076479  -6e-06  0.978258  0.0
H  H32  1  0.78594982  0.01031483  0.45836669  1  0.070512  -4e-06  0.099566  0.09788  0.0  0.966312  0.0
H  H33  1  0.21404720  0.51031766  0.04162806  1  0.070535  -3e-06  0.099629  0.097987  0.0  0.966487  0.0
H  H34  1  0.21404458  0.98968153  0.54162941  1  0.070461  -3e-06  0.099632  0.097961  0.0  0.966535  0.0
H  H35  1  0.78594720  0.48968345  0.95836170  1  0.070564  -3e-06  0.099555  0.097867  1e-06  0.966344  0.0
H  H36  1  0.65017671  0.86992006  0.50471086  1  0.006319  -3e-06  0.079477  0.104332  -1.2e-05  1.036369  0.0
H  H37  1  0.34982231  0.36992447  0.99528826  1  0.006327  -3e-06  0.079441  0.104266  -1.2e-05  1.036398  0.0
H  H38  1  0.34982162  0.13006995  0.49528697  1  0.006334  -2e-06  0.07944  0.104274  -1.2e-05  1.036378  0.0
H  H39  1  0.65017798  0.63007427  0.00471079  1  0.006325  -3e-06  0.079465  0.104331  -1.2e-05  1.036372  0.0
H  H40  1  0.72751188  0.81841431  0.42311158  1  0.025469  -2.6e-05  0.08663  0.122149  -3.8e-05  1.007766  0.0
H  H41  1  0.27248321  0.31841454  0.07688355  1  0.025428  -2.6e-05  0.086642  0.122142  -3.8e-05  1.007782  0.0
H  H42  1  0.27247958  0.18158601  0.57688093  1  0.025392  -2.6e-05  0.086623  0.122126  -3.8e-05  1.007769  0.0
H  H43  1  0.72751413  0.68158578  0.92311191  1  0.025451  -2.6e-05  0.086628  0.122145  -3.8e-05  1.007732  0.0
H  H44  1  0.55756774  0.85044932  0.37584070  1  0.004213  -1e-05  0.077543  0.099923  -1e-05  1.01363  0.0
H  H45  1  0.44242627  0.35044920  0.12415895  1  0.004262  -1e-05  0.077529  0.099943  -1e-05  1.013502  0.0
H  H46  1  0.44242567  0.14954465  0.62415866  1  0.004281  -1e-05  0.077586  0.100005  -1e-05  1.013581  0.0
H  H47  1  0.55756812  0.64955191  0.87584137  1  0.004219  -1e-05  0.077546  0.099941  -1e-05  1.013615  0.0
C  C48  1  0.12173943  0.39927579  0.40162439  1  1.57205  -0.001869  0.213932  0.574187  -0.002217  4.170753  -0.004
C  C49  1  0.87826525  0.89927076  0.09836801  1  1.571288  -0.00187  0.213998  0.574277  -0.002216  4.170826  -0.004
C  C50  1  0.87825497  0.60072850  0.59837171  1  1.571812  -0.001867  0.213907  0.574168  -0.002216  4.170673  -0.004
C  C51  1  0.12175272  0.10072005  0.90163217  1  1.572013  -0.001867  0.21403  0.574308  -0.002216  4.170414  -0.004
C  C52  1  0.19362536  0.33091736  0.35105561  1  -0.0773  0.017376  -0.004871  0.00353  0.011944  3.957035  0.014
C  C53  1  0.80637855  0.83092005  0.14893122  1  -0.077586  0.017373  -0.004921  0.003385  0.01194  3.957061  0.014
C  C54  1  0.80637001  0.66908058  0.64894427  1  -0.077165  0.017376  -0.00491  0.003567  0.011944  3.956941  0.014
C  C55  1  0.19362863  0.16907472  0.85105908  1  -0.077228  0.01737  -0.004939  0.003458  0.01194  3.957048  0.014
C  C56  1  0.12373657  0.26139843  0.27474597  1  -0.013197  0.002225  -0.060182  -0.090461  0.001332  3.868141  0.001
C  C57  1  0.87625870  0.76140307  0.22524380  1  -0.01339  0.002224  -0.060241  -0.090555  0.001332  3.868259  0.001
C  C58  1  0.87625586  0.73859713  0.72525243  1  -0.013218  0.002222  -0.060204  -0.090538  0.001331  3.868231  0.001
C  C59  1  0.12374158  0.23859804  0.77475666  1  -0.013232  0.002222  -0.060245  -0.090545  0.00133  3.867938  0.001
C  C60  1  0.19156618  0.19378043  0.23168804  1  0.03116  0.016932  -0.005  0.002613  0.011767  3.968072  0.013
C  C61  1  0.80842929  0.69379520  0.26830769  1  0.032012  0.016934  -0.00486  0.002852  0.011771  3.967893  0.013
C  C62  1  0.80843115  0.80621513  0.76831658  1  0.031271  0.016932  -0.004985  0.002613  0.011768  3.968075  0.013
C  C63  1  0.19158375  0.30622177  0.73170106  1  0.031805  0.016937  -0.004834  0.002944  0.011772  3.96783  0.013
C  C64  1  0.32867287  0.19537217  0.26475424  1  0.026838  0.000866  -0.076065  -0.180131  0.000341  3.962158  0.001
C  C65  1  0.67131473  0.69537927  0.23524364  1  0.026628  0.000865  -0.076167  -0.180202  0.00034  3.962042  0.001
C  C66  1  0.67132445  0.80462498  0.73525249  1  0.026649  0.000864  -0.076149  -0.180175  0.000339  3.962269  0.001
C  C67  1  0.32868260  0.30463056  0.76475675  1  0.026527  0.000863  -0.07625  -0.180484  0.000338  3.962791  0.001
C  C68  1  0.39767559  0.26478011  0.34104013  1  0.252019  0.001567  0.093127  0.165738  0.000914  4.057817  0.001
C  C69  1  0.60231671  0.76478764  0.15895941  1  0.252168  0.001566  0.093178  0.165567  0.000914  4.057998  0.001
C  C70  1  0.60231977  0.73521545  0.65896609  1  0.252218  0.001566  0.093231  0.165724  0.000914  4.057682  0.001
C  C71  1  0.39768947  0.23521981  0.84103837  1  0.25212  0.001567  0.09316  0.165818  0.000914  4.057806  0.001
C  C72  1  0.33094333  0.33341761  0.38408014  1  0.037536  0.000939  -0.076141  -0.17705  0.000532  3.938329  0.001
C  C73  1  0.66905662  0.83342294  0.11591761  1  0.037554  0.000938  -0.076107  -0.176861  0.000532  3.938159  0.001
C  C74  1  0.66904614  0.66657637  0.61592452  1  0.037586  0.000937  -0.076148  -0.177045  0.00053  3.93816  0.001
C  C75  1  0.33094859  0.16658214  0.88407639  1  0.03761  0.000937  -0.076045  -0.177021  0.000531  3.938175  0.001
C  C76  1  0.11935074  0.11961909  0.14870214  1  1.572803  -0.001787  0.21368  0.572338  -0.002206  4.17453  -0.004
C  C77  1  0.88064790  0.61963101  0.35129753  1  1.571777  -0.001784  0.213745  0.572385  -0.002206  4.174797  -0.004
C  C78  1  0.88064758  0.88037885  0.85129922  1  1.572216  -0.001788  0.21366  0.572325  -0.002206  4.174438  -0.004
C  C79  1  0.11936122  0.38038675  0.64870877  1  1.572203  -0.00178  0.213534  0.571989  -0.002205  4.174918  -0.004
C  C80  1  0.61549906  0.35335158  0.38650191  1  0.95248  -0.000859  0.151286  0.081293  -0.001017  3.93554  -0.001
C  C81  1  0.38449199  0.85335790  0.11349413  1  0.952304  -0.000861  0.151148  0.081049  -0.00102  3.935693  -0.001
C  C82  1  0.38449043  0.64664636  0.61349360  1  0.952505  -0.00086  0.151279  0.081246  -0.001019  3.935742  -0.001
C  C83  1  0.61550633  0.14664241  0.88650229  1  0.95236  -0.00086  0.151192  0.081188  -0.001019  3.935716  -0.001
C  C84  1  0.62452335  0.18088473  0.40555109  1  0.925678  0.000174  0.22354  0.263571  0.000131  3.938729  0.0
C  C85  1  0.37546920  0.68088561  0.09445025  1  0.925937  0.000174  0.223508  0.263294  0.000131  3.938966  0.0
C  C86  1  0.37547005  0.81911559  0.59445460  1  0.925568  0.000174  0.223533  0.263423  0.000131  3.938806  0.0
C  C87  1  0.62453305  0.31911868  0.90554861  1  0.92579  0.000175  0.223523  0.263493  0.000132  3.938643  0.0
C  C88  1  0.58722274  0.06853328  0.41515451  1  0.027256  -3.8e-05  -0.149981  -0.237217  -4.3e-05  3.974458  0.0
C  C89  1  0.41277310  0.56853656  0.08485237  1  0.026655  -3.7e-05  -0.149931  -0.236941  -4.2e-05  3.974208  0.0
C  C90  1  0.41277163  0.93146624  0.58485426  1  0.027077  -3.8e-05  -0.149955  -0.237006  -4.3e-05  3.974221  0.0
C  C91  1  0.58722424  0.43146217  0.91514872  1  0.026671  -3.6e-05  -0.149945  -0.236993  -4.2e-05  3.974301  0.0
C  C92  1  0.68845823  0.98792177  0.40629912  1  -0.004273  -2e-06  -0.160065  -0.078946  -0.0  3.948304  0.0
C  C93  1  0.31153241  0.48792268  0.09369979  1  -0.004072  -3e-06  -0.160195  -0.079278  -1e-06  3.948524  0.0
C  C94  1  0.31152732  0.01207617  0.59369887  1  -0.003984  -2e-06  -0.160158  -0.079146  -0.0  3.948631  0.0
C  C95  1  0.68845610  0.51207843  0.90629475  1  -0.004279  -4e-06  -0.160107  -0.07907  -2e-06  3.948439  0.0
C  C96  1  0.65390255  0.87557901  0.42845667  1  -0.031224  -1.7e-05  -0.24897  -0.353572  -4.3e-05  3.968772  0.0
C  C97  1  0.34609138  0.37557843  0.07154075  1  -0.031135  -1.7e-05  -0.248918  -0.353455  -4.4e-05  3.96852  0.0
C  C98  1  0.34609184  0.12442210  0.57154225  1  -0.031261  -1.8e-05  -0.248965  -0.353514  -4.4e-05  3.968593  0.0
C  C99  1  0.65390400  0.62442268  0.92845772  1  -0.031203  -1.7e-05  -0.248941  -0.353545  -4.3e-05  3.968651  0.0
N  N100  1  0.73970190  0.32504420  0.42031620  1  -0.72143  -0.001582  -0.243653  -0.172489  -0.000844  3.48879  0.0
N  N101  1  0.26028433  0.82504364  0.07967798  1  -0.721415  -0.00158  -0.243659  -0.172368  -0.000841  3.489064  0.0
N  N102  1  0.26028857  0.67495691  0.57967464  1  -0.721492  -0.001581  -0.243701  -0.172487  -0.000841  3.489092  0.0
N  N103  1  0.73971497  0.17495351  0.92032434  1  -0.721459  -0.001579  -0.243685  -0.17254  -0.000841  3.488956  0.0
N  N104  1  0.74615885  0.21666290  0.43263134  1  -0.641705  -0.000283  -0.225052  -0.237225  -0.000301  3.125885  0.0
N  N105  1  0.25382967  0.71666557  0.06736881  1  -0.641797  -0.000285  -0.22497  -0.237038  -0.000303  3.126009  0.0
N  N106  1  0.25383358  0.78333980  0.56736635  1  -0.641849  -0.000284  -0.225  -0.237084  -0.000302  3.125918  0.0
N  N107  1  0.74617650  0.28333237  0.93263813  1  -0.641813  -0.000285  -0.224945  -0.237081  -0.000303  3.125796  0.0
N  N108  1  0.53763611  0.26551408  0.37525551  1  -1.259163  0.000187  -0.22117  -0.078692  7.3e-05  3.752521  0.0
N  N109  1  0.46235718  0.76551950  0.12474429  1  -1.258999  0.000187  -0.221137  -0.078339  7.3e-05  3.752351  0.0
N  N110  1  0.46235827  0.73448386  0.62475186  1  -1.259126  0.000187  -0.221222  -0.078569  7.2e-05  3.752398  0.0
N  N111  1  0.53764705  0.23448558  0.87524805  1  -1.259123  0.000188  -0.221197  -0.078644  7.3e-05  3.75256  0.0
O  O112  1  0.18265607  0.48038263  0.44863267  1  -1.111212  0.097954  -0.317491  -0.525566  0.061586  2.338157  0.089
O  O113  1  0.81735524  0.98037392  0.05135339  1  -1.111087  0.097942  -0.317469  -0.525561  0.061577  2.338541  0.089
O  O114  1  0.81733146  0.51962958  0.55135316  1  -1.111162  0.097967  -0.317411  -0.525535  0.061593  2.338356  0.089
O  O115  1  0.18268335  0.01961213  0.94865291  1  -1.111481  0.097977  -0.317575  -0.525698  0.0616  2.338097  0.089
O  O116  1  0.00726760  0.36842302  0.39457616  1  -1.09742  0.089712  -0.30551  -0.505466  0.056321  2.341134  0.082
O  O117  1  0.99275190  0.86841550  0.10542378  1  -1.096518  0.089721  -0.305662  -0.505554  0.056326  2.341111  0.082
O  O118  1  0.99273268  0.63157334  0.60542783  1  -1.097321  0.089693  -0.305533  -0.505459  0.056307  2.341034  0.082
O  O119  1  0.00727687  0.13155945  0.89457924  1  -1.097181  0.089679  -0.3056  -0.505479  0.056298  2.34125  0.082
O  O120  1  0.18116842  0.03598477  0.14057559  1  -1.108477  0.094921  -0.316439  -0.526779  0.059778  2.348497  0.086
O  O121  1  0.81884129  0.53600145  0.35942239  1  -1.108067  0.094918  -0.316532  -0.52681  0.059775  2.348591  0.086
O  O122  1  0.81883874  0.96400445  0.85942879  1  -1.108199  0.094913  -0.316441  -0.526675  0.059771  2.348614  0.086
O  O123  1  0.18117570  0.46401155  0.64057472  1  -1.108095  0.094926  -0.316379  -0.526672  0.059783  2.348623  0.086
O  O124  1  0.00462588  0.14740092  0.09364710  1  -1.098235  0.092523  -0.303005  -0.496735  0.058117  2.339424  0.084
O  O125  1  0.99537367  0.64741645  0.40634636  1  -1.09807  0.092528  -0.302968  -0.49678  0.05812  2.33934  0.084
O  O126  1  0.99538817  0.85259464  0.90634571  1  -1.097787  0.092524  -0.302948  -0.496751  0.058118  2.338891  0.084
O  O127  1  0.00463445  0.35260606  0.59366744  1  -1.098277  0.092501  -0.30294  -0.496588  0.058106  2.339183  0.084
