# generated using pymatgen
data_Dy2H18C8S3(NO9)2
_symmetry_space_group_name_H-M   'P 1'
_cell_length_a   6.57723597
_cell_length_b   12.32695978
_cell_length_c   12.95200000
_cell_angle_alpha   76.32380600
_cell_angle_beta   76.00504907
_cell_angle_gamma   74.66443179
_symmetry_Int_Tables_number   1
_chemical_formula_structural   Dy2H18C8S3(NO9)2
_chemical_formula_sum   'Dy4 H36 C16 S6 N4 O36'
_cell_volume   965.82629926
_cell_formula_units_Z   2
loop_
 _symmetry_equiv_pos_site_id
 _symmetry_equiv_pos_as_xyz
  1  'x, y, z'
loop_
 _atom_site_type_symbol
 _atom_site_label
 _atom_site_symmetry_multiplicity
 _atom_site_fract_x
 _atom_site_fract_y
 _atom_site_fract_z
 _atom_site_occupancy
 _atom_site_hle17_bader_spin_density
 _atom_site_hle17_ddec_charge
 _atom_site_hle17_ddec_spin_density
 _atom_site_hle17_ddec_sum_bond_order
 _atom_site_hle17_magmom
 _atom_site_hse06_10hf_bader_spin_density
 _atom_site_hse06_10hf_ddec_charge
 _atom_site_hse06_10hf_ddec_spin_density
 _atom_site_hse06_10hf_ddec_sum_bond_order
 _atom_site_hse06_10hf_magmom
 _atom_site_hse06_bader_spin_density
 _atom_site_hse06_ddec_charge
 _atom_site_hse06_ddec_spin_density
 _atom_site_hse06_ddec_sum_bond_order
 _atom_site_hse06_magmom
 _atom_site_pbe_bader_charge
 _atom_site_pbe_bader_spin_density
 _atom_site_pbe_cm5_charge
 _atom_site_pbe_ddec_charge
 _atom_site_pbe_ddec_spin_density
 _atom_site_pbe_ddec_sum_bond_order
 _atom_site_pbe_magmom
Dy  Dy0  1  0.38773379  0.96418249  0.86025615  1  0  2.306835  0  1.619983  0  0  2.247608  0  1.945135  0  0  2.290655  0  1.904602  0  2.19989  0  1.547596  2.144839  0  2.106656  0
Dy  Dy1  1  0.61225930  0.03581538  0.13974804  1  0  2.306787  0  1.620035  0  0  2.247553  0  1.945193  0  0  2.290601  0  1.90466  0  2.199854  0  1.547604  2.144764  0  2.106755  0
Dy  Dy2  1  0.72126003  0.55549447  0.63285935  1  0  2.311856  0  1.619882  0  0  2.250285  0  1.944672  0  0  2.293672  0  1.90429  0  2.19768  0  1.54676  2.146546  0  2.107707  0
Dy  Dy3  1  0.27874490  0.44450512  0.36713681  1  0  2.311824  0  1.619909  0  0  2.250282  0  1.944687  0  0  2.29367  0  1.904312  0  2.197794  0  1.546823  2.146508  0  2.10777  0
H  H4  1  0.74941202  0.19735947  0.63644351  1  0  0.145177  0  0.939609  0  0  0.150648  0  1.005056  0  0  0.154116  0  1.003144  0  0.144137  0  0.129778  0.147784  0  1.007433  0
H  H5  1  0.25059164  0.80264697  0.36355359  1  0  0.145171  0  0.939572  0  0  0.150637  0  1.004998  0  0  0.154099  0  1.00309  0  0.144261  0  0.129732  0.147769  0  1.007378  0
H  H6  1  0.63124813  0.25256144  0.51827999  1  0  0.158344  0  0.925038  0  0  0.167058  0  0.984259  0  0  0.170713  0  0.981978  0  0.172938  0  0.137245  0.164418  0  0.985955  0
H  H7  1  0.36875781  0.74744328  0.48171644  1  0  0.158325  0  0.925048  0  0  0.167081  0  0.984195  0  0  0.170726  0  0.981923  0  0.17309  0  0.13724  0.164439  0  0.985892  0
H  H8  1  0.99992086  0.02312578  0.64521081  1  0  0.110034  0  0.917315  0  0  0.120816  0  0.979156  0  0  0.122601  0  0.978077  0  0.118763  0  0.129785  0.119278  0  0.980208  0
H  H9  1  0.00007552  0.97687552  0.35479066  1  0  0.110059  0  0.917372  0  0  0.120844  0  0.979193  0  0  0.122623  0  0.978116  0  0.118782  0  0.129813  0.119306  0  0.980242  0
H  H10  1  0.18094992  0.11081475  0.56748740  1  0  0.127843  0  0.915149  0  0  0.142735  0  0.967355  0  0  0.144536  0  0.966619  0  0.155557  0  0.134101  0.141022  0  0.968551  0
H  H11  1  0.81904802  0.88918655  0.43251542  1  0  0.127872  0  0.915155  0  0  0.14273  0  0.967387  0  0  0.144527  0  0.96665  0  0.154643  0  0.134084  0.141018  0  0.968581  0
H  H12  1  0.65955029  0.09648021  0.44072082  1  0  0.125723  0  0.931929  0  0  0.13866  0  0.98778  0  0  0.140423  0  0.987191  0  0.159682  0  0.130081  0.137032  0  0.98866  0
H  H13  1  0.34045079  0.90352109  0.55927929  1  0  0.125765  0  0.931914  0  0  0.138716  0  0.987725  0  0  0.14048  0  0.987135  0  0.159683  0  0.130083  0.137084  0  0.988605  0
H  H14  1  0.69337558  0.01443125  0.57205963  1  0  0.121587  0  0.922416  0  0  0.134859  0  0.981833  0  0  0.136721  0  0.980961  0  0.14094  0  0.128546  0.133364  0  0.982531  0
H  H15  1  0.30662202  0.98557090  0.42794150  1  0  0.121603  0  0.922432  0  0  0.134831  0  0.981876  0  0  0.136692  0  0.981006  0  0.140866  0  0.128528  0.133335  0  0.982571  0
H  H16  1  0.08144056  0.33635376  0.89646775  1  0  0.136056  0  0.933828  0  0  0.142449  0  0.999795  0  0  0.145639  0  0.997986  0  0.150239  0  0.125791  0.139891  0  1.001887  0
H  H17  1  0.91856714  0.66364669  0.10353251  1  0  0.135996  0  0.933853  0  0  0.142421  0  0.999797  0  0  0.145613  0  0.997984  0  0.150228  0  0.125783  0.139872  0  1.001891  0
H  H18  1  0.90285584  0.27841650  0.01199614  1  0  0.154993  0  0.908248  0  0  0.167254  0  0.962577  0  0  0.170466  0  0.960767  0  0.160922  0  0.136394  0.164702  0  0.964554  0
H  H19  1  0.09714645  0.72158565  0.98800131  1  0  0.154956  0  0.908284  0  0  0.167239  0  0.962604  0  0  0.170451  0  0.960798  0  0.160897  0  0.136398  0.164694  0  0.964584  0
H  H20  1  0.76965318  0.38919445  0.13838974  1  0  0.122394  0  0.921695  0  0  0.134898  0  0.979237  0  0  0.13687  0  0.978142  0  0.119928  0  0.13145  0.133329  0  0.98007  0
H  H21  1  0.23034668  0.61080599  0.86161149  1  0  0.122396  0  0.921688  0  0  0.134913  0  0.9792  0  0  0.136885  0  0.978106  0  0.119933  0  0.131454  0.133343  0  0.980033  0
H  H22  1  0.91029085  0.48411874  0.16041653  1  0  0.111554  0  0.94761  0  0  0.119763  0  1.014189  0  0  0.122247  0  1.012618  0  0.12315  0  0.124871  0.117635  0  1.015669  0
H  H23  1  0.08970937  0.51588084  0.83958407  1  0  0.111554  0  0.947566  0  0  0.119765  0  1.014143  0  0  0.122249  0  1.012572  0  0.123175  0  0.124859  0.117637  0  1.015623  0
H  H24  1  0.37880712  0.40886861  0.94621285  1  0  0.119078  0  0.916985  0  0  0.133715  0  0.971286  0  0  0.1355  0  0.970501  0  0.12724  0  0.128758  0.132015  0  0.972468  0
H  H25  1  0.62119467  0.59113098  0.05378834  1  0  0.119081  0  0.917035  0  0  0.13371  0  0.971316  0  0  0.135494  0  0.970531  0  0.127217  0  0.12877  0.132009  0  0.972495  0
H  H26  1  0.26764806  0.49609115  0.04656874  1  0  0.106754  0  0.909057  0  0  0.119669  0  0.968922  0  0  0.121097  0  0.968558  0  0.120311  0  0.12737  0.118455  0  0.969448  0
H  H27  1  0.73235180  0.50390929  0.95343171  1  0  0.106784  0  0.909025  0  0  0.11968  0  0.968885  0  0  0.121109  0  0.96852  0  0.120342  0  0.127383  0.118466  0  0.969411  0
H  H28  1  0.99122096  0.15545817  0.42423590  1  0  0.294672  0  0.810945  0  0  0.283472  0  0.858323  0  0  0.290374  0  0.853785  0  0.500488  0  0.340745  0.278173  0  0.862325  0
H  H29  1  0.00878240  0.84454141  0.57576432  1  0  0.294641  0  0.810849  0  0  0.283443  0  0.858249  0  0  0.290345  0  0.85371  0  0.500403  0  0.340721  0.278144  0  0.862253  0
H  H30  1  0.16272763  0.32928534  0.10970931  1  0  0.303762  0  0.85343  0  0  0.287959  0  0.907485  0  0  0.296301  0  0.901318  0  0.524714  0  0.326237  0.281502  0  0.912809  0
H  H31  1  0.83727067  0.67071511  0.89029289  1  0  0.303795  0  0.853391  0  0  0.287996  0  0.907439  0  0  0.296337  0  0.901272  0  0.524733  0  0.326247  0.281539  0  0.912761  0
H  H32  1  0.77281909  0.34066721  0.79201680  1  0  0.447758  0  0.839488  0  0  0.419437  0  0.898431  0  0  0.429856  0  0.883223  0  0.630738  0  0.302958  0.411783  0  0.909458  0
H  H33  1  0.22717992  0.65933152  0.20798106  1  0  0.447788  0  0.839459  0  0  0.419434  0  0.898449  0  0  0.429861  0  0.883229  0  0.630739  0  0.302957  0.411778  0  0.909479  0
H  H34  1  0.53880765  0.37729650  0.77647445  1  0  0.422035  0  0.891536  0  0  0.388888  0  0.960705  0  0  0.399622  0  0.945047  0  0.637221  0  0.293699  0.381445  0  0.971212  0
H  H35  1  0.46119151  0.62270565  0.22352262  1  0  0.422025  0  0.891529  0  0  0.388866  0  0.960719  0  0  0.399598  0  0.945063  0  0.637204  0  0.293688  0.381425  0  0.971222  0
H  H36  1  0.37840542  0.18563183  0.71771428  1  0  0.444219  0  0.845719  0  0  0.414819  0  0.909013  0  0  0.42504  0  0.894054  0  0.644834  0  0.302387  0.407369  0  0.919755  0
H  H37  1  0.62158888  0.81436690  0.28228725  1  0  0.444214  0  0.845787  0  0  0.4148  0  0.909056  0  0  0.425022  0  0.894096  0  0.64479  0  0.302388  0.407352  0  0.919795  0
H  H38  1  0.16262620  0.15265015  0.73054530  1  0  0.42002  0  0.893902  0  0  0.386794  0  0.963417  0  0  0.39746  0  0.947818  0  0.632578  0  0.293851  0.379389  0  0.973924  0
H  H39  1  0.83736654  0.84734858  0.26945873  1  0  0.420078  0  0.893824  0  0  0.386847  0  0.96334  0  0  0.397516  0  0.947741  0  0.632594  0  0.293879  0.379442  0  0.973847  0
C  C40  1  0.90818914  0.31519043  0.51238824  1  0  0.774454  0  3.820156  0  0  0.731076  0  4.117371  0  0  0.766842  0  4.103568  0  1.650075  0  0.241857  0.706004  0  4.121806  0
C  C41  1  0.09182554  0.68480830  0.48760692  1  0  0.774578  0  3.820041  0  0  0.731238  0  4.117157  0  0  0.767005  0  4.103334  0  1.649809  0  0.241912  0.706154  0  4.121618  0
C  C42  1  0.78258496  0.22181779  0.54816064  1  0  -0.190664  0  3.480433  0  0  -0.244152  0  3.714185  0  0  -0.24715  0  3.718818  0  0.160809  0  -0.057641  -0.243079  0  3.713932  0
C  C43  1  0.21742011  0.77818522  0.45183628  1  0  -0.190647  0  3.480301  0  0  -0.244153  0  3.713976  0  0  -0.247083  0  3.718502  0  0.160572  0  -0.05762  -0.243071  0  3.713727  0
C  C44  1  0.08316967  0.05326092  0.56312609  1  0  -0.035926  0  3.512231  0  0  -0.093428  0  3.764114  0  0  -0.090525  0  3.773084  0  0.16706  0  -0.053008  -0.095354  0  3.758764  0
C  C45  1  0.91682635  0.94674124  0.43687522  1  0  -0.036054  0  3.512386  0  0  -0.093524  0  3.7643  0  0  -0.0906  0  3.773241  0  0.167995  0  -0.053051  -0.095446  0  3.758945  0
C  C46  1  0.77712524  0.04455099  0.49011182  1  0  -0.04009  0  3.509505  0  0  -0.098467  0  3.759114  0  0  -0.095874  0  3.768286  0  0.189005  0  -0.052718  -0.100207  0  3.75352  0
C  C47  1  0.22287514  0.95545202  0.50988877  1  0  -0.040187  0  3.509477  0  0  -0.098502  0  3.759012  0  0  -0.095911  0  3.768203  0  0.189081  0  -0.052699  -0.100235  0  3.753415  0
C  C48  1  0.23108887  0.18889174  0.00130391  1  0  0.783759  0  3.804902  0  0  0.742496  0  4.099604  0  0  0.778189  0  4.086015  0  1.660207  0  0.246633  0.717217  0  4.104844  0
C  C49  1  0.76890180  0.81110442  0.99870019  1  0  0.784082  0  3.804291  0  0  0.742599  0  4.099389  0  0  0.778276  0  4.085827  0  1.660401  0  0.246722  0.717333  0  4.104628  0
C  C50  1  0.06175447  0.29920754  0.98289428  1  0  -0.182644  0  3.460967  0  0  -0.23815  0  3.696284  0  0  -0.240532  0  3.700973  0  0.137157  0  -0.055453  -0.237371  0  3.695764  0
C  C51  1  0.93824697  0.70079291  0.01710676  1  0  -0.182552  0  3.460677  0  0  -0.238068  0  3.696097  0  0  -0.240451  0  3.700797  0  0.136951  0  -0.055447  -0.237334  0  3.695635  0
C  C52  1  0.87448399  0.44882286  0.09823196  1  0  -0.037116  0  3.501324  0  0  -0.094807  0  3.751096  0  0  -0.092248  0  3.760353  0  0.212183  0  -0.054941  -0.096407  0  3.745301  0
C  C53  1  0.12551587  0.55117759  0.90176927  1  0  -0.037105  0  3.501196  0  0  -0.094767  0  3.750971  0  0  -0.092207  0  3.760221  0  0.212069  0  -0.054919  -0.096365  0  3.745174  0
C  C54  1  0.22951128  0.45976226  0.98568797  1  0  -0.024629  0  3.497554  0  0  -0.08033  0  3.745818  0  0  -0.077651  0  3.755743  0  0.18683  0  -0.049635  -0.082163  0  3.739756  0
C  C55  1  0.77048859  0.54023818  0.01431404  1  0  -0.024651  0  3.497688  0  0  -0.080275  0  3.745875  0  0  -0.077599  0  3.755802  0  0.187107  0  -0.049649  -0.082104  0  3.739809  0
S  S56  1  0.72125160  0.57490759  0.34880697  1  0  1.679509  0  5.734391  0  0  1.559958  0  6.271752  0  0  1.617261  0  6.231321  0  3.850734  0  0.605949  1.518538  0  6.293343  0
S  S57  1  0.27875019  0.42509200  0.65119036  1  0  1.679311  0  5.734537  0  0  1.559791  0  6.271893  0  0  1.617093  0  6.231467  0  3.850454  0  0.605873  1.518367  0  6.293488  0
S  S58  1  0.52108752  0.76209363  0.74307789  1  0  1.530489  0  5.937721  0  0  1.416006  0  6.493392  0  0  1.471817  0  6.454908  0  3.799013  0  0.519369  1.379741  0  6.500414  0
S  S59  1  0.47891306  0.23790510  0.25692210  1  0  1.530593  0  5.9379  0  0  1.416115  0  6.493568  0  0  1.47193  0  6.455083  0  3.799004  0  0.519364  1.379853  0  6.500583  0
S  S60  1  0.16282126  0.91041406  0.14795984  1  0  1.675525  0  5.751305  0  0  1.555623  0  6.294862  0  0  1.613229  0  6.253286  0  3.837134  0  0.602378  1.514231  0  6.316215  0
S  S61  1  0.83716956  0.08958553  0.85204655  1  0  1.675246  0  5.751607  0  0  1.555351  0  6.295161  0  0  1.612943  0  6.253611  0  3.836646  0  0.602325  1.513959  0  6.316512  0
N  N62  1  0.91224632  0.12065097  0.49980990  1  0  -0.053173  0  3.372251  0  0  0.024702  0  3.588364  0  0  0.013482  0  3.60602  0  -1.025633  0  -0.342122  0.032116  0  3.577144  0
N  N63  1  0.08775441  0.87935118  0.50019006  1  0  -0.053125  0  3.372096  0  0  0.02471  0  3.588182  0  0  0.013475  0  3.605849  0  -1.025558  0  -0.34211  0.032121  0  3.576961  0
N  N64  1  0.08378128  0.38052047  0.04740445  1  0  -0.071888  0  3.336096  0  0  0.007283  0  3.549701  0  0  -0.00461  0  3.56703  0  -1.015125  0  -0.342852  0.015198  0  3.538768  0
N  N65  1  0.91621581  0.61947912  0.95259885  1  0  -0.071999  0  3.33603  0  0  0.007141  0  3.549679  0  0  -0.004736  0  3.566973  0  -1.015456  0  -0.342899  0.015066  0  3.538756  0
O  O66  1  0.84155573  0.39926775  0.55980666  1  0  -0.764968  0  2.178307  0  0  -0.734444  0  2.456458  0  0  -0.759012  0  2.441802  0  -1.211119  0  -0.421127  -0.703515  0  2.465114  0
O  O67  1  0.15847826  0.60073355  0.44018633  1  0  -0.765032  0  2.178513  0  0  -0.734494  0  2.45655  0  0  -0.759125  0  2.442007  0  -1.211034  0  -0.421146  -0.703553  0  2.465212  0
O  O68  1  0.07015497  0.30243065  0.43643228  1  0  -0.715768  0  2.030747  0  0  -0.681914  0  2.277435  0  0  -0.706109  0  2.265653  0  -1.190936  0  -0.375241  -0.656404  0  2.287198  0
O  O69  1  0.92985500  0.69756808  0.56355960  1  0  -0.715855  0  2.030639  0  0  -0.68198  0  2.277289  0  0  -0.706178  0  2.265508  0  -1.190716  0  -0.375223  -0.656472  0  2.287056  0
O  O70  1  0.68658711  0.61921380  0.45024201  1  0  -0.81596  0  2.03618  0  0  -0.77345  0  2.313071  0  0  -0.795036  0  2.294322  0  -1.344341  0  -0.414066  -0.748108  0  2.326735  0
O  O71  1  0.31340998  0.38078578  0.54975435  1  0  -0.815848  0  2.036126  0  0  -0.773377  0  2.313015  0  0  -0.794961  0  2.294271  0  -1.344195  0  -0.414053  -0.748028  0  2.326682  0
O  O72  1  0.63562846  0.66997138  0.26428476  1  0  -0.736174  0  1.938082  0  0  -0.664382  0  2.164399  0  0  -0.688286  0  2.148393  0  -1.349699  0  -0.338282  -0.648697  0  2.177072  0
O  O73  1  0.36437368  0.33002735  0.73571272  1  0  -0.736096  0  1.938007  0  0  -0.664365  0  2.164365  0  0  -0.688271  0  2.148366  0  -1.349641  0  -0.338288  -0.648666  0  2.177025  0
O  O74  1  0.61112972  0.47945097  0.36485403  1  0  -0.833087  0  2.027472  0  0  -0.789775  0  2.304085  0  0  -0.812218  0  2.286431  0  -1.346326  0  -0.432835  -0.763643  0  2.317784  0
O  O75  1  0.38887556  0.52054777  0.63514229  1  0  -0.833116  0  2.027573  0  0  -0.789779  0  2.304168  0  0  -0.812225  0  2.286518  0  -1.346312  0  -0.432814  -0.763642  0  2.317836  0
O  O76  1  0.95461506  0.53183635  0.30876454  1  0  -0.829231  0  2.028009  0  0  -0.784926  0  2.305645  0  0  -0.807157  0  2.286725  0  -1.357723  0  -0.432494  -0.759273  0  2.320357  0
O  O77  1  0.04538723  0.46816580  0.69123446  1  0  -0.82917  0  2.028009  0  0  -0.784878  0  2.30567  0  0  -0.807109  0  2.286751  0  -1.357633  0  -0.432454  -0.759231  0  2.320377  0
O  O78  1  0.45629486  0.73232564  0.65217528  1  0  -0.771217  0  1.96908  0  0  -0.727452  0  2.227033  0  0  -0.748461  0  2.209522  0  -1.339049  0  -0.405434  -0.705003  0  2.237805  0
O  O79  1  0.54370501  0.26767480  0.34782286  1  0  -0.771231  0  1.969259  0  0  -0.727448  0  2.22716  0  0  -0.748454  0  2.209647  0  -1.339027  0  -0.40543  -0.704993  0  2.237932  0
O  O80  1  0.69111485  0.66040817  0.77741591  1  0  -0.781469  0  1.963923  0  0  -0.739438  0  2.224651  0  0  -0.760063  0  2.206761  0  -1.337219  0  -0.399039  -0.717085  0  2.235481  0
O  O81  1  0.30888451  0.33958970  0.22258287  1  0  -0.781478  0  1.963925  0  0  -0.739465  0  2.224663  0  0  -0.76009  0  2.206762  0  -1.337217  0  -0.399074  -0.717106  0  2.235487  0
O  O82  1  0.59901457  0.87098787  0.70769755  1  0  -0.771462  0  1.9314  0  0  -0.73418  0  2.193575  0  0  -0.753931  0  2.174698  0  -1.33874  0  -0.401469  -0.712463  0  2.205354  0
O  O83  1  0.40098287  0.12901086  0.29230359  1  0  -0.771527  0  1.93139  0  0  -0.734247  0  2.193561  0  0  -0.754001  0  2.174687  0  -1.3388  0  -0.401499  -0.712527  0  2.20534  0
O  O84  1  0.33653066  0.78225818  0.83433475  1  0  -0.758709  0  1.958942  0  0  -0.71611  0  2.21303  0  0  -0.736922  0  2.195471  0  -1.348195  0  -0.394417  -0.694284  0  2.223798  0
O  O85  1  0.66346400  0.21773969  0.16566383  1  0  -0.758758  0  1.959062  0  0  -0.716142  0  2.213141  0  0  -0.736952  0  2.195572  0  -1.348166  0  -0.39438  -0.694315  0  2.223911  0
O  O86  1  0.25393388  0.88523768  0.03763417  1  0  -0.821865  0  2.034249  0  0  -0.783737  0  2.315638  0  0  -0.805085  0  2.295952  0  -1.348662  0  -0.424922  -0.757803  0  2.329528  0
O  O87  1  0.74605360  0.11476619  0.96236935  1  0  -0.821671  0  2.034422  0  0  -0.783538  0  2.315778  0  0  -0.804888  0  2.296104  0  -1.348394  0  -0.424836  -0.757602  0  2.329666  0
O  O88  1  0.32456401  0.94227972  0.19151656  1  0  -0.833364  0  2.016005  0  0  -0.791528  0  2.298195  0  0  -0.813469  0  2.278563  0  -1.355418  0  -0.429648  -0.765972  0  2.312971  0
O  O89  1  0.67543398  0.05771388  0.80848722  1  0  -0.833391  0  2.01608  0  0  -0.79156  0  2.298282  0  0  -0.8135  0  2.278656  0  -1.355445  0  -0.42964  -0.766008  0  2.313058  0
O  O90  1  0.97028442  0.00715058  0.14890369  1  0  -0.830794  0  2.009891  0  0  -0.786864  0  2.28223  0  0  -0.809066  0  2.263712  0  -1.337362  0  -0.437569  -0.760906  0  2.296518  0
O  O91  1  0.02971110  0.99284901  0.85110367  1  0  -0.830825  0  2.009869  0  0  -0.786897  0  2.282208  0  0  -0.809101  0  2.263701  0  -1.337259  0  -0.437651  -0.760942  0  2.296494  0
O  O92  1  0.09892461  0.80651624  0.22078080  1  0  -0.736501  0  1.947615  0  0  -0.664842  0  2.174115  0  0  -0.688741  0  2.157761  0  -1.346776  0  -0.337879  -0.649131  0  2.186931  0
O  O93  1  0.90106115  0.19348420  0.77922370  1  0  -0.736321  0  1.947635  0  0  -0.664674  0  2.174141  0  0  -0.688556  0  2.157782  0  -1.346647  0  -0.337866  -0.648965  0  2.186957  0
O  O94  1  0.25844804  0.11899663  0.94021084  1  0  -0.745588  0  2.124003  0  0  -0.715258  0  2.396384  0  0  -0.739625  0  2.382086  0  -1.196395  0  -0.406359  -0.686061  0  2.406419  0
O  O95  1  0.74154626  0.88100210  0.05978914  1  0  -0.745692  0  2.123772  0  0  -0.71529  0  2.396291  0  0  -0.73965  0  2.381998  0  -1.196376  0  -0.406383  -0.686085  0  2.406318  0
O  O96  1  0.32774978  0.17688082  0.07792958  1  0  -0.729047  0  2.087763  0  0  -0.692327  0  2.33599  0  0  -0.717166  0  2.324184  0  -1.193801  0  -0.382256  -0.665734  0  2.345488  0
O  O97  1  0.67224907  0.82311449  0.92207293  1  0  -0.729178  0  2.087654  0  0  -0.692386  0  2.336009  0  0  -0.71722  0  2.324213  0  -1.193811  0  -0.382274  -0.665795  0  2.3455  0
O  O98  1  0.65253615  0.40908514  0.79132105  1  0  -0.913677  0  1.839469  0  0  -0.881607  0  2.029326  0  0  -0.899928  0  1.997836  0  -1.261584  0  -0.644958  -0.85925  0  2.055208  0
O  O99  1  0.34746529  0.59091530  0.20867536  1  0  -0.913681  0  1.839425  0  0  -0.881584  0  2.029322  0  0  -0.899903  0  1.997826  0  -1.261554  0  -0.644962  -0.859219  0  2.0552  0
O  O100  1  0.32128926  0.12096250  0.71203328  1  0  -0.909364  0  1.867395  0  0  -0.877342  0  2.063975  0  0  -0.895843  0  2.033543  0  -1.268096  0  -0.648218  -0.855072  0  2.088722  0
O  O101  1  0.67870312  0.87903708  0.28796906  1  0  -0.909394  0  1.867378  0  0  -0.877361  0  2.063952  0  0  -0.89587  0  2.033514  0  -1.268031  0  -0.648267  -0.855105  0  2.088737  0
