# generated using pymatgen
data_CaB2H28C24(N8O)2
_symmetry_space_group_name_H-M   'P 1'
_cell_length_a   9.37153668
_cell_length_b   9.73533727
_cell_length_c   10.31794008
_cell_angle_alpha   93.28856892
_cell_angle_beta   108.33050760
_cell_angle_gamma   118.35848913
_symmetry_Int_Tables_number   1
_chemical_formula_structural   CaB2H28C24(N8O)2
_chemical_formula_sum   'Ca1 B2 H28 C24 N16 O2'
_cell_volume   761.88917369
_cell_formula_units_Z   1
loop_
 _symmetry_equiv_pos_site_id
 _symmetry_equiv_pos_as_xyz
  1  'x, y, z'
loop_
 _atom_site_type_symbol
 _atom_site_label
 _atom_site_symmetry_multiplicity
 _atom_site_fract_x
 _atom_site_fract_y
 _atom_site_fract_z
 _atom_site_occupancy
 _atom_site_pbe_bader_spin_density
 _atom_site_pbe_cm5_charge
 _atom_site_pbe_ddec_charge
 _atom_site_pbe_ddec_spin_density
 _atom_site_pbe_ddec_sum_bond_order
 _atom_site_pbe_magmom
Ca  Ca0  1  0.50000028  0.50000064  0.49999965  1  0  0.907213  1.230678  0  1.625729  0
B  B1  1  0.23239149  0.87330619  0.15020310  1  0  0.108097  0.530796  0  3.324971  0
B  B2  1  0.76760927  0.12669149  0.84979606  1  0  0.108111  0.530773  0  3.32494  0
H  H3  1  0.90297186  0.68640212  0.60563692  1  0  0.275928  0.341492  0  1.023664  0
H  H4  1  0.09703095  0.31359917  0.39436593  1  0  0.275908  0.341486  0  1.023677  0
H  H5  1  0.82835760  0.67993319  0.44050940  1  0  0.275791  0.337722  0  1.029783  0
H  H6  1  0.17164634  0.32006811  0.55949474  1  0  0.27579  0.337713  0  1.029797  0
H  H7  1  0.22438736  0.59719415  0.01833701  1  0  0.116994  0.108286  0  1.03569  0
H  H8  1  0.77561048  0.40280231  0.98166125  1  0  0.116983  0.108268  0  1.035718  0
H  H9  1  0.20562487  0.10182942  0.31551117  1  0  0.135723  0.085604  0  1.029469  0
H  H10  1  0.79437342  0.89816584  0.68448908  1  0  0.135728  0.085598  0  1.029496  0
H  H11  1  0.59135747  0.43016835  0.18537062  1  0  0.112699  0.09618  0  1.053509  0
H  H12  1  0.40864105  0.56982931  0.81463080  1  0  0.11274  0.096216  0  1.053409  0
H  H13  1  0.09470071  0.53195596  0.72666822  1  0  0.113147  0.103262  0  1.028281  0
H  H14  1  0.90530097  0.46804533  0.27333043  1  0  0.113135  0.103259  0  1.028283  0
H  H15  1  0.19732742  0.59924040  0.26626895  1  0  0.128549  0.075446  0  1.058512  0
H  H16  1  0.80267628  0.40075850  0.73372627  1  0  0.128544  0.075433  0  1.058468  0
H  H17  1  0.16823749  0.82144165  0.40628900  1  0  0.133238  0.090956  0  1.009974  0
H  H18  1  0.83176622  0.17855725  0.59371107  1  0  0.133249  0.090948  0  1.010009  0
H  H19  1  0.75017481  0.88327473  0.42690270  1  0  0.116264  0.101612  0  1.032991  0
H  H20  1  0.24982755  0.11672776  0.57309233  1  0  0.116238  0.1016  0  1.032983  0
H  H21  1  0.11120320  0.94973634  0.88454648  1  0  0.124158  0.076728  0  1.040996  0
H  H22  1  0.88880006  0.05026375  0.11545546  1  0  0.124147  0.076711  0  1.041044  0
H  H23  1  0.65682491  0.68535871  0.13362056  1  0  0.112959  0.101932  0  1.0226  0
H  H24  1  0.34318038  0.31464499  0.86638410  1  0  0.112964  0.101951  0  1.022558  0
H  H25  1  0.47982665  0.12071942  0.05428177  1  0  0.116916  0.108342  0  1.030611  0
H  H26  1  0.52017412  0.87927825  0.94571933  1  0  0.116914  0.108324  0  1.030614  0
H  H27  1  0.61447809  0.05365245  0.28410777  1  0  0.115393  0.111174  0  1.049841  0
H  H28  1  0.38552314  0.94635003  0.71589275  1  0  0.115379  0.111158  0  1.049852  0
H  H29  1  0.86605047  0.75279514  0.97923170  1  0  0.117392  0.110891  0  1.044878  0
H  H30  1  0.13395076  0.24720734  0.02077076  1  0  0.117399  0.110888  0  1.04483  0
C  C31  1  0.18040372  0.65940842  0.94721330  1  0  -0.003093  -0.073646  0  3.952738  0
C  C32  1  0.81959547  0.34059045  0.05278548  1  0  -0.00308  -0.073654  0  3.95264  0
C  C33  1  0.29482582  0.15078046  0.26189310  1  0  0.147402  0.136408  0  3.968242  0
C  C34  1  0.70516976  0.84921599  0.73810451  1  0  0.147431  0.136413  0  3.968223  0
C  C35  1  0.49293899  0.31582789  0.19265013  1  0  -0.002021  -0.028824  0  4.0277  0
C  C36  1  0.50706178  0.68416979  0.80735097  1  0  -0.002057  -0.02889  0  4.027622  0
C  C37  1  0.11463435  0.62784770  0.80249641  1  0  -0.010927  -0.045538  0  4.040793  0
C  C38  1  0.88536845  0.37215360  0.19750353  1  0  -0.010907  -0.045512  0  4.040785  0
C  C39  1  0.33036763  0.69920191  0.29275157  1  0  0.142172  0.131325  0  3.970378  0
C  C40  1  0.66963495  0.30079698  0.70724623  1  0  0.142115  0.1313  0  3.970275  0
C  C41  1  0.05553197  0.79178083  0.31196963  1  0  0.138366  0.117649  0  3.974579  0
C  C42  1  0.94447377  0.20822168  0.68803121  1  0  0.138379  0.117633  0  3.974634  0
C  C43  1  0.61409204  0.84938739  0.37361949  1  0  -0.007401  -0.039278  0  4.046506  0
C  C44  1  0.38591189  0.15061391  0.62637689  1  0  -0.00742  -0.03929  0  4.046456  0
C  C45  1  0.12235994  0.84367364  0.87878510  1  0  0.135961  0.126067  0  3.965388  0
C  C46  1  0.87764263  0.15632525  0.12121561  1  0  0.135934  0.125995  0  3.965445  0
C  C47  1  0.79442876  0.72197081  0.16808437  1  0  -0.010253  -0.050469  0  4.045689  0
C  C48  1  0.20557315  0.27803288  0.83191835  1  0  -0.010225  -0.050525  0  4.045776  0
C  C49  1  0.43916403  0.16263219  0.12732616  1  0  -0.000544  -0.077127  0  3.970653  0
C  C50  1  0.56083561  0.83736548  0.87267461  1  0  -0.000521  -0.077046  0  3.970539  0
C  C51  1  0.54817388  0.93496565  0.30246534  1  0  -0.004485  -0.073499  0  3.939214  0
C  C52  1  0.45182531  0.06503323  0.69753052  1  0  -0.004465  -0.073491  0  3.939198  0
C  C53  1  0.89742704  0.75686160  0.09036548  1  0  -0.002513  -0.073847  0  3.947394  0
C  C54  1  0.10257689  0.24313970  0.90963575  1  0  -0.002559  -0.073882  0  3.947377  0
N  N55  1  0.47642588  0.70135989  0.36741418  1  0  -0.400669  -0.368472  0  3.401052  0
N  N56  1  0.52357782  0.29863901  0.63258007  1  0  -0.400561  -0.368387  0  3.400927  0
N  N57  1  0.89465311  0.74355544  0.30682204  1  0  -0.334969  -0.303224  0  3.387491  0
N  N58  1  0.10535264  0.25644707  0.69318074  1  0  -0.334985  -0.303159  0  3.387589  0
N  N59  1  0.36615340  0.83867633  0.25114362  1  0  -0.233563  -0.213087  0  3.708431  0
N  N60  1  0.63384804  0.16132255  0.74885482  1  0  -0.233577  -0.21311  0  3.708395  0
N  N61  1  0.40154147  0.30737160  0.27717586  1  0  -0.40864  -0.375099  0  3.410212  0
N  N62  1  0.59845637  0.69262486  0.72282337  1  0  -0.408695  -0.375121  0  3.4102  0
N  N63  1  0.07817043  0.74383086  0.76044240  1  0  -0.341504  -0.312048  0  3.368065  0
N  N64  1  0.92183351  0.25617044  0.23955883  1  0  -0.341517  -0.312071  0  3.368065  0
N  N65  1  0.31203348  0.05708952  0.17191450  1  0  -0.234427  -0.220832  0  3.72421  0
N  N66  1  0.68796684  0.94290936  0.82808556  1  0  -0.234408  -0.22081  0  3.724094  0
N  N67  1  0.18624057  0.79844052  0.99588611  1  0  -0.235573  -0.218013  0  3.719108  0
N  N68  1  0.81376020  0.20155716  0.00411402  1  0  -0.235533  -0.217884  0  3.71896  0
N  N69  1  0.06449377  0.80100566  0.18287744  1  0  -0.234988  -0.222193  0  3.731183  0
N  N70  1  0.93550768  0.19899322  0.81712295  1  0  -0.235013  -0.222167  0  3.73108  0
O  O71  1  0.79095567  0.64157888  0.51958677  1  0  -0.65519  -0.812019  0  2.068127  0
O  O72  1  0.20904690  0.35842001  0.48041491  1  0  -0.655171  -0.812006  0  2.068155  0
