# generated using pymatgen
data_ZnH12C12(O2F)4
_symmetry_space_group_name_H-M   'P 1'
_cell_length_a   5.08249458
_cell_length_b   8.81536882
_cell_length_c   9.36001826
_cell_angle_alpha   116.19964755
_cell_angle_beta   95.60638795
_cell_angle_gamma   93.72634587
_symmetry_Int_Tables_number   1
_chemical_formula_structural   ZnH12C12(O2F)4
_chemical_formula_sum   'Zn1 H12 C12 O8 F4'
_cell_volume   371.72635204
_cell_formula_units_Z   1
loop_
 _symmetry_equiv_pos_site_id
 _symmetry_equiv_pos_as_xyz
  1  'x, y, z'
loop_
 _atom_site_type_symbol
 _atom_site_label
 _atom_site_symmetry_multiplicity
 _atom_site_fract_x
 _atom_site_fract_y
 _atom_site_fract_z
 _atom_site_occupancy
 _atom_site_hle17_bader_spin_density
 _atom_site_hle17_ddec_charge
 _atom_site_hle17_ddec_spin_density
 _atom_site_hle17_ddec_sum_bond_order
 _atom_site_hle17_magmom
 _atom_site_hse06_10hf_bader_spin_density
 _atom_site_hse06_10hf_ddec_charge
 _atom_site_hse06_10hf_ddec_spin_density
 _atom_site_hse06_10hf_ddec_sum_bond_order
 _atom_site_hse06_10hf_magmom
 _atom_site_hse06_bader_spin_density
 _atom_site_hse06_ddec_charge
 _atom_site_hse06_ddec_spin_density
 _atom_site_hse06_ddec_sum_bond_order
 _atom_site_hse06_magmom
 _atom_site_pbe_bader_spin_density
 _atom_site_pbe_cm5_charge
 _atom_site_pbe_ddec_charge
 _atom_site_pbe_ddec_spin_density
 _atom_site_pbe_ddec_sum_bond_order
 _atom_site_pbe_magmom
Zn  Zn0  1  0.00000132  0.00000080  0.50000031  1  0  1.109395  0  1.710937  0  0  0.944353  0  2.138835  0  0  0.993305  0  2.082762  0  0  0.677986  0.910017  0  2.177254  0
H  H1  1  0.60881731  0.19880497  0.36840094  1  0  0.066277  0  0.938732  0  0  0.076439  0  1.007466  0  0  0.077826  0  1.006184  0  0  0.098502  0.075334  0  1.008472  0
H  H2  1  0.39118289  0.80119417  0.63159844  1  0  0.066345  0  0.938711  0  0  0.076469  0  1.007469  0  0  0.077882  0  1.00616  0  0  0.098523  0.075368  0  1.008469  0
H  H3  1  0.61407105  0.07142129  0.15801278  1  0  0.056597  0  0.929535  0  0  0.065911  0  1.003685  0  0  0.067092  0  1.001562  0  0  0.095219  0.065048  0  1.005263  0
H  H4  1  0.38592938  0.92857914  0.84198715  1  0  0.056598  0  0.929514  0  0  0.065907  0  1.003663  0  0  0.067089  0  1.001544  0  0  0.095213  0.065045  0  1.005242  0
H  H5  1  0.10212744  0.07828773  0.20235530  1  0  0.068345  0  0.912034  0  0  0.081388  0  0.975373  0  0  0.081653  0  0.975356  0  0  0.102717  0.081026  0  0.975714  0
H  H6  1  0.89787124  0.92171396  0.79764506  1  0  0.068352  0  0.912018  0  0  0.081407  0  0.975346  0  0  0.081672  0  0.975327  0  0  0.102713  0.081045  0  0.975687  0
H  H7  1  0.01782591  0.29164512  0.28597096  1  0  0.076983  0  0.942276  0  0  0.083566  0  1.016237  0  0  0.085166  0  1.01406  0  0  0.100652  0.082337  0  1.017855  0
H  H8  1  0.98217627  0.70835403  0.71402853  1  0  0.076979  0  0.942277  0  0  0.083558  0  1.016248  0  0  0.085157  0  1.014069  0  0  0.100644  0.082329  0  1.017865  0
H  H9  1  0.52597495  0.91749623  0.31693897  1  0  0.384202  0  0.906114  0  0  0.357185  0  0.977226  0  0  0.367919  0  0.966108  0  0  0.2969  0.349654  0  0.98496  0
H  H10  1  0.47402921  0.08250293  0.68305956  1  0  0.384258  0  0.905998  0  0  0.35715  0  0.977258  0  0  0.367878  0  0.966154  0  0  0.296918  0.349619  0  0.984994  0
H  H11  1  0.08585603  0.29805185  0.54028601  1  0  0.371369  0  0.919106  0  0  0.348266  0  0.984535  0  0  0.35978  0  0.97258  0  0  0.294067  0.34022  0  0.992735  0
H  H12  1  0.91414440  0.70194857  0.45971392  1  0  0.371344  0  0.919135  0  0  0.348233  0  0.984576  0  0  0.359748  0  0.972619  0  0  0.294057  0.340186  0  0.992781  0
C  C13  1  0.19622103  0.67252315  0.26600508  1  0  0.705747  0  3.841457  0  0  0.64915  0  4.148383  0  0  0.684436  0  4.137902  0  0  0.226341  0.625287  0  4.154887  0
C  C14  1  0.80377940  0.32747726  0.73399698  1  0  0.705744  0  3.841502  0  0  0.649161  0  4.148403  0  0  0.684447  0  4.137921  0  0  0.226346  0.625299  0  4.154909  0
C  C15  1  0.34969959  0.58270574  0.12813057  1  0  -0.214315  0  3.742928  0  0  -0.222535  0  4.020034  0  0  -0.22896  0  4.034858  0  0  -0.026189  -0.218588  0  4.010663  0
C  C16  1  0.65029688  0.41729467  0.87187021  1  0  -0.214256  0  3.742898  0  0  -0.222472  0  4.019985  0  0  -0.228898  0  4.034812  0  0  -0.026179  -0.218525  0  4.010611  0
C  C17  1  0.48094689  0.44377664  0.11528662  1  0  0.221049  0  3.766394  0  0  0.17994  0  4.073987  0  0  0.190351  0  4.080795  0  0  0.097106  0.172422  0  4.070191  0
C  C18  1  0.51904959  0.55622377  0.88471308  1  0  0.221019  0  3.766433  0  0  0.179907  0  4.074039  0  0  0.190318  0  4.080845  0  0  0.097121  0.17239  0  4.070241  0
C  C19  1  0.62792251  0.36348159  0.99042698  1  0  0.213254  0  3.772818  0  0  0.170801  0  4.085115  0  0  0.180674  0  4.092768  0  0  0.094161  0.163761  0  4.080538  0
C  C20  1  0.37207594  0.63651882  0.00957283  1  0  0.213314  0  3.772786  0  0  0.17086  0  4.085084  0  0  0.180734  0  4.092737  0  0  0.094174  0.163819  0  4.080507  0
C  C21  1  0.71429066  0.10409347  0.27928015  1  0  0.089345  0  3.634537  0  0  0.021023  0  3.924471  0  0  0.028039  0  3.92912  0  0  -0.089154  0.016322  0  3.921262  0
C  C22  1  0.28570954  0.89590569  0.72071817  1  0  0.089267  0  3.63465  0  0  0.020982  0  3.924561  0  0  0.027978  0  3.929202  0  0  -0.089176  0.01628  0  3.921352  0
C  C23  1  0.00312105  0.17210282  0.29614527  1  0  0.093324  0  3.603114  0  0  0.030634  0  3.885792  0  0  0.037412  0  3.891295  0  0  -0.084415  0.026025  0  3.882055  0
C  C24  1  0.99688136  0.82789761  0.70385476  1  0  0.093308  0  3.603147  0  0  0.030615  0  3.885808  0  0  0.037394  0  3.891318  0  0  -0.084415  0.026003  0  3.88208  0
O  O25  1  0.24482590  0.83595382  0.33780090  1  0  -0.644249  0  2.088401  0  0  -0.575107  0  2.338416  0  0  -0.603711  0  2.325651  0  0  -0.303149  -0.555281  0  2.346643  0
O  O26  1  0.75517674  0.16404788  0.66219861  1  0  -0.644252  0  2.088422  0  0  -0.575073  0  2.338443  0  0  -0.603672  0  2.325679  0  0  -0.303143  -0.555248  0  2.346671  0
O  O27  1  0.03568034  0.58396789  0.30081708  1  0  -0.576397  0  1.966197  0  0  -0.536054  0  2.190589  0  0  -0.559995  0  2.181794  0  0  -0.294215  -0.519318  0  2.195881  0
O  O28  1  0.96431986  0.41603126  0.69918230  1  0  -0.576399  0  1.966203  0  0  -0.536077  0  2.190602  0  0  -0.560018  0  2.181806  0  0  -0.294217  -0.519341  0  2.195893  0
O  O29  1  0.71077893  0.95314643  0.30340210  1  0  -0.579867  0  2.176901  0  0  -0.507599  0  2.432696  0  0  -0.529527  0  2.420506  0  0  -0.404507  -0.492159  0  2.440529  0
O  O30  1  0.28922325  0.04685273  0.69659632  1  0  -0.579912  0  2.176896  0  0  -0.507575  0  2.432769  0  0  -0.529505  0  2.420595  0  0  -0.404517  -0.492135  0  2.4406  0
O  O31  1  0.14774696  0.19820560  0.44815245  1  0  -0.558595  0  2.119396  0  0  -0.486402  0  2.359768  0  0  -0.508045  0  2.346359  0  0  -0.397534  -0.471165  0  2.36856  0
O  O32  1  0.85225347  0.80179482  0.55184748  1  0  -0.558558  0  2.119419  0  0  -0.486363  0  2.35979  0  0  -0.508009  0  2.346385  0  0  -0.397513  -0.471126  0  2.368582  0
F  F33  1  0.47554163  0.38869561  0.22882839  1  0  -0.1578  0  1.253249  0  0  -0.098099  0  1.415473  0  0  -0.107116  0  1.405587  0  0  -0.068877  -0.091632  0  1.422065  0
F  F34  1  0.52445461  0.61130353  0.77116971  1  0  -0.157796  0  1.253266  0  0  -0.098092  0  1.415489  0  0  -0.107109  0  1.405602  0  0  -0.068885  -0.091625  0  1.422078  0
F  F35  1  0.75594616  0.23214074  0.98781292  1  0  -0.17001  0  1.24149  0  0  -0.110732  0  1.40459  0  0  -0.119698  0  1.395167  0  0  -0.076639  -0.10435  0  1.411079  0
F  F36  1  0.24405206  0.76785840  0.01218742  1  0  -0.170008  0  1.241474  0  0  -0.110725  0  1.404573  0  0  -0.119691  0  1.395147  0  0  -0.076636  -0.104343  0  1.411061  0
