# generated using pymatgen
data_CuH16C16(NO2)2
_symmetry_space_group_name_H-M   'P 1'
_cell_length_a   5.00011671
_cell_length_b   9.53174498
_cell_length_c   15.00068256
_cell_angle_alpha   102.50610704
_cell_angle_beta   90.00065336
_cell_angle_gamma   90.00002584
_symmetry_Int_Tables_number   1
_chemical_formula_structural   CuH16C16(NO2)2
_chemical_formula_sum   'Cu2 H32 C32 N4 O8'
_cell_volume   697.96689514
_cell_formula_units_Z   2
loop_
 _symmetry_equiv_pos_site_id
 _symmetry_equiv_pos_as_xyz
  1  'x, y, z'
loop_
 _atom_site_type_symbol
 _atom_site_label
 _atom_site_symmetry_multiplicity
 _atom_site_fract_x
 _atom_site_fract_y
 _atom_site_fract_z
 _atom_site_occupancy
 _atom_site_hle17_ddec_charge
 _atom_site_hle17_ddec_spin_density
 _atom_site_hle17_ddec_sum_bond_order
 _atom_site_hle17_magmom
 _atom_site_hse06_10hf_ddec_charge
 _atom_site_hse06_10hf_ddec_spin_density
 _atom_site_hse06_10hf_ddec_sum_bond_order
 _atom_site_hse06_10hf_magmom
 _atom_site_hse06_ddec_charge
 _atom_site_hse06_ddec_spin_density
 _atom_site_hse06_ddec_sum_bond_order
 _atom_site_hse06_magmom
 _atom_site_pbe_cm5_charge
 _atom_site_pbe_ddec_charge
 _atom_site_pbe_ddec_spin_density
 _atom_site_pbe_ddec_sum_bond_order
 _atom_site_pbe_magmom
Cu  Cu0  1  0.17912278  0.26499937  0.51411625  1  0.875548  -0.715631  1.766168  -0.504  0.853393  -0.801124  2.160275  -0.62  0.941284  -0.871305  2.091612  -0.699  0.720711  0.796312  -0.750271  2.210595  -0.567
Cu  Cu1  1  0.67911671  0.73499623  0.48588369  1  0.875471  0.715616  1.766232  0.504  0.853455  0.801135  2.160194  0.62  0.941206  0.871306  2.091587  0.699  0.720762  0.796241  0.750261  2.210672  0.567
H  H2  1  0.97152096  0.33000671  0.66786015  1  0.296962  0.000896  0.900005  0.002  0.28856  -2.9e-05  0.961564  0.0  0.294413  0.000146  0.959283  0.001  0.296419  0.284265  -0.000181  0.963672  0.0
H  H3  1  0.47152488  0.66998509  0.33213704  1  0.297009  -0.000896  0.900001  -0.002  0.288588  3e-05  0.961553  0.0  0.294439  -0.000147  0.959269  -0.001  0.296415  0.284287  0.000181  0.963665  0.0
H  H4  1  0.74360306  0.24003706  0.59858345  1  0.318639  0.000464  0.893777  0.001  0.306844  -0.000353  0.956293  0.0  0.314153  -0.000117  0.951601  0.0  0.298236  0.301731  -0.000536  0.959786  0.0
H  H5  1  0.24357942  0.75993286  0.40141324  1  0.31856  -0.000463  0.893887  -0.001  0.306762  0.000354  0.956379  0.0  0.314061  0.000117  0.951697  0.0  0.298231  0.301651  0.000536  0.959883  0.0
H  H6  1  0.84822703  0.02977381  0.62452849  1  0.093898  -0.000381  0.923552  0.0  0.102115  -0.000375  0.986405  0.0  0.104464  -0.000316  0.98472  0.0  0.121383  0.100103  -0.000404  0.988015  0.0
H  H7  1  0.34818657  0.97020923  0.37548238  1  0.093817  0.00038  0.92363  0.0  0.102047  0.000375  0.986438  0.0  0.104397  0.000316  0.984753  0.0  0.121342  0.100032  0.000403  0.988045  0.0
H  H8  1  0.39564980  0.26539301  0.74936747  1  0.099756  7e-05  0.947146  0.0  0.114376  -7.6e-05  1.002679  0.0  0.11701  -5.5e-05  1.001888  0.0  0.104001  0.112419  -9.7e-05  1.003471  0.0
H  H9  1  0.89560158  0.73460511  0.25063096  1  0.099831  -7.1e-05  0.946989  0.0  0.114436  7.4e-05  1.002526  0.0  0.117066  5.5e-05  1.001745  0.0  0.104039  0.11251  9.7e-05  1.003268  0.0
H  H10  1  0.70795484  0.00319518  0.77119742  1  0.096248  0.000141  0.951955  0.0  0.107888  3.3e-05  1.012137  0.0  0.110494  3e-05  1.011734  0.0  0.100441  0.105879  3.7e-05  1.012891  0.0
H  H11  1  0.20791331  0.99681018  0.22881463  1  0.096232  -0.000145  0.951988  0.0  0.1078  -3.5e-05  1.012245  0.0  0.110407  -3.1e-05  1.011839  0.0  0.100416  0.105784  -3.7e-05  1.013004  0.0
H  H12  1  0.54126903  0.37192263  0.43799505  1  0.311917  0.000626  0.904501  0.002  0.30038  -0.000301  0.965143  0.0  0.308114  -6.8e-05  0.960449  0.001  0.294829  0.294769  -0.000528  0.968874  0.0
H  H13  1  0.04125690  0.62807488  0.56200264  1  0.311898  -0.000628  0.90456  -0.002  0.300344  0.000302  0.965221  0.0  0.308079  6.9e-05  0.960525  -0.001  0.294833  0.294734  0.000528  0.968948  0.0
H  H14  1  0.53011636  0.20104000  0.38631819  1  0.302322  0.000381  0.924384  0.001  0.292607  -0.00032  0.983993  0.0  0.299715  -0.000152  0.980276  0.0  0.290451  0.287633  -0.000478  0.986728  0.0
H  H15  1  0.03013008  0.79895749  0.61367812  1  0.302238  -0.000381  0.924451  -0.001  0.292508  0.000321  0.984098  0.0  0.299615  0.000152  0.980385  0.0  0.290394  0.287542  0.000478  0.986824  0.0
H  H16  1  0.10366713  0.23779674  0.31781109  1  0.084969  -0.000201  0.927297  -0.001  0.098873  -0.000214  0.988161  0.0  0.099777  -0.000159  0.987774  0.0  0.120818  0.098048  -0.000245  0.988729  -0.001
H  H17  1  0.60367188  0.76219874  0.68219055  1  0.084952  0.000201  0.927209  0.001  0.098859  0.000213  0.988082  0.0  0.099759  0.000159  0.9877  0.0  0.120795  0.098035  0.000245  0.988651  0.001
H  H18  1  0.67337285  0.19409746  0.26157647  1  0.088455  -0.000126  0.98789  0.0  0.098994  -0.00018  1.052101  0.0  0.10218  -0.000166  1.050525  0.0  0.097762  0.096816  -0.000174  1.053211  0.0
H  H19  1  0.17337690  0.80590888  0.73842225  1  0.088401  0.000129  0.987919  0.0  0.098977  0.000179  1.052069  0.0  0.102161  0.000166  1.050493  0.0  0.097754  0.096776  0.000174  1.053207  0.0
H  H20  1  0.90768101  0.22510721  0.12398714  1  0.080435  1.2e-05  0.961969  0.0  0.094301  1.3e-05  1.017464  0.0  0.096508  1e-05  1.017203  0.0  0.097314  0.092606  1.3e-05  1.018183  0.0
H  H21  1  0.40769381  0.77490381  0.87600910  1  0.080334  -1.8e-05  0.962064  0.0  0.094222  -1.3e-05  1.017532  0.0  0.096429  -1.1e-05  1.017268  0.0  0.097294  0.092527  -1.3e-05  1.018245  0.0
H  H22  1  0.76083704  0.41219295  0.04127013  1  0.076876  -1.4e-05  0.971319  0.0  0.087933  -1.4e-05  1.035758  0.0  0.090538  -1e-05  1.034712  0.0  0.094469  0.085937  -1.8e-05  1.036816  0.0
H  H23  1  0.26086463  0.58781460  0.95872775  1  0.076886  1.3e-05  0.971237  0.0  0.08792  1.3e-05  1.035705  0.0  0.090528  1e-05  1.034652  0.0  0.094428  0.085922  1.8e-05  1.036761  0.0
H  H24  1  0.36149936  0.56259911  0.09750842  1  0.075297  -1.3e-05  0.977935  0.0  0.088034  -1.5e-05  1.038914  0.0  0.09006  -1.3e-05  1.038862  0.0  0.09353  0.086678  -1.6e-05  1.038943  0.0
H  H25  1  0.86153561  0.43739787  0.90248907  1  0.075316  1.5e-05  0.977886  0.0  0.088046  1.4e-05  1.038877  0.0  0.090079  1.2e-05  1.038823  0.0  0.093565  0.086698  1.6e-05  1.038886  0.0
H  H26  1  0.11664945  0.52671473  0.23470416  1  0.099956  -6e-05  1.000483  0.0  0.108629  -2.9e-05  1.063742  0.0  0.112182  1.8e-05  1.061731  0.0  0.097532  0.106281  -9.6e-05  1.064752  0.0
H  H27  1  0.61666696  0.47327862  0.76529524  1  0.099962  6.4e-05  1.000428  0.0  0.108634  2.9e-05  1.063681  0.0  0.112187  -1.8e-05  1.061667  0.0  0.097571  0.106289  9.6e-05  1.064695  0.0
H  H28  1  0.47645880  0.29733096  0.91579787  1  0.078007  -1.7e-05  0.975535  0.0  0.088162  1.1e-05  1.040469  0.0  0.090232  9e-06  1.040438  0.0  0.096218  0.086825  1.4e-05  1.040158  0.0
H  H29  1  0.97638681  0.70268663  0.08420018  1  0.078104  2.1e-05  0.975453  0.0  0.088259  -1.2e-05  1.040431  0.0  0.09036  -9e-06  1.040335  0.0  0.096245  0.086889  -1.4e-05  1.040179  0.0
H  H30  1  0.17945602  0.18168633  0.01019383  1  0.082587  0.0001  0.972329  0.0  0.094011  -1.3e-05  1.034384  0.0  0.09661  -6e-06  1.03364  0.0  0.097069  0.092348  -2e-05  1.034736  0.0
H  H31  1  0.67938745  0.81834152  0.98981184  1  0.082479  -9.8e-05  0.972309  0.0  0.093876  1.3e-05  1.03441  0.0  0.096471  6e-06  1.033671  0.0  0.097076  0.092214  2e-05  1.034762  0.0
H  H32  1  0.78970583  0.03508476  0.93823787  1  0.08233  -2.8e-05  0.959129  0.0  0.09478  1.3e-05  1.018025  0.0  0.097295  1e-05  1.017392  0.0  0.0976  0.09293  1.4e-05  1.018689  0.0
H  H33  1  0.28964250  0.96494545  0.06177387  1  0.082247  3e-05  0.959257  0.0  0.094576  -1.3e-05  1.018314  0.0  0.09709  -1e-05  1.017659  0.0  0.097462  0.092721  -1.4e-05  1.018992  0.0
C  C34  1  0.26912612  0.04004798  0.60027582  1  0.644132  0.0015  3.844587  0.003  0.596493  -0.002014  4.157169  -0.001  0.63174  -0.001368  4.150526  -0.001  0.209153  0.572256  -0.002444  4.16073  -0.002
C  C35  1  0.76909516  0.95992631  0.39972956  1  0.644205  -0.001512  3.843598  -0.003  0.596414  0.002013  4.15641  0.001  0.63167  0.001367  4.149754  0.001  0.20926  0.572179  0.002441  4.159942  0.002
C  C36  1  0.01043499  0.10714991  0.64709978  1  0.002828  0.001106  3.628832  0.003  -0.015549  -0.000788  3.86379  0.001  -0.01433  -0.000363  3.874132  0.001  -0.001062  -0.016123  -0.001105  3.856994  0.001
C  C37  1  0.51039838  0.89284540  0.35290082  1  0.002906  -0.001087  3.628811  -0.003  -0.015413  0.000801  3.863664  -0.001  -0.014192  0.000369  3.873984  -0.001  -0.001021  -0.015991  0.001106  3.85686  -0.001
C  C38  1  0.04765389  0.13071072  0.74937068  1  0.047027  -9.7e-05  3.748204  0.0  0.065452  -4.6e-05  3.981304  0.0  0.064994  0.000327  4.005253  0.0  -0.014818  0.065328  -0.000387  3.964943  0.0
C  C39  1  0.54759573  0.86928682  0.25063370  1  0.047038  5.1e-05  3.748307  0.0  0.065422  4.2e-05  3.981396  0.0  0.064975  -0.00033  4.005329  0.0  -0.014764  0.06529  0.000387  3.965045  0.0
C  C40  1  0.26273761  0.21464724  0.79081377  1  -0.112579  -0.003546  3.72966  -0.003  -0.132546  -0.001659  3.973083  -0.002  -0.135492  -0.00136  3.994836  -0.001  -0.092407  -0.13067  -0.002083  3.958704  -0.002
C  C41  1  0.76267798  0.78535818  0.20918782  1  -0.11267  0.003597  3.729451  0.003  -0.132606  0.00166  3.972932  0.002  -0.135569  0.001362  3.994698  0.001  -0.092438  -0.130744  0.002085  3.958526  0.002
C  C42  1  0.87754944  0.06684723  0.80309273  1  -0.110532  -0.004064  3.745244  -0.004  -0.131035  -0.001907  3.993368  -0.002  -0.133997  -0.001513  4.015581  -0.002  -0.090209  -0.129309  -0.002304  3.978487  -0.002
C  C43  1  0.37750278  0.93315949  0.19691681  1  -0.11056  0.004117  3.745121  0.004  -0.130962  0.001911  3.993174  0.002  -0.133928  0.001516  4.015383  0.002  -0.090254  -0.129234  0.002305  3.978282  0.002
C  C44  1  0.03780409  0.44315918  0.39730308  1  0.646983  0.00354  3.803844  0.006  0.603673  -0.000198  4.109101  0.001  0.640051  -0.0  4.101992  0.001  0.213388  0.579129  -0.000278  4.112534  0.002
C  C45  1  0.53779400  0.55684047  0.60269555  1  0.647136  -0.003535  3.803835  -0.006  0.603819  0.000202  4.109075  -0.001  0.6402  4e-06  4.101958  -0.001  0.213524  0.579287  0.000279  4.112488  -0.002
C  C46  1  0.23484452  0.33148984  0.34266292  1  0.013515  0.001727  3.608637  0.004  -0.008273  -0.000155  3.845903  0.002  -0.007468  0.000241  3.858984  0.002  0.003786  -0.008728  -0.000491  3.836797  0.001
C  C47  1  0.73485437  0.66850800  0.65733621  1  0.013445  -0.001737  3.60853  -0.004  -0.008341  0.000171  3.845791  -0.002  -0.007534  -0.000244  3.858867  -0.002  0.003819  -0.008787  0.000491  3.836675  -0.001
C  C48  1  0.38141968  0.36213327  0.26022712  1  0.05984  -0.002996  3.701474  -0.003  0.078633  -0.002048  3.933132  -0.002  0.078837  -0.001587  3.956636  -0.002  -0.014075  0.079279  -0.002232  3.91647  -0.002
C  C49  1  0.88143637  0.63786267  0.73976829  1  0.060025  0.003011  3.701102  0.003  0.078786  0.002048  3.932767  0.002  0.078991  0.001585  3.956266  0.002  -0.013939  0.079432  0.002232  3.916111  0.002
C  C50  1  0.60290991  0.27627074  0.22669605  1  -0.120997  -0.00065  3.740753  0.0  -0.141667  -0.000528  3.986349  0.0  -0.144964  -0.000399  4.008393  0.0  -0.098905  -0.139616  -0.000651  3.972195  0.0
C  C51  1  0.10292514  0.72372580  0.77330173  1  -0.12101  0.000623  3.740907  0.0  -0.141665  0.000528  3.986456  0.0  -0.144958  0.000399  4.008499  0.0  -0.098947  -0.139595  0.000651  3.972326  0.0
C  C52  1  0.73563945  0.29277675  0.14799960  1  -0.06338  0.000231  3.793574  0.0  -0.073985  1.6e-05  4.04059  0.0  -0.075977  9e-06  4.063794  0.0  -0.094068  -0.07376  -7.1e-05  4.026343  0.0
C  C53  1  0.23565740  0.70722860  0.85199522  1  -0.063451  -0.000194  3.793731  0.0  -0.074084  -1.6e-05  4.040735  0.0  -0.076077  -7e-06  4.063942  0.0  -0.094117  -0.073855  7.1e-05  4.026482  0.0
C  C54  1  0.65166462  0.39651585  0.10128105  1  -0.08118  -0.000168  3.792327  0.0  -0.095765  -8.1e-05  4.041428  0.0  -0.098332  -2.5e-05  4.063922  0.0  -0.097267  -0.09439  -0.000153  4.027323  0.0
C  C55  1  0.15169015  0.60348400  0.89871736  1  -0.081042  0.000157  3.792032  0.0  -0.095587  8.4e-05  4.041112  0.0  -0.098157  2.3e-05  4.063615  0.0  -0.097223  -0.094209  0.000153  4.027005  0.0
C  C56  1  0.42928038  0.48077944  0.13307365  1  -0.068357  -0.00077  3.802001  -0.001  -0.080189  -0.00039  4.048985  -0.001  -0.082402  -0.000248  4.072232  0.0  -0.096142  -0.078672  -0.000585  4.033405  -0.001
C  C57  1  0.92930743  0.51921980  0.86692040  1  -0.068427  0.000774  3.802191  0.001  -0.080269  0.000389  4.04918  0.001  -0.082491  0.000249  4.072434  0.0  -0.096089  -0.078745  0.000584  4.033605  0.001
C  C58  1  0.29340490  0.46321803  0.21128163  1  -0.138585  -0.000707  3.767815  -0.001  -0.15783  -0.000641  4.012648  -0.001  -0.160721  -0.000376  4.033392  -0.001  -0.102525  -0.155275  -0.000874  3.997389  -0.001
C  C59  1  0.79342725  0.53677454  0.78871499  1  -0.138592  0.000684  3.767637  0.001  -0.157822  0.000642  4.012493  0.001  -0.160705  0.000376  4.03323  0.001  -0.10266  -0.155267  0.000874  3.997246  0.001
C  C60  1  0.30830217  0.23286227  0.88412128  1  -0.06304  0.002213  3.803262  0.002  -0.074192  0.000623  4.051125  0.001  -0.076058  0.000714  4.074049  0.001  -0.090967  -0.071797  0.000574  4.0347  0.001
C  C61  1  0.80823129  0.76714643  0.11587427  1  -0.063215  -0.002262  3.803051  -0.002  -0.074412  -0.00062  4.050852  -0.001  -0.076287  -0.000714  4.073808  -0.001  -0.091087  -0.072002  -0.000575  4.034395  -0.001
C  C62  1  0.13996700  0.16736016  0.93729886  1  -0.091514  -0.004657  3.788274  -0.004  -0.107213  -0.001923  4.037347  -0.002  -0.109699  -0.001475  4.059249  -0.001  -0.097848  -0.105435  -0.00249  4.021856  -0.002
C  C63  1  0.63990231  0.83265688  0.06270519  1  -0.091374  0.004684  3.788148  0.004  -0.107036  0.001922  4.037197  0.002  -0.109525  0.001476  4.059107  0.001  -0.097833  -0.105258  0.00249  4.021698  0.002
C  C64  1  0.92352600  0.08504754  0.89680221  1  -0.068906  0.002377  3.794363  0.002  -0.080576  0.000657  4.04374  0.001  -0.082446  0.000754  4.066022  0.001  -0.09253  -0.078721  0.000609  4.028392  0.001
C  C65  1  0.42347008  0.91496354  0.10320209  1  -0.068747  -0.002417  3.79413  -0.002  -0.08033  -0.000656  4.043453  -0.001  -0.082187  -0.000754  4.06573  -0.001  -0.092356  -0.078477  -0.00061  4.028099  -0.001
N  N66  1  0.94174875  0.24103286  0.61653141  1  -0.601052  -0.075288  3.118749  -0.091  -0.586222  -0.050684  3.391676  -0.063  -0.614267  -0.0421  3.388415  -0.055  -0.637787  -0.568789  -0.055239  3.395689  -0.066
N  N67  1  0.44173448  0.75895352  0.38346760  1  -0.60098  0.075288  3.118835  0.091  -0.586121  0.050684  3.391713  0.063  -0.614126  0.042103  3.388432  0.055  -0.637721  -0.568654  0.055245  3.395723  0.066
N  N68  1  0.41213556  0.28935777  0.41140772  1  -0.612632  -0.089713  3.153684  -0.108  -0.599475  -0.059942  3.429493  -0.076  -0.630348  -0.049261  3.428461  -0.066  -0.647561  -0.580412  -0.065023  3.432021  -0.079
N  N69  1  0.91213305  0.71064037  0.58858945  1  -0.612551  0.089711  3.153776  0.108  -0.599387  0.059926  3.429561  0.076  -0.630227  0.049258  3.42851  0.066  -0.647521  -0.580296  0.065011  3.432089  0.079
O  O70  1  0.39430632  0.11041912  0.54867691  1  -0.605691  -0.074813  2.062241  -0.099  -0.563478  -0.052421  2.342863  -0.075  -0.603082  -0.042341  2.333291  -0.063  -0.326542  -0.536799  -0.058643  2.349797  -0.081
O  O71  1  0.89430512  0.88956930  0.45131286  1  -0.605576  0.074772  2.062621  0.099  -0.563438  0.052405  2.343419  0.075  -0.603  0.042329  2.333829  0.063  -0.326592  -0.536743  0.058625  2.350358  0.081
O  O72  1  0.34907871  0.92365196  0.61657439  1  -0.611272  -0.015019  1.959478  -0.018  -0.579243  -0.008733  2.212058  -0.011  -0.605293  -0.005294  2.201181  -0.006  -0.312027  -0.56015  -0.012721  2.218828  -0.016
O  O73  1  0.84906484  0.07635789  0.38342146  1  -0.611469  0.015044  1.958157  0.018  -0.579351  0.008726  2.210761  0.011  -0.605422  0.00529  2.199907  0.006  -0.312138  -0.560255  0.012733  2.217524  0.016
O  O74  1  0.95813591  0.41115035  0.47290912  1  -0.613405  -0.085522  2.078292  -0.113  -0.575743  -0.058839  2.358129  -0.084  -0.617155  -0.046772  2.349616  -0.07  -0.331756  -0.547802  -0.066661  2.36413  -0.092
O  O75  1  0.45810655  0.58885542  0.52709459  1  -0.613429  0.085539  2.078414  0.113  -0.575828  0.058847  2.358328  0.084  -0.617164  0.04678  2.349709  0.07  -0.331789  -0.547869  0.066673  2.364343  0.092
O  O76  1  0.95277828  0.54963085  0.37017393  1  -0.59541  -0.015984  1.968589  -0.019  -0.561124  -0.009075  2.215441  -0.011  -0.588604  -0.005483  2.205644  -0.007  -0.306649  -0.541074  -0.012733  2.220839  -0.016
O  O77  1  0.45280443  0.45035984  0.62982037  1  -0.595391  0.016001  1.968447  0.019  -0.561126  0.009066  2.215363  0.011  -0.588636  0.005485  2.205595  0.007  -0.306699  -0.541103  0.012741  2.220768  0.016
