# generated using pymatgen
data_Cd3H16C8(N8Cl3)2
_symmetry_space_group_name_H-M   'P 1'
_cell_length_a   9.11563492
_cell_length_b   9.41846835
_cell_length_c   9.02251386
_cell_angle_alpha   71.48087221
_cell_angle_beta   72.00140829
_cell_angle_gamma   60.94248379
_symmetry_Int_Tables_number   1
_chemical_formula_structural   Cd3H16C8(N8Cl3)2
_chemical_formula_sum   'Cd3 H16 C8 N16 Cl6'
_cell_volume   630.78022915
_cell_formula_units_Z   1
loop_
 _symmetry_equiv_pos_site_id
 _symmetry_equiv_pos_as_xyz
  1  'x, y, z'
loop_
 _atom_site_type_symbol
 _atom_site_label
 _atom_site_symmetry_multiplicity
 _atom_site_fract_x
 _atom_site_fract_y
 _atom_site_fract_z
 _atom_site_occupancy
 _atom_site_hle17_bader_spin_density
 _atom_site_hle17_ddec_charge
 _atom_site_hle17_ddec_spin_density
 _atom_site_hle17_ddec_sum_bond_order
 _atom_site_hle17_magmom
 _atom_site_hse06_10hf_bader_spin_density
 _atom_site_hse06_10hf_ddec_charge
 _atom_site_hse06_10hf_ddec_spin_density
 _atom_site_hse06_10hf_ddec_sum_bond_order
 _atom_site_hse06_10hf_magmom
 _atom_site_hse06_bader_spin_density
 _atom_site_hse06_ddec_charge
 _atom_site_hse06_ddec_spin_density
 _atom_site_hse06_ddec_sum_bond_order
 _atom_site_hse06_magmom
 _atom_site_pbe_bader_spin_density
 _atom_site_pbe_cm5_charge
 _atom_site_pbe_ddec_charge
 _atom_site_pbe_ddec_spin_density
 _atom_site_pbe_ddec_sum_bond_order
 _atom_site_pbe_magmom
Cd  Cd0  1  0.00000927  0.99999782  0.00000252  1  0  0.949858  0  1.948329  0  0  0.751725  0  2.42103  0  0  0.799738  0  2.381125  0  0  0.688762  0.717991  0  2.447987  0
Cd  Cd1  1  0.87885641  0.37246686  0.64695625  1  0  0.958442  0  1.997771  0  0  0.795808  0  2.464009  0  0  0.841124  0  2.42348  0  0  0.591739  0.76383  0  2.491444  0
Cd  Cd2  1  0.12115928  0.62752722  0.35301701  1  0  0.958337  0  1.997827  0  0  0.795687  0  2.464084  0  0  0.841001  0  2.423557  0  0  0.591673  0.76371  0  2.491515  0
H  H3  1  0.84369502  0.28795783  0.27138087  1  0  0.114479  0  0.946618  0  0  0.124503  0  1.010275  0  0  0.126676  0  1.007439  0  0  0.134285  0.122866  0  1.012338  0
H  H4  1  0.15628618  0.71204689  0.72861069  1  0  0.114413  0  0.946741  0  0  0.124496  0  1.010335  0  0  0.12667  0  1.007497  0  0  0.13423  0.122859  0  1.0124  0
H  H5  1  0.59475384  0.65423311  0.90317432  1  0  0.127287  0  0.910126  0  0  0.136071  0  0.973414  0  0  0.139062  0  0.969906  0  0  0.146052  0.133902  0  0.975829  0
H  H6  1  0.40528875  0.34577382  0.09678527  1  0  0.127295  0  0.910061  0  0  0.136087  0  0.97329  0  0  0.139035  0  0.969833  0  0  0.146009  0.133918  0  0.975706  0
H  H7  1  0.27081043  0.15143932  0.07449398  1  0  0.122595  0  0.917707  0  0  0.130136  0  0.983199  0  0  0.133421  0  0.97916  0  0  0.143969  0.127702  0  0.986129  0
H  H8  1  0.72917741  0.84858220  0.92555873  1  0  0.122642  0  0.917627  0  0  0.130178  0  0.983149  0  0  0.133464  0  0.979108  0  0  0.143954  0.127745  0  0.98608  0
H  H9  1  0.29478529  0.81478355  0.51625626  1  0  0.116947  0  0.957901  0  0  0.124262  0  1.025396  0  0  0.127266  0  1.021635  0  0  0.13192  0.121948  0  1.028283  0
H  H10  1  0.70523846  0.18516121  0.48374621  1  0  0.117152  0  0.957814  0  0  0.124331  0  1.025473  0  0  0.127334  0  1.021714  0  0  0.131988  0.122017  0  1.028359  0
H  H11  1  0.37926508  0.03436905  0.48047336  1  0  0.290125  0  0.903919  0  0  0.282191  0  0.968281  0  0  0.287245  0  0.964263  0  0  0.296452  0.278476  0  0.971332  0
H  H12  1  0.62040095  0.96577796  0.51970231  1  0  0.290398  0  0.903197  0  0  0.282268  0  0.96779  0  0  0.287309  0  0.963802  0  0  0.296701  0.278556  0  0.970841  0
H  H13  1  0.29417730  0.20640259  0.35665085  1  0  0.273011  0  0.963199  0  0  0.257751  0  1.043126  0  0  0.262674  0  1.039096  0  0  0.268061  0.254123  0  1.046123  0
H  H14  1  0.70591750  0.79360934  0.64323990  1  0  0.273149  0  0.963329  0  0  0.257897  0  1.043232  0  0  0.26282  0  1.039199  0  0  0.268063  0.254269  0  1.046231  0
H  H15  1  0.72549921  0.63150571  0.24381381  1  0  0.289084  0  0.917769  0  0  0.275899  0  0.992205  0  0  0.281199  0  0.987091  0  0  0.278713  0.272033  0  0.995988  0
H  H16  1  0.27450116  0.36849731  0.75617014  1  0  0.289056  0  0.917755  0  0  0.275865  0  0.992193  0  0  0.281163  0  0.987084  0  0  0.278689  0.271999  0  0.995971  0
H  H17  1  0.55065354  0.60135685  0.30679943  1  0  0.279126  0  0.942997  0  0  0.262576  0  1.0242  0  0  0.267792  0  1.019518  0  0  0.27232  0.258802  0  1.027608  0
H  H18  1  0.44935021  0.39864365  0.69318097  1  0  0.279246  0  0.942696  0  0  0.262693  0  1.023885  0  0  0.267907  0  1.01921  0  0  0.272362  0.258919  0  1.027293  0
C  C19  1  0.79715911  0.34539448  0.16056167  1  0  0.152041  0  3.640037  0  0  0.071675  0  3.907479  0  0  0.085036  0  3.91927  0  0  0.155428  0.063111  0  3.899341  0
C  C20  1  0.20283608  0.65460989  0.83942455  1  0  0.151976  0  3.640302  0  0  0.071534  0  3.907757  0  0  0.084883  0  3.919565  0  0  0.155436  0.062969  0  3.899618  0
C  C21  1  0.67218516  0.53548689  0.96962683  1  0  0.15867  0  3.618049  0  0  0.079102  0  3.890683  0  0  0.092147  0  3.901703  0  0  0.162798  0.070876  0  3.88294  0
C  C22  1  0.32784344  0.46452037  0.03034032  1  0  0.158628  0  3.6184  0  0  0.079093  0  3.890998  0  0  0.092163  0  3.902042  0  0  0.162792  0.070865  0  3.88325  0
C  C23  1  0.25319791  0.05473627  0.17201176  1  0  0.141429  0  3.60146  0  0  0.065695  0  3.869832  0  0  0.078367  0  3.880208  0  0  0.157209  0.057399  0  3.86295  0
C  C24  1  0.74679801  0.94527161  0.82802629  1  0  0.141207  0  3.601232  0  0  0.065433  0  3.869711  0  0  0.078106  0  3.880088  0  0  0.157229  0.057133  0  3.86283  0
C  C25  1  0.26085302  0.88331471  0.40075127  1  0  0.130371  0  3.617898  0  0  0.05547  0  3.88295  0  0  0.068016  0  3.894356  0  0  0.151646  0.047268  0  3.875429  0
C  C26  1  0.73916260  0.11665475  0.59925891  1  0  0.130286  0  3.617937  0  0  0.055504  0  3.883075  0  0  0.06805  0  3.894479  0  0  0.151685  0.047301  0  3.875554  0
N  N27  1  0.83233404  0.27308383  0.04279613  1  0  -0.248264  0  3.188643  0  0  -0.185267  0  3.476947  0  0  -0.201673  0  3.496111  0  0  -0.242459  -0.174066  0  3.463592  0
N  N28  1  0.16767864  0.72692011  0.95718591  1  0  -0.248072  0  3.188581  0  0  -0.185092  0  3.476886  0  0  -0.201498  0  3.496059  0  0  -0.242406  -0.173893  0  3.46353  0
N  N29  1  0.75349192  0.39280321  0.92187674  1  0  -0.254569  0  3.148975  0  0  -0.205342  0  3.437854  0  0  -0.220502  0  3.456882  0  0  -0.248323  -0.195011  0  3.424569  0
N  N30  1  0.24654278  0.60719775  0.07809501  1  0  -0.254729  0  3.148991  0  0  -0.205447  0  3.437801  0  0  -0.220606  0  3.456821  0  0  -0.248339  -0.195116  0  3.424517  0
N  N31  1  0.19046506  0.85052846  0.31528093  1  0  -0.252234  0  3.199028  0  0  -0.199002  0  3.494811  0  0  -0.2143  0  3.513241  0  0  -0.244894  -0.188678  0  3.482203  0
N  N32  1  0.80956882  0.14944429  0.68470366  1  0  -0.252335  0  3.199186  0  0  -0.199103  0  3.494929  0  0  -0.214405  0  3.513366  0  0  -0.245012  -0.188777  0  3.48232  0
N  N33  1  0.18367823  0.95946029  0.17186605  1  0  -0.249955  0  3.138648  0  0  -0.197384  0  3.43122  0  0  -0.211544  0  3.448722  0  0  -0.237968  -0.187799  0  3.419258  0
N  N34  1  0.81635247  0.04053088  0.82813565  1  0  -0.249556  0  3.138327  0  0  -0.196949  0  3.430885  0  0  -0.211111  0  3.448395  0  0  -0.237783  -0.187363  0  3.418921  0
N  N35  1  0.69812099  0.51118205  0.11790404  1  0  0.073572  0  3.61008  0  0  0.195775  0  3.795125  0  0  0.183978  0  3.816439  0  0  -0.146336  0.20209  0  3.782859  0
N  N36  1  0.30188533  0.48882329  0.88207509  1  0  0.073739  0  3.610173  0  0  0.19594  0  3.795217  0  0  0.18419  0  3.816445  0  0  -0.146266  0.202256  0  3.782943  0
N  N37  1  0.30075573  0.01127719  0.31478631  1  0  0.097203  0  3.610811  0  0  0.213286  0  3.801405  0  0  0.204769  0  3.819748  0  0  -0.140688  0.218373  0  3.789031  0
N  N38  1  0.69923287  0.98871247  0.68525666  1  0  0.096851  0  3.61096  0  0  0.212972  0  3.801417  0  0  0.204453  0  3.819756  0  0  -0.140975  0.218068  0  3.789035  0
N  N39  1  0.37828440  0.08278736  0.36123973  1  0  -0.495089  0  2.878812  0  0  -0.516596  0  3.108859  0  0  -0.52717  0  3.109055  0  0  -0.496618  -0.508668  0  3.108741  0
N  N40  1  0.62169495  0.91716924  0.63886684  1  0  -0.49536  0  2.878513  0  0  -0.516702  0  3.108808  0  0  -0.527271  0  3.108999  0  0  -0.496751  -0.508782  0  3.108698  0
N  N41  1  0.62763335  0.63569153  0.20604833  1  0  -0.518587  0  2.889271  0  0  -0.542919  0  3.124006  0  0  -0.549655  0  3.122184  0  0  -0.508274  -0.537641  0  3.125436  0
N  N42  1  0.37236935  0.36431144  0.79393269  1  0  -0.518716  0  2.88897  0  0  -0.543045  0  3.123703  0  0  -0.549792  0  3.121883  0  0  -0.50831  -0.537767  0  3.125131  0
Cl  Cl43  1  0.01496611  0.40530316  0.34239229  1  0  -0.594969  0  1.055359  0  0  -0.531542  0  1.339497  0  0  -0.550659  0  1.319552  0  0  -0.296394  -0.517546  0  1.352901  0
Cl  Cl44  1  0.98504930  0.59469707  0.65757793  1  0  -0.59499  0  1.055483  0  0  -0.531545  0  1.339577  0  0  -0.550666  0  1.319636  0  0  -0.296369  -0.517551  0  1.352982  0
Cl  Cl45  1  0.58409466  0.60102721  0.59408779  1  0  -0.6221  0  0.866106  0  0  -0.562018  0  1.124817  0  0  -0.579063  0  1.106749  0  0  -0.34922  -0.549454  0  1.137112  0
Cl  Cl46  1  0.41591982  0.39894237  0.40589167  1  0  -0.622106  0  0.866011  0  0  -0.562032  0  1.124734  0  0  -0.579067  0  1.106655  0  0  -0.349235  -0.549473  0  1.137038  0
Cl  Cl47  1  0.16190830  0.13244117  0.74450832  1  0  -0.56349  0  0.958468  0  0  -0.505962  0  1.239294  0  0  -0.524038  0  1.218117  0  0  -0.32375  -0.492906  0  1.253533  0
Cl  Cl48  1  0.83811607  0.86755143  0.25547826  1  0  -0.563493  0  0.958442  0  0  -0.505956  0  1.239222  0  0  -0.524033  0  1.218057  0  0  -0.323794  -0.492884  0  1.253429  0
