# generated using pymatgen
data_CdH22C20N2O5
_symmetry_space_group_name_H-M   'P 1'
_cell_length_a   8.67121308
_cell_length_b   10.20259158
_cell_length_c   10.92756901
_cell_angle_alpha   81.35948218
_cell_angle_beta   81.98616766
_cell_angle_gamma   83.79419301
_symmetry_Int_Tables_number   1
_chemical_formula_structural   CdH22C20N2O5
_chemical_formula_sum   'Cd2 H44 C40 N4 O10'
_cell_volume   942.68548525
_cell_formula_units_Z   2
loop_
 _symmetry_equiv_pos_site_id
 _symmetry_equiv_pos_as_xyz
  1  'x, y, z'
loop_
 _atom_site_type_symbol
 _atom_site_label
 _atom_site_symmetry_multiplicity
 _atom_site_fract_x
 _atom_site_fract_y
 _atom_site_fract_z
 _atom_site_occupancy
 _atom_site_pbe_bader_spin_density
 _atom_site_pbe_cm5_charge
 _atom_site_pbe_ddec_charge
 _atom_site_pbe_ddec_spin_density
 _atom_site_pbe_ddec_sum_bond_order
 _atom_site_pbe_magmom
Cd  Cd0  1  0.74959588  0.13046659  0.37967378  1  0  0.771681  0.892181  0  2.143367  0
Cd  Cd1  1  0.25040509  0.86953498  0.62032497  1  0  0.77169  0.892192  0  2.143399  0
H  H2  1  0.64893087  0.92214422  0.59996855  1  0  0.278488  0.383258  0  0.9611  0
H  H3  1  0.35106894  0.07785733  0.40003124  1  0  0.278511  0.383253  0  0.961096  0
H  H4  1  0.83507181  0.88704722  0.56064097  1  0  0.280082  0.386508  0  0.95429  0
H  H5  1  0.16492809  0.11295334  0.43935893  1  0  0.280077  0.38649  0  0.954317  0
H  H6  1  0.69568105  0.85096408  0.34207261  1  0  0.111093  0.079762  0  1.032206  0
H  H7  1  0.30431433  0.14903559  0.65792330  1  0  0.111066  0.079754  0  1.032205  0
H  H8  1  0.77308692  0.67569359  0.20505605  1  0  0.104704  0.110003  0  1.049469  0
H  H9  1  0.22691098  0.32430406  0.79494076  1  0  0.104682  0.109987  0  1.04942  0
H  H10  1  0.16233603  0.89765526  0.03287992  1  0  0.109601  0.129928  0  1.024261  0
H  H11  1  0.83766321  0.10234037  0.96711883  1  0  0.109611  0.129982  0  1.024202  0
H  H12  1  0.06288247  0.06854858  0.17533994  1  0  0.116597  0.085047  0  1.000987  0
H  H13  1  0.93711669  0.93144806  0.82465778  1  0  0.116564  0.085001  0  1.001013  0
H  H14  1  0.11688531  0.69847365  0.94529272  1  0  0.106802  0.125465  0  1.021427  0
H  H15  1  0.88311500  0.30152296  0.05470580  1  0  0.106814  0.125447  0  1.021457  0
H  H16  1  0.88932065  0.51837258  0.12149849  1  0  0.101459  0.10152  0  1.041284  0
H  H17  1  0.11068103  0.48162205  0.87849921  1  0  0.101454  0.10149  0  1.041278  0
H  H18  1  0.82052538  0.16694938  0.64293079  1  0  0.113731  0.083051  0  1.022703  0
H  H19  1  0.17947567  0.83305114  0.35707083  1  0  0.113745  0.083071  0  1.02267  0
H  H20  1  0.74233391  0.30242413  0.81573397  1  0  0.104812  0.107534  0  1.055968  0
H  H21  1  0.25766723  0.69757538  0.18426868  1  0  0.104772  0.107489  0  1.055992  0
H  H22  1  0.34469796  0.47468109  0.62990656  1  0  0.107376  0.12004  0  1.045516  0
H  H23  1  0.65530211  0.52531743  0.37009632  1  0  0.107389  0.120004  0  1.045486  0
H  H24  1  0.43926265  0.32805002  0.46429153  1  0  0.11748  0.087864  0  0.998115  0
H  H25  1  0.56073492  0.67195053  0.53570953  1  0  0.117492  0.087872  0  0.998089  0
H  H26  1  0.38901620  0.56245609  0.81673855  1  0  0.108105  0.123765  0  1.010783  0
H  H27  1  0.61098496  0.43754346  0.18326226  1  0  0.108105  0.123753  0  1.010777  0
H  H28  1  0.61356352  0.37551191  0.97650639  1  0  0.103074  0.10377  0  1.033716  0
H  H29  1  0.38643704  0.62449358  0.02349467  1  0  0.103056  0.103752  0  1.033679  0
H  H30  1  0.32491320  0.20876560  0.11152160  1  0  0.097784  0.114911  0  0.975055  0
H  H31  1  0.67508659  0.79123592  0.88848003  1  0  0.097786  0.114913  0  0.97504  0
H  H32  1  0.33267990  0.04214876  0.18521189  1  0  0.092657  0.100453  0  1.015177  0
H  H33  1  0.66731764  0.95785175  0.81479193  1  0  0.09269  0.100472  0  1.015125  0
H  H34  1  0.34941138  0.06459916  0.94929079  1  0  0.082128  0.075336  0  1.019379  0
H  H35  1  0.65058608  0.93540237  0.05071108  1  0  0.082139  0.075341  0  1.019398  0
H  H36  1  0.52409874  0.14229251  0.93608570  1  0  0.082775  0.07527  0  1.021651  0
H  H37  1  0.47589988  0.85770901  0.06391605  1  0  0.082773  0.07525  0  1.021651  0
H  H38  1  0.07907401  0.50059168  0.28107155  1  0  0.090987  0.10447  0  1.017974  0
H  H39  1  0.92092478  0.49940900  0.71892205  1  0  0.090986  0.104443  0  1.017984  0
H  H40  1  0.21068667  0.36368160  0.33252007  1  0  0.095473  0.109786  0  0.991596  0
H  H41  1  0.78931975  0.63632398  0.66747487  1  0  0.095446  0.109731  0  0.99158  0
H  H42  1  0.09594857  0.37419508  0.55364044  1  0  0.086659  0.082035  0  1.001363  0
H  H43  1  0.90405066  0.62581250  0.44635592  1  0  0.086656  0.082047  0  1.001394  0
H  H44  1  0.17392554  0.52392798  0.48216188  1  0  0.086607  0.081238  0  1.018199  0
H  H45  1  0.82607505  0.47607760  0.51783458  1  0  0.086584  0.081213  0  1.018286  0
C  C46  1  0.79835390  0.85721349  0.27219892  1  0  0.039715  0.087248  0  3.975913  0
C  C47  1  0.20164488  0.14278718  0.72779559  1  0  0.039745  0.087266  0  3.975705  0
C  C48  1  0.84344638  0.75930256  0.19640313  1  0  -0.083762  -0.175367  0  3.936082  0
C  C49  1  0.15654675  0.24069607  0.80359589  1  0  -0.0838  -0.175397  0  3.936233  0
C  C50  1  0.97643863  0.77072794  0.10676463  1  0  0.005624  0.144447  0  4.020544  0
C  C51  1  0.02355917  0.22927071  0.89323207  1  0  0.005675  0.14459  0  4.02082  0
C  C52  1  0.05799717  0.88435924  0.10034458  1  0  -0.083306  -0.186407  0  3.916977  0
C  C53  1  0.94200189  0.11563839  0.89965303  1  0  -0.083301  -0.18648  0  3.917075  0
C  C54  1  0.00385755  0.97851117  0.17967402  1  0  0.046958  0.093855  0  3.970026  0
C  C55  1  0.99614023  0.02148744  0.82032452  1  0  0.04702  0.093937  0  3.970071  0
C  C56  1  0.02787071  0.67143903  0.02375320  1  0  -0.087166  -0.149946  0  3.918733  0
C  C57  1  0.97212865  0.32855562  0.97624475  1  0  -0.087197  -0.150008  0  3.918911  0
C  C58  1  0.97374260  0.54868437  0.04079791  1  0  -0.08181  -0.059483  0  3.994883  0
C  C59  1  0.02625897  0.45131125  0.95920060  1  0  -0.081818  -0.059472  0  3.99485  0
C  C60  1  0.71495867  0.23555701  0.64449359  1  0  0.039315  0.087467  0  3.9771  0
C  C61  1  0.28504140  0.76444151  0.35550930  1  0  0.039293  0.08746  0  3.977079  0
C  C62  1  0.67034468  0.31111725  0.74055778  1  0  -0.085242  -0.177112  0  3.940569  0
C  C63  1  0.32965423  0.68888128  0.25944522  1  0  -0.085201  -0.177071  0  3.940517  0
C  C64  1  0.53436735  0.40045163  0.73874250  1  0  0.005939  0.145745  0  4.01532  0
C  C65  1  0.46563270  0.59954684  0.26126314  1  0  0.005925  0.145668  0  4.015333  0
C  C66  1  0.45083053  0.40735073  0.63587080  1  0  -0.082366  -0.188018  0  3.930191  0
C  C67  1  0.54916962  0.59264673  0.36413587  1  0  -0.082339  -0.187823  0  3.930099  0
C  C68  1  0.50279947  0.32615071  0.54411610  1  0  0.046475  0.094225  0  3.981352  0
C  C69  1  0.49720186  0.67384679  0.45588769  1  0  0.046471  0.09418  0  3.981355  0
C  C70  1  0.47914219  0.48140389  0.83712172  1  0  -0.082664  -0.137828  0  3.907366  0
C  C71  1  0.52086004  0.51859665  0.16287886  1  0  -0.08261  -0.137737  0  3.907269  0
C  C72  1  0.52897946  0.45976415  0.95204696  1  0  -0.078824  -0.057086  0  3.9815  0
C  C73  1  0.47102141  0.54023842  0.04795168  1  0  -0.078849  -0.057102  0  3.981336  0
C  C74  1  0.53610581  0.14283668  0.18846075  1  0  0.199956  0.620376  0  4.15978  0
C  C75  1  0.46389154  0.85716583  0.81154193  1  0  0.199902  0.620282  0  4.159855  0
C  C76  1  0.40154167  0.11514366  0.12250640  1  0  -0.168016  -0.293262  0  3.921838  0
C  C77  1  0.59845947  0.88485585  0.87749625  1  0  -0.168046  -0.29324  0  3.92188  0
C  C78  1  0.45337456  0.06818833  0.99553126  1  0  -0.171805  -0.122131  0  3.935116  0
C  C79  1  0.54662415  0.93181219  0.00447152  1  0  -0.171784  -0.12206  0  3.93512  0
C  C80  1  0.97193969  0.31932619  0.34974279  1  0  0.198739  0.624335  0  4.149831  0
C  C81  1  0.02806167  0.68067138  0.65025733  1  0  0.198558  0.624004  0  4.149865  0
C  C82  1  0.09353388  0.41457095  0.35331492  1  0  -0.168792  -0.29571  0  3.921986  0
C  C83  1  0.90647060  0.58543062  0.64668255  1  0  -0.16872  -0.295477  0  3.921832  0
C  C84  1  0.07845515  0.46115657  0.48235039  1  0  -0.166564  -0.122678  0  3.909351  0
C  C85  1  0.92154779  0.53884904  0.51764400  1  0  -0.166568  -0.122777  0  3.909506  0
N  N86  1  0.87614313  0.96624443  0.26414795  1  0  -0.333277  -0.241434  0  3.506861  0
N  N87  1  0.12385593  0.03375322  0.73584874  1  0  -0.333316  -0.241501  0  3.506796  0
N  N88  1  0.63290737  0.24213375  0.54704151  1  0  -0.334965  -0.250043  0  3.504058  0
N  N89  1  0.36709515  0.75786380  0.45295941  1  0  -0.334998  -0.250112  0  3.504138  0
O  O90  1  0.51425832  0.12336842  0.30982851  1  0  -0.337828  -0.584662  0  2.266384  0
O  O91  1  0.48574147  0.87663310  0.69017312  1  0  -0.337801  -0.584631  0  2.266319  0
O  O92  1  0.65936748  0.18283779  0.12736736  1  0  -0.322427  -0.570997  0  2.179705  0
O  O93  1  0.34062978  0.81716571  0.87263520  1  0  -0.322395  -0.57095  0  2.179728  0
O  O94  1  0.84756458  0.36011080  0.30190801  1  0  -0.327951  -0.577993  0  2.180386  0
O  O95  1  0.15244238  0.63988867  0.69809495  1  0  -0.327824  -0.577827  0  2.180246  0
O  O96  1  0.99655832  0.19810948  0.40165716  1  0  -0.328663  -0.572598  0  2.224869  0
O  O97  1  0.00344622  0.80189099  0.59834593  1  0  -0.328662  -0.572532  0  2.22488  0
O  O98  1  0.74075053  0.94527953  0.53743937  1  0  -0.607438  -0.798151  0  2.077871  0
O  O99  1  0.25924939  0.05472106  0.46255870  1  0  -0.607457  -0.798119  0  2.077866  0
