# generated using pymatgen
data_TlH4C7S2NO2
_symmetry_space_group_name_H-M   'P 1'
_cell_length_a   7.80150076
_cell_length_b   10.72838379
_cell_length_c   11.21847433
_cell_angle_alpha   90.00004277
_cell_angle_beta   104.95465260
_cell_angle_gamma   90.00055431
_symmetry_Int_Tables_number   1
_chemical_formula_structural   TlH4C7S2NO2
_chemical_formula_sum   'Tl4 H16 C28 S8 N4 O8'
_cell_volume   907.15602393
_cell_formula_units_Z   4
loop_
 _symmetry_equiv_pos_site_id
 _symmetry_equiv_pos_as_xyz
  1  'x, y, z'
loop_
 _atom_site_type_symbol
 _atom_site_label
 _atom_site_symmetry_multiplicity
 _atom_site_fract_x
 _atom_site_fract_y
 _atom_site_fract_z
 _atom_site_occupancy
 _atom_site_hle17_bader_spin_density
 _atom_site_hle17_ddec_charge
 _atom_site_hle17_ddec_spin_density
 _atom_site_hle17_ddec_sum_bond_order
 _atom_site_hle17_magmom
 _atom_site_hse06_10hf_bader_spin_density
 _atom_site_hse06_10hf_ddec_charge
 _atom_site_hse06_10hf_ddec_spin_density
 _atom_site_hse06_10hf_ddec_sum_bond_order
 _atom_site_hse06_10hf_magmom
 _atom_site_hse06_bader_spin_density
 _atom_site_hse06_ddec_charge
 _atom_site_hse06_ddec_spin_density
 _atom_site_hse06_ddec_sum_bond_order
 _atom_site_hse06_magmom
 _atom_site_pbe_bader_spin_density
 _atom_site_pbe_cm5_charge
 _atom_site_pbe_ddec_charge
 _atom_site_pbe_ddec_spin_density
 _atom_site_pbe_ddec_sum_bond_order
 _atom_site_pbe_magmom
Tl  Tl0  1  0.32746205  0.36955743  0.37006496  1  0  0.748626  0  0.83154  0  0  0.632107  0  1.141419  0  0  0.662025  0  1.119724  0  0  0.348367  0.609613  0  1.155829  0
Tl  Tl1  1  0.82745843  0.13044489  0.37006345  1  0  0.748624  0  0.831527  0  0  0.63209  0  1.14143  0  0  0.662018  0  1.11971  0  0  0.348362  0.609592  0  1.15583  0
Tl  Tl2  1  0.67253904  0.63044520  0.62993581  1  0  0.748632  0  0.831536  0  0  0.632109  0  1.141426  0  0  0.662031  0  1.11972  0  0  0.34837  0.609615  0  1.155839  0
Tl  Tl3  1  0.17254001  0.86955774  0.62993685  1  0  0.748629  0  0.83153  0  0  0.632093  0  1.141436  0  0  0.662023  0  1.11971  0  0  0.348366  0.609597  0  1.155845  0
H  H4  1  0.15424282  0.50550577  0.99552722  1  0  0.095445  0  0.975316  0  0  0.107012  0  1.037352  0  0  0.109305  0  1.037048  0  0  0.10504  0.105298  0  1.037721  0
H  H5  1  0.65424050  0.99449359  0.99552532  1  0  0.095487  0  0.975273  0  0  0.107059  0  1.037302  0  0  0.109351  0  1.036999  0  0  0.105035  0.105346  0  1.037666  0
H  H6  1  0.84576092  0.49449313  0.00447314  1  0  0.095448  0  0.975283  0  0  0.107012  0  1.037328  0  0  0.109303  0  1.037025  0  0  0.105004  0.105298  0  1.037697  0
H  H7  1  0.34575528  0.00550252  0.00447362  1  0  0.095512  0  0.975271  0  0  0.107062  0  1.037329  0  0  0.109353  0  1.037028  0  0  0.105068  0.105345  0  1.037696  0
H  H8  1  0.07962624  0.31124105  0.09732123  1  0  0.090853  0  0.962223  0  0  0.10108  0  1.025169  0  0  0.104162  0  1.023959  0  0  0.102762  0.09975  0  1.024134  0
H  H9  1  0.57962479  0.18875931  0.09731836  1  0  0.090871  0  0.962198  0  0  0.101102  0  1.025126  0  0  0.104186  0  1.023914  0  0  0.102789  0.099766  0  1.024106  0
H  H10  1  0.92037352  0.68875878  0.90267842  1  0  0.090865  0  0.962179  0  0  0.101074  0  1.025145  0  0  0.10417  0  1.02392  0  0  0.102773  0.099745  0  1.024117  0
H  H11  1  0.42036966  0.81123772  0.90267855  1  0  0.090826  0  0.962234  0  0  0.101046  0  1.025175  0  0  0.104134  0  1.023959  0  0  0.102748  0.099713  0  1.024158  0
H  H12  1  0.06417141  0.10898534  0.99343440  1  0  0.097089  0  0.960878  0  0  0.106262  0  1.024587  0  0  0.109453  0  1.02274  0  0  0.100557  0.103645  0  1.026825  0
H  H13  1  0.56417422  0.39101374  0.99343512  1  0  0.097057  0  0.960976  0  0  0.106256  0  1.024643  0  0  0.10945  0  1.022797  0  0  0.100544  0.103636  0  1.026887  0
H  H14  1  0.93582703  0.89101449  0.00656412  1  0  0.097125  0  0.96088  0  0  0.106248  0  1.024657  0  0  0.109437  0  1.022806  0  0  0.10056  0.103638  0  1.026882  0
H  H15  1  0.43582289  0.60898236  0.00656495  1  0  0.097104  0  0.960797  0  0  0.106238  0  1.024567  0  0  0.10943  0  1.022719  0  0  0.100551  0.10363  0  1.026784  0
H  H16  1  0.12281340  0.09118968  0.78468008  1  0  0.084234  0  0.994656  0  0  0.090669  0  1.069075  0  0  0.093771  0  1.06743  0  0  0.09557  0.088328  0  1.070621  0
H  H17  1  0.62281913  0.40881338  0.78468312  1  0  0.08422  0  0.994697  0  0  0.09065  0  1.069115  0  0  0.093742  0  1.067504  0  0  0.095559  0.088311  0  1.070662  0
H  H18  1  0.87718370  0.90881295  0.21531642  1  0  0.084246  0  0.994674  0  0  0.090677  0  1.069087  0  0  0.093769  0  1.067478  0  0  0.095572  0.088336  0  1.070634  0
H  H19  1  0.37718196  0.59118552  0.21532033  1  0  0.084207  0  0.994665  0  0  0.090636  0  1.069087  0  0  0.093726  0  1.067484  0  0  0.095553  0.088295  0  1.070636  0
C  C20  1  0.17406266  0.40315019  0.83334135  1  0  -0.147166  0  3.751193  0  0  -0.126018  0  3.993096  0  0  -0.131325  0  4.01415  0  0  -0.015489  -0.121958  0  3.978855  0
C  C21  1  0.67406386  0.09685326  0.83334067  1  0  -0.147073  0  3.751337  0  0  -0.125908  0  3.993224  0  0  -0.131216  0  4.014279  0  0  -0.015466  -0.121852  0  3.978994  0
C  C22  1  0.82593578  0.59685243  0.16665896  1  0  -0.147212  0  3.75123  0  0  -0.126053  0  3.993154  0  0  -0.131361  0  4.014206  0  0  -0.015509  -0.121987  0  3.978908  0
C  C23  1  0.32594121  0.90314657  0.16666081  1  0  -0.147075  0  3.751297  0  0  -0.12589  0  3.993217  0  0  -0.131197  0  4.014271  0  0  -0.015436  -0.121829  0  3.978973  0
C  C24  1  0.14605023  0.41531786  0.94992596  1  0  -0.058991  0  3.743711  0  0  -0.080198  0  3.985369  0  0  -0.080029  0  4.004277  0  0  -0.0805  -0.080023  0  3.972434  0
C  C25  1  0.64604993  0.08468362  0.94992411  1  0  -0.059149  0  3.743865  0  0  -0.080366  0  3.985531  0  0  -0.0802  0  4.004441  0  0  -0.080533  -0.080186  0  3.972589  0
C  C26  1  0.85394953  0.58468290  0.05007458  1  0  -0.059006  0  3.743738  0  0  -0.080207  0  3.985382  0  0  -0.080039  0  4.004296  0  0  -0.080475  -0.08003  0  3.972447  0
C  C27  1  0.35394851  0.91531435  0.05007530  1  0  -0.059167  0  3.743803  0  0  -0.080372  0  3.985461  0  0  -0.080205  0  4.004375  0  0  -0.080589  -0.08019  0  3.972517  0
C  C28  1  0.10621580  0.30668963  0.00663701  1  0  -0.055927  0  3.718056  0  0  -0.067255  0  3.964704  0  0  -0.06904  0  3.984706  0  0  -0.079089  -0.066158  0  3.950437  0
C  C29  1  0.60621840  0.19331085  0.00663487  1  0  -0.055929  0  3.718133  0  0  -0.06725  0  3.964777  0  0  -0.069033  0  3.984779  0  0  -0.079121  -0.066151  0  3.9505  0
C  C30  1  0.89378131  0.69331020  0.99336217  1  0  -0.055916  0  3.718075  0  0  -0.067225  0  3.964703  0  0  -0.069024  0  3.984701  0  0  -0.079095  -0.066134  0  3.950452  0
C  C31  1  0.39377871  0.80668432  0.99336252  1  0  -0.055866  0  3.718136  0  0  -0.067152  0  3.964735  0  0  -0.06894  0  3.984732  0  0  -0.079058  -0.06606  0  3.950479  0
C  C32  1  0.09770203  0.19125692  0.94740348  1  0  -0.052341  0  3.718481  0  0  -0.069105  0  3.971259  0  0  -0.069964  0  3.990678  0  0  -0.083673  -0.068779  0  3.959297  0
C  C33  1  0.59770499  0.30874422  0.94740594  1  0  -0.052336  0  3.718521  0  0  -0.069101  0  3.971243  0  0  -0.069966  0  3.990666  0  0  -0.083662  -0.068775  0  3.959276  0
C  C34  1  0.90229507  0.80874385  0.05259302  1  0  -0.052462  0  3.718457  0  0  -0.06919  0  3.971243  0  0  -0.070043  0  3.990657  0  0  -0.083718  -0.068864  0  3.959286  0
C  C35  1  0.40229213  0.69125374  0.05259680  1  0  -0.052392  0  3.718622  0  0  -0.069136  0  3.97138  0  0  -0.069996  0  3.990802  0  0  -0.083686  -0.068813  0  3.959425  0
C  C36  1  0.13017741  0.18094416  0.83096073  1  0  -0.064635  0  3.701497  0  0  -0.086452  0  3.950529  0  0  -0.087278  0  3.970014  0  0  -0.078617  -0.085651  0  3.937107  0
C  C37  1  0.63018050  0.31906085  0.83095878  1  0  -0.064613  0  3.701406  0  0  -0.086422  0  3.950452  0  0  -0.087252  0  3.96993  0  0  -0.078595  -0.085621  0  3.937032  0
C  C38  1  0.86982103  0.81905940  0.16903957  1  0  -0.064601  0  3.701427  0  0  -0.086398  0  3.950453  0  0  -0.087228  0  3.969926  0  0  -0.078609  -0.085597  0  3.937028  0
C  C39  1  0.36982059  0.68093991  0.16904111  1  0  -0.064569  0  3.701547  0  0  -0.086341  0  3.950595  0  0  -0.087169  0  3.970071  0  0  -0.078584  -0.085539  0  3.937174  0
C  C40  1  0.16784878  0.28854202  0.77321758  1  0  0.001111  0  3.793532  0  0  0.014802  0  4.023014  0  0  0.010786  0  4.046494  0  0  -0.009125  0.017482  0  4.006195  0
C  C41  1  0.66785032  0.21145855  0.77321705  1  0  0.001159  0  3.793483  0  0  0.01481  0  4.023011  0  0  0.010796  0  4.046491  0  0  -0.009104  0.017487  0  4.006206  0
C  C42  1  0.83214965  0.71145874  0.22678272  1  0  0.001173  0  3.793467  0  0  0.014812  0  4.023005  0  0  0.010795  0  4.046488  0  0  -0.00911  0.017491  0  4.006187  0
C  C43  1  0.33215475  0.78853942  0.22678533  1  0  0.001145  0  3.793393  0  0  0.014723  0  4.023017  0  0  0.010706  0  4.046499  0  0  -0.009127  0.017398  0  4.006203  0
C  C44  1  0.20758300  0.30293478  0.65078979  1  0  0.299557  0  3.824741  0  0  0.280166  0  4.10567  0  0  0.303532  0  4.116248  0  0  0.135957  0.264675  0  4.096354  0
C  C45  1  0.70758299  0.19706784  0.65078808  1  0  0.299482  0  3.824743  0  0  0.280093  0  4.105702  0  0  0.303458  0  4.116279  0  0  0.135913  0.264595  0  4.096393  0
C  C46  1  0.79241544  0.69706785  0.34921051  1  0  0.29951  0  3.824702  0  0  0.280142  0  4.105633  0  0  0.303509  0  4.116209  0  0  0.135944  0.264641  0  4.096325  0
C  C47  1  0.29241809  0.80293292  0.34921180  1  0  0.299488  0  3.824757  0  0  0.280125  0  4.105719  0  0  0.303493  0  4.116294  0  0  0.135931  0.264641  0  4.096393  0
S  S48  1  0.22017282  0.51778175  0.73183535  1  0  1.228486  0  5.356214  0  0  1.147326  0  5.851126  0  0  1.193319  0  5.834918  0  0  0.559517  1.114781  0  5.862695  0
S  S49  1  0.72016766  0.98222067  0.73183383  1  0  1.228649  0  5.356114  0  0  1.147488  0  5.851019  0  0  1.193479  0  5.834811  0  0  0.559626  1.114925  0  5.862604  0
S  S50  1  0.77982827  0.48221901  0.26816453  1  0  1.228552  0  5.356192  0  0  1.147378  0  5.851116  0  0  1.193372  0  5.834907  0  0  0.559542  1.114807  0  5.862709  0
S  S51  1  0.27983608  0.01778010  0.26816742  1  0  1.228497  0  5.356231  0  0  1.147339  0  5.851144  0  0  1.193334  0  5.834934  0  0  0.559544  1.114783  0  5.862727  0
S  S52  1  0.22764559  0.17935515  0.56180520  1  0  -0.433954  0  1.997913  0  0  -0.39051  0  2.330424  0  0  -0.415885  0  2.331421  0  0  -0.144834  -0.373065  0  2.331353  0
S  S53  1  0.72764605  0.32064661  0.56180456  1  0  -0.433955  0  1.99799  0  0  -0.390507  0  2.330506  0  0  -0.415872  0  2.331488  0  0  -0.144827  -0.373055  0  2.331437  0
S  S54  1  0.77235550  0.82064654  0.43819379  1  0  -0.433957  0  1.99799  0  0  -0.390506  0  2.330477  0  0  -0.415877  0  2.331472  0  0  -0.144827  -0.373052  0  2.331404  0
S  S55  1  0.27235504  0.67935416  0.43819710  1  0  -0.433946  0  1.997956  0  0  -0.390506  0  2.330474  0  0  -0.415877  0  2.33147  0  0  -0.144828  -0.373067  0  2.331404  0
N  N56  1  0.23555627  0.42057793  0.62124405  1  0  -0.562604  0  2.860282  0  0  -0.508925  0  3.144009  0  0  -0.532108  0  3.148077  0  0  -0.345833  -0.492824  0  3.140366  0
N  N57  1  0.73555590  0.07942393  0.62124397  1  0  -0.562567  0  2.860274  0  0  -0.508889  0  3.144007  0  0  -0.532075  0  3.148076  0  0  -0.345803  -0.492783  0  3.140368  0
N  N58  1  0.76444349  0.57942190  0.37875559  1  0  -0.562554  0  2.8602  0  0  -0.508874  0  3.143912  0  0  -0.532058  0  3.147979  0  0  -0.345809  -0.492777  0  3.140296  0
N  N59  1  0.26444652  0.92057683  0.37875704  1  0  -0.562579  0  2.860275  0  0  -0.508896  0  3.143996  0  0  -0.53208  0  3.148062  0  0  -0.345826  -0.492788  0  3.140333  0
O  O60  1  0.39044063  0.57881766  0.78257947  1  0  -0.631379  0  1.94477  0  0  -0.574224  0  2.190694  0  0  -0.598948  0  2.182325  0  0  -0.306066  -0.556444  0  2.195248  0
O  O61  1  0.89044388  0.92118786  0.78257940  1  0  -0.63144  0  1.944659  0  0  -0.574279  0  2.190572  0  0  -0.599003  0  2.182199  0  0  -0.306084  -0.55649  0  2.195125  0
O  O62  1  0.60956179  0.42118403  0.21742154  1  0  -0.63139  0  1.944883  0  0  -0.574232  0  2.190817  0  0  -0.598955  0  2.182449  0  0  -0.306047  -0.556441  0  2.195375  0
O  O63  1  0.10955588  0.07881290  0.21741847  1  0  -0.631403  0  1.944561  0  0  -0.574262  0  2.190493  0  0  -0.598987  0  2.18212  0  0  -0.306082  -0.556478  0  2.195043  0
O  O64  1  0.07017555  0.60258242  0.69239825  1  0  -0.638411  0  1.978645  0  0  -0.576734  0  2.232832  0  0  -0.601774  0  2.223302  0  0  -0.304541  -0.558664  0  2.238005  0
O  O65  1  0.57018111  0.89741984  0.69239768  1  0  -0.638503  0  1.97868  0  0  -0.576829  0  2.232879  0  0  -0.601866  0  2.223344  0  0  -0.304624  -0.558752  0  2.238055  0
O  O66  1  0.92982421  0.39742114  0.30760229  1  0  -0.638468  0  1.978558  0  0  -0.576786  0  2.23275  0  0  -0.601823  0  2.223217  0  0  -0.30458  -0.558706  0  2.237923  0
O  O67  1  0.42981865  0.10258186  0.30760197  1  0  -0.638371  0  1.978797  0  0  -0.57669  0  2.232985  0  0  -0.601728  0  2.223454  0  0  -0.304546  -0.558621  0  2.238161  0
