# generated using pymatgen
data_CdH4(C3N4)2
_symmetry_space_group_name_H-M   'P 1'
_cell_length_a   6.59240708
_cell_length_b   8.22313317
_cell_length_c   17.78426957
_cell_angle_alpha   90.00001802
_cell_angle_beta   89.99997628
_cell_angle_gamma   105.67660249
_symmetry_Int_Tables_number   1
_chemical_formula_structural   CdH4(C3N4)2
_chemical_formula_sum   'Cd4 H16 C24 N32'
_cell_volume   928.22750616
_cell_formula_units_Z   4
loop_
 _symmetry_equiv_pos_site_id
 _symmetry_equiv_pos_as_xyz
  1  'x, y, z'
loop_
 _atom_site_type_symbol
 _atom_site_label
 _atom_site_symmetry_multiplicity
 _atom_site_fract_x
 _atom_site_fract_y
 _atom_site_fract_z
 _atom_site_occupancy
 _atom_site_hle17_bader_spin_density
 _atom_site_hle17_ddec_charge
 _atom_site_hle17_ddec_spin_density
 _atom_site_hle17_ddec_sum_bond_order
 _atom_site_hle17_magmom
 _atom_site_hse06_10hf_bader_spin_density
 _atom_site_hse06_10hf_ddec_charge
 _atom_site_hse06_10hf_ddec_spin_density
 _atom_site_hse06_10hf_ddec_sum_bond_order
 _atom_site_hse06_10hf_magmom
 _atom_site_hse06_bader_spin_density
 _atom_site_hse06_ddec_charge
 _atom_site_hse06_ddec_spin_density
 _atom_site_hse06_ddec_sum_bond_order
 _atom_site_hse06_magmom
 _atom_site_pbe_bader_spin_density
 _atom_site_pbe_cm5_charge
 _atom_site_pbe_ddec_charge
 _atom_site_pbe_ddec_spin_density
 _atom_site_pbe_ddec_sum_bond_order
 _atom_site_pbe_magmom
Cd  Cd0  1  0.76706890  0.98035028  0.20938112  1  0  1.05687  0  1.919585  0  0  0.879447  0  2.393408  0  0  0.923726  0  2.35486  0  0  0.810288  0.848621  0  2.419315  0
Cd  Cd1  1  0.26706882  0.98035019  0.29061868  1  0  1.056825  0  1.919625  0  0  0.87941  0  2.393428  0  0  0.92369  0  2.35488  0  0  0.810272  0.848584  0  2.419334  0
Cd  Cd2  1  0.23293197  0.01964996  0.79061890  1  0  1.056855  0  1.91961  0  0  0.879436  0  2.393418  0  0  0.923716  0  2.354869  0  0  0.810292  0.848618  0  2.419322  0
Cd  Cd3  1  0.73293204  0.01965004  0.70938134  1  0  1.056856  0  1.919613  0  0  0.879436  0  2.393426  0  0  0.923714  0  2.354879  0  0  0.810282  0.848618  0  2.419328  0
H  H4  1  0.75148302  0.36167147  0.19372904  1  0  0.096145  0  0.955071  0  0  0.095184  0  1.034901  0  0  0.098325  0  1.031767  0  0  0.119065  0.092883  0  1.037114  0
H  H5  1  0.25148293  0.36167140  0.30627067  1  0  0.096138  0  0.955063  0  0  0.095177  0  1.034896  0  0  0.098318  0  1.031763  0  0  0.11906  0.092877  0  1.037109  0
H  H6  1  0.24851979  0.63833003  0.80627042  1  0  0.096112  0  0.955072  0  0  0.095165  0  1.034873  0  0  0.098305  0  1.031741  0  0  0.119055  0.092862  0  1.037085  0
H  H7  1  0.74851641  0.63832884  0.69372991  1  0  0.096146  0  0.955063  0  0  0.095197  0  1.034867  0  0  0.098338  0  1.031734  0  0  0.119063  0.092893  0  1.037081  0
H  H8  1  0.74125741  0.50438141  0.95905933  1  0  0.10977  0  0.96676  0  0  0.111387  0  1.042368  0  0  0.114236  0  1.04052  0  0  0.109281  0.1093  0  1.043637  0
H  H9  1  0.24125759  0.50438121  0.54094042  1  0  0.109688  0  0.966865  0  0  0.111342  0  1.042435  0  0  0.114189  0  1.040593  0  0  0.109263  0.109253  0  1.043701  0
H  H10  1  0.25874193  0.49561882  0.04093957  1  0  0.109705  0  0.966844  0  0  0.111357  0  1.042413  0  0  0.114205  0  1.040569  0  0  0.109276  0.109272  0  1.043678  0
H  H11  1  0.75874133  0.49561776  0.45906072  1  0  0.109688  0  0.966873  0  0  0.111343  0  1.042439  0  0  0.114192  0  1.040591  0  0  0.109268  0.109255  0  1.043704  0
H  H12  1  0.71812507  0.19976357  0.92597951  1  0  0.11595  0  0.962427  0  0  0.121766  0  1.024842  0  0  0.124517  0  1.025735  0  0  0.110525  0.119829  0  1.024369  0
H  H13  1  0.21812521  0.19976338  0.57402020  1  0  0.115949  0  0.962437  0  0  0.121761  0  1.024856  0  0  0.124514  0  1.025747  0  0  0.110523  0.119824  0  1.024383  0
H  H14  1  0.28187385  0.80023541  0.07401994  1  0  0.115976  0  0.962415  0  0  0.121783  0  1.024836  0  0  0.124536  0  1.025726  0  0  0.110518  0.119842  0  1.024362  0
H  H15  1  0.78187566  0.80023686  0.42597982  1  0  0.11595  0  0.962359  0  0  0.121764  0  1.024777  0  0  0.124516  0  1.025667  0  0  0.110517  0.119827  0  1.024303  0
H  H16  1  0.72018937  0.99682749  0.02892670  1  0  0.083024  0  0.960491  0  0  0.085752  0  1.03565  0  0  0.088482  0  1.032586  0  0  0.114912  0.083718  0  1.037887  0
H  H17  1  0.22018912  0.99682750  0.47107310  1  0  0.083045  0  0.960472  0  0  0.085778  0  1.03563  0  0  0.088509  0  1.032564  0  0  0.114919  0.083744  0  1.03787  0
H  H18  1  0.27980997  0.00317274  0.97107332  1  0  0.083066  0  0.960447  0  0  0.085798  0  1.035602  0  0  0.088528  0  1.032538  0  0  0.114933  0.083764  0  1.037842  0
H  H19  1  0.77981132  0.00317148  0.52892748  1  0  0.083065  0  0.960473  0  0  0.08579  0  1.035628  0  0  0.088519  0  1.032565  0  0  0.11492  0.083755  0  1.03787  0
C  C20  1  0.74542088  0.33097785  0.13380979  1  0  0.133511  0  3.630799  0  0  0.09077  0  3.882074  0  0  0.099444  0  3.898495  0  0  0.073365  0.085295  0  3.870923  0
C  C21  1  0.24542032  0.33097654  0.36618991  1  0  0.133506  0  3.630823  0  0  0.09076  0  3.882099  0  0  0.099431  0  3.89852  0  0  0.073371  0.085283  0  3.870949  0
C  C22  1  0.25458234  0.66902491  0.86618910  1  0  0.133534  0  3.630767  0  0  0.090789  0  3.88204  0  0  0.099463  0  3.898463  0  0  0.073385  0.085317  0  3.870886  0
C  C23  1  0.75457860  0.66902243  0.63381067  1  0  0.133492  0  3.630782  0  0  0.090744  0  3.882054  0  0  0.099417  0  3.898476  0  0  0.073352  0.085269  0  3.870906  0
C  C24  1  0.75041469  0.45437399  0.07871561  1  0  -0.035161  0  3.852422  0  0  -0.008862  0  4.084475  0  0  -0.017591  0  4.10654  0  0  0.010541  -0.003437  0  4.06988  0
C  C25  1  0.25041407  0.45437270  0.42128411  1  0  -0.035097  0  3.852457  0  0  -0.008794  0  4.084514  0  0  -0.017516  0  4.10658  0  0  0.010587  -0.003372  0  4.06992  0
C  C26  1  0.24958853  0.54562878  0.92128329  1  0  -0.035133  0  3.852429  0  0  -0.008839  0  4.084499  0  0  -0.01757  0  4.10657  0  0  0.010566  -0.003422  0  4.069907  0
C  C27  1  0.74958527  0.54562753  0.57871647  1  0  -0.035109  0  3.852452  0  0  -0.008809  0  4.084513  0  0  -0.017538  0  4.10658  0  0  0.010582  -0.003388  0  4.069921  0
C  C28  1  0.73912613  0.40954483  0.00219630  1  0  -0.015783  0  3.651801  0  0  -0.044237  0  3.896942  0  0  -0.03977  0  3.915487  0  0  -0.047857  -0.046662  0  3.884243  0
C  C29  1  0.23912628  0.40954610  0.49780342  1  0  -0.015745  0  3.651944  0  0  -0.044232  0  3.897076  0  0  -0.039767  0  3.915617  0  0  -0.047893  -0.046653  0  3.884369  0
C  C30  1  0.26087430  0.59045415  0.99780316  1  0  -0.015761  0  3.651894  0  0  -0.044246  0  3.897027  0  0  -0.039782  0  3.915577  0  0  -0.047899  -0.046664  0  3.884319  0
C  C31  1  0.76087415  0.59045287  0.50219660  1  0  -0.015718  0  3.651885  0  0  -0.044207  0  3.897018  0  0  -0.039744  0  3.915574  0  0  -0.047881  -0.046627  0  3.884311  0
C  C32  1  0.72712271  0.24281353  0.98408086  1  0  -0.103979  0  3.69517  0  0  -0.11368  0  3.947664  0  0  -0.123241  0  3.97043  0  0  -0.075376  -0.107707  0  3.932453  0
C  C33  1  0.22712181  0.24281457  0.51591942  1  0  -0.103981  0  3.695191  0  0  -0.113675  0  3.947694  0  0  -0.123236  0  3.970459  0  0  -0.075369  -0.107703  0  3.93248  0
C  C34  1  0.27287773  0.75718545  0.01591916  1  0  -0.103996  0  3.695207  0  0  -0.113679  0  3.947696  0  0  -0.12324  0  3.970462  0  0  -0.075365  -0.107701  0  3.932476  0
C  C35  1  0.77287862  0.75718440  0.48408117  1  0  -0.103939  0  3.695099  0  0  -0.113633  0  3.947587  0  0  -0.123195  0  3.970352  0  0  -0.075327  -0.107659  0  3.93237  0
C  C36  1  0.72622249  0.12784712  0.04170647  1  0  0.155085  0  3.659018  0  0  0.118477  0  3.916968  0  0  0.128167  0  3.932863  0  0  0.062484  0.112338  0  3.906088  0
C  C37  1  0.22622267  0.12784838  0.45829377  1  0  0.155031  0  3.659069  0  0  0.118408  0  3.917022  0  0  0.128101  0  3.932918  0  0  0.062466  0.112269  0  3.906144  0
C  C38  1  0.27377947  0.87215185  0.95829411  1  0  0.154967  0  3.659027  0  0  0.11834  0  3.916973  0  0  0.128028  0  3.93287  0  0  0.062437  0.1122  0  3.906093  0
C  C39  1  0.77377970  0.87215186  0.54170626  1  0  0.155001  0  3.659151  0  0  0.118405  0  3.917064  0  0  0.128095  0  3.93296  0  0  0.062477  0.112263  0  3.906187  0
C  C40  1  0.77283807  0.62436548  0.10066198  1  0  0.343305  0  3.691509  0  0  0.319942  0  3.955237  0  0  0.33405  0  3.974112  0  0  0.225128  0.310205  0  3.942939  0
C  C41  1  0.27283746  0.62436419  0.39933833  1  0  0.343305  0  3.691425  0  0  0.319931  0  3.955164  0  0  0.334037  0  3.974041  0  0  0.225139  0.310196  0  3.942869  0
C  C42  1  0.22716237  0.37563349  0.89933748  1  0  0.343278  0  3.691574  0  0  0.319915  0  3.955308  0  0  0.334021  0  3.974183  0  0  0.225132  0.310184  0  3.943014  0
C  C43  1  0.72716146  0.37563478  0.60066226  1  0  0.343277  0  3.691517  0  0  0.319914  0  3.955244  0  0  0.334022  0  3.97412  0  0  0.225124  0.31018  0  3.942951  0
N  N44  1  0.12989929  0.12376161  0.20041419  1  0  -0.624382  0  2.768561  0  0  -0.576679  0  3.078826  0  0  -0.604068  0  3.08562  0  0  -0.335355  -0.557758  0  3.073785  0
N  N45  1  0.62989775  0.12376174  0.29958550  1  0  -0.62432  0  2.768535  0  0  -0.576616  0  3.078792  0  0  -0.604008  0  3.085588  0  0  -0.335332  -0.557697  0  3.073749  0
N  N46  1  0.87009963  0.87623736  0.79958639  1  0  -0.624321  0  2.768559  0  0  -0.576645  0  3.078815  0  0  -0.604037  0  3.08561  0  0  -0.335332  -0.557728  0  3.073773  0
N  N47  1  0.37009965  0.87623723  0.70041396  1  0  -0.624324  0  2.768549  0  0  -0.576649  0  3.07881  0  0  -0.60404  0  3.085604  0  0  -0.335338  -0.557732  0  3.073767  0
N  N48  1  0.19542848  0.16182512  0.13767897  1  0  0.415856  0  4.228418  0  0  0.446582  0  4.512531  0  0  0.463186  0  4.541921  0  0  0.084717  0.435393  0  4.492559  0
N  N49  1  0.69542840  0.16182528  0.36232128  1  0  0.415791  0  4.228442  0  0  0.44651  0  4.512565  0  0  0.463116  0  4.541955  0  0  0.084688  0.435321  0  4.492593  0
N  N50  1  0.80457044  0.83817385  0.86232161  1  0  0.415787  0  4.228524  0  0  0.446518  0  4.512629  0  0  0.463121  0  4.542018  0  0  0.084672  0.435328  0  4.492657  0
N  N51  1  0.30457094  0.83817496  0.63767874  1  0  0.415864  0  4.22841  0  0  0.44659  0  4.51252  0  0  0.463194  0  4.541909  0  0  0.084713  0.435399  0  4.49255  0
N  N52  1  0.25378182  0.20117527  0.07679202  1  0  -0.385953  0  2.414279  0  0  -0.386854  0  2.648745  0  0  -0.394952  0  2.661076  0  0  -0.190013  -0.381006  0  2.640478  0
N  N53  1  0.75378168  0.20117545  0.42320767  1  0  -0.385922  0  2.414289  0  0  -0.386809  0  2.648755  0  0  -0.394907  0  2.661085  0  0  -0.189999  -0.38096  0  2.640486  0
N  N54  1  0.74621904  0.79882497  0.92320800  1  0  -0.385942  0  2.414376  0  0  -0.386819  0  2.648844  0  0  -0.394916  0  2.661173  0  0  -0.189995  -0.380973  0  2.64058  0
N  N55  1  0.24621876  0.79882352  0.57679179  1  0  -0.386002  0  2.414259  0  0  -0.386884  0  2.648748  0  0  -0.394981  0  2.661079  0  0  -0.190026  -0.381034  0  2.640483  0
N  N56  1  0.90791148  0.82782415  0.29513047  1  0  -0.635441  0  2.785335  0  0  -0.588132  0  3.093749  0  0  -0.615136  0  3.100914  0  0  -0.340843  -0.569466  0  3.088379  0
N  N57  1  0.40791277  0.82782782  0.20486928  1  0  -0.635514  0  2.78488  0  0  -0.588195  0  3.093308  0  0  -0.615203  0  3.100465  0  0  -0.340858  -0.569521  0  3.087935  0
N  N58  1  0.09208896  0.17217482  0.70486955  1  0  -0.635504  0  2.785063  0  0  -0.588179  0  3.093468  0  0  -0.61519  0  3.100639  0  0  -0.340873  -0.569511  0  3.0881  0
N  N59  1  0.59208700  0.17217368  0.79513074  1  0  -0.635519  0  2.78514  0  0  -0.588196  0  3.093598  0  0  -0.615193  0  3.100738  0  0  -0.340865  -0.569523  0  3.088221  0
N  N60  1  0.84023547  0.67661984  0.30256006  1  0  0.395293  0  4.239545  0  0  0.428934  0  4.518158  0  0  0.444606  0  4.549006  0  0  0.078843  0.418473  0  4.497117  0
N  N61  1  0.34023295  0.67661213  0.19743911  1  0  0.395342  0  4.2397  0  0  0.428975  0  4.518307  0  0  0.444646  0  4.549149  0  0  0.078876  0.418515  0  4.497265  0
N  N62  1  0.15976708  0.32338545  0.69743939  1  0  0.395302  0  4.239613  0  0  0.428942  0  4.518219  0  0  0.444615  0  4.549066  0  0  0.078847  0.418482  0  4.497183  0
N  N63  1  0.65976512  0.32338431  0.80256035  1  0  0.39532  0  4.23955  0  0  0.428958  0  4.518155  0  0  0.444632  0  4.549003  0  0  0.078846  0.418498  0  4.497118  0
N  N64  1  0.77364798  0.53168414  0.31180306  1  0  -0.363571  0  2.393502  0  0  -0.364568  0  2.619545  0  0  -0.371967  0  2.631531  0  0  -0.182995  -0.359394  0  2.611515  0
N  N65  1  0.27364970  0.53168906  0.18819723  1  0  -0.363521  0  2.394151  0  0  -0.364508  0  2.620175  0  0  -0.371901  0  2.632161  0  0  -0.182962  -0.359342  0  2.612149  0
N  N66  1  0.22635052  0.46831357  0.68819696  1  0  -0.363499  0  2.393877  0  0  -0.364501  0  2.619908  0  0  -0.371897  0  2.631897  0  0  -0.182939  -0.359326  0  2.611875  0
N  N67  1  0.72635092  0.46831496  0.81180279  1  0  -0.363507  0  2.393737  0  0  -0.364524  0  2.619769  0  0  -0.371921  0  2.631755  0  0  -0.182943  -0.359348  0  2.611736  0
N  N68  1  0.73295666  0.17110896  0.11481603  1  0  -0.318603  0  3.251893  0  0  -0.239619  0  3.515264  0  0  -0.259982  0  3.534259  0  0  -0.32149  -0.225887  0  3.502021  0
N  N69  1  0.23295413  0.17110640  0.38518421  1  0  -0.318568  0  3.25194  0  0  -0.239576  0  3.515309  0  0  -0.25994  0  3.534306  0  0  -0.321491  -0.225846  0  3.502069  0
N  N70  1  0.26704657  0.82889380  0.88518343  1  0  -0.318519  0  3.251846  0  0  -0.239522  0  3.515211  0  0  -0.259884  0  3.534207  0  0  -0.321463  -0.225792  0  3.501969  0
N  N71  1  0.76704479  0.82889257  0.61481637  1  0  -0.318609  0  3.251964  0  0  -0.239627  0  3.515344  0  0  -0.259988  0  3.534336  0  0  -0.32152  -0.225896  0  3.502105  0
N  N72  1  0.79840599  0.76558355  0.11744255  1  0  -0.421949  0  2.735126  0  0  -0.375636  0  2.99255  0  0  -0.392058  0  3.002944  0  0  -0.305246  -0.364766  0  2.985817  0
N  N73  1  0.29840540  0.76558225  0.38255721  1  0  -0.421939  0  2.735034  0  0  -0.375621  0  2.992459  0  0  -0.392042  0  3.002854  0  0  -0.305242  -0.364754  0  2.985728  0
N  N74  1  0.20159420  0.23441921  0.88255747  1  0  -0.421909  0  2.73519  0  0  -0.3756  0  2.992621  0  0  -0.392021  0  3.003016  0  0  -0.305243  -0.364734  0  2.985892  0
N  N75  1  0.70159309  0.23441546  0.61744281  1  0  -0.421932  0  2.735119  0  0  -0.375624  0  2.992549  0  0  -0.392046  0  3.002945  0  0  -0.305241  -0.364758  0  2.98582  0
