# generated using pymatgen
data_Zr6H49C64N5O32
_symmetry_space_group_name_H-M   'P 1'
_cell_length_a   14.84324327
_cell_length_b   14.84886513
_cell_length_c   14.84361917
_cell_angle_alpha   59.87639040
_cell_angle_beta   59.94611745
_cell_angle_gamma   59.89714232
_symmetry_Int_Tables_number   1
_chemical_formula_structural   Zr6H49C64N5O32
_chemical_formula_sum   'Zr6 H49 C64 N5 O32'
_cell_volume   2308.47331221
_cell_formula_units_Z   1
loop_
 _symmetry_equiv_pos_site_id
 _symmetry_equiv_pos_as_xyz
  1  'x, y, z'
loop_
 _atom_site_type_symbol
 _atom_site_label
 _atom_site_symmetry_multiplicity
 _atom_site_fract_x
 _atom_site_fract_y
 _atom_site_fract_z
 _atom_site_occupancy
 _atom_site_pbe_bader_charge
 _atom_site_pbe_bader_spin_density
 _atom_site_pbe_cm5_charge
 _atom_site_pbe_ddec_charge
 _atom_site_pbe_ddec_spin_density
 _atom_site_pbe_ddec_sum_bond_order
 _atom_site_pbe_magmom
Zr  Zr0  1  0.88295918  0.37612990  0.62203854  1  2.635787  0  1.628616  2.372807  0  2.755814  0
Zr  Zr1  1  0.11922453  0.61757345  0.38193893  1  2.631293  0  1.62253  2.364854  0  2.756395  0
Zr  Zr2  1  0.12063241  0.38023665  0.62076098  1  2.627313  0  1.62269  2.358815  0  2.784202  0
Zr  Zr3  1  0.88289201  0.61474067  0.38293313  1  2.634734  0  1.629013  2.368909  0  2.758982  0
Zr  Zr4  1  0.88200214  0.61448521  0.62222157  1  2.632508  0  1.625614  2.36347  0  2.774865  0
Zr  Zr5  1  0.12177163  0.37571041  0.38582218  1  2.630545  0  1.627464  2.364583  0  2.779221  0
H  H6  1  0.90963793  0.40350037  0.78447375  1  0.61838  0  0.328453  0.419149  0  0.867795  0
H  H7  1  0.90746430  0.77793018  0.40800726  1  0.610823  0  0.328662  0.417532  0  0.867701  0
H  H8  1  0.28317674  0.40514024  0.40904784  1  0.628882  0  0.33141  0.424425  0  0.85518  0
H  H9  1  0.90893017  0.40190399  0.40923179  1  0.612121  0  0.333049  0.423693  0  0.85736  0
H  H10  1  0.56873084  0.37486240  0.89316155  1  0.06857  0  0.105245  0.116972  0  1.016613  0
H  H11  1  0.54879555  0.74732814  0.89133786  1  0.029945  0  0.088947  0.094671  0  0.996194  0
H  H12  1  0.63552674  0.64569708  0.97309566  1  0.04758  0  0.090078  0.096687  0  1.014767  0
H  H13  1  0.46892215  0.63536916  0.14489496  1  0.058609  0  0.090709  0.098621  0  1.006059  0
H  H14  1  0.38099138  0.73918300  0.06518058  1  0.048504  0  0.092989  0.101738  0  0.999485  0
H  H15  1  0.86814461  0.07845975  0.65123874  1  0.125872  0  0.105644  0.120518  0  1.007458  0
H  H16  1  0.24081838  0.05902428  0.29639134  1  0.032354  0  0.087139  0.089529  0  1.030922  0
H  H17  1  0.13632934  0.13822907  0.23336469  1  0.034208  0  0.087858  0.092303  0  1.00075  0
H  H18  1  0.13846234  0.96206781  0.24360760  1  0.054778  0  0.094837  0.106372  0  0.98472  0
H  H19  1  0.23583205  0.88322500  0.31544382  1  0.056578  0  0.089872  0.100358  0  1.016292  0
H  H20  1  0.60172287  0.91401524  0.63622324  1  0.083904  0  0.10263  0.11601  0  1.017785  0
H  H21  1  0.51128157  0.85373704  0.36799596  1  0.038132  0  0.091065  0.100294  0  0.997348  0
H  H22  1  0.59705200  0.93646379  0.26555462  1  0.052838  0  0.091752  0.100147  0  1.000596  0
H  H23  1  0.42882451  0.10869434  0.27209723  1  0.045322  0  0.091062  0.099106  0  1.000348  0
H  H24  1  0.34404038  0.02554594  0.37491165  1  0.04312  0  0.095937  0.108557  0  1.002151  0
H  H25  1  0.14731737  0.35106707  0.09071235  1  0.073845  0  0.100435  0.109863  0  1.025221  0
H  H26  1  0.85721301  0.76313198  0.02744704  1  0.051284  0  0.095158  0.105928  0  0.983892  0
H  H27  1  0.76460472  0.68637484  0.10826416  1  0.047435  0  0.09091  0.096544  0  0.992766  0
H  H28  1  0.77100448  0.68880750  0.93365400  1  0.034143  0  0.089438  0.093358  0  1.025089  0
H  H29  1  0.86816341  0.76056553  0.85382373  1  0.048401  0  0.091114  0.096097  0  1.023875  0
H  H30  1  0.81382684  0.26189081  0.93203803  1  0.073125  0  0.095629  0.098338  0  1.046761  0
H  H31  1  0.65473604  0.26598764  0.10251636  1  0.066247  0  0.095654  0.095582  0  1.015603  0
H  H32  1  0.81260855  0.92477351  0.26570506  1  0.05958  0  0.09658  0.098069  0  1.050755  0
H  H33  1  0.65441219  0.09574793  0.27122783  1  0.061254  0  0.097799  0.09671  0  1.014484  0
H  H34  1  0.58261347  0.65032369  0.36710844  1  0.059621  0  0.103224  0.114327  0  1.02211  0
H  H35  1  0.52934984  0.33531773  0.76605310  1  0.025373  0  0.087735  0.092447  0  1.005475  0
H  H36  1  0.61443823  0.25187648  0.67945540  1  0.043771  0  0.0905  0.097681  0  0.994556  0
H  H37  1  0.44536996  0.26035903  0.67056230  1  0.048461  0  0.086616  0.094778  0  1.024288  0
H  H38  1  0.35909117  0.34245210  0.75893635  1  0.068097  0  0.086688  0.097769  0  1.030241  0
H  H39  1  0.32342364  0.35004456  0.13219955  1  0.515363  0  0.305176  0.31608  0  0.98697  0
H  H40  1  0.42234171  0.30618685  0.01804045  1  0.445205  0  0.313639  0.307563  0  0.941033  0
H  H41  1  0.83725868  0.83783824  0.68220365  1  0.497379  0  0.302696  0.310507  0  0.990806  0
H  H42  1  0.79482391  0.93650505  0.73951738  1  0.421907  0  0.309813  0.30198  0  0.94345  0
H  H43  1  0.35779688  0.15234688  0.67109361  1  0.491563  0  0.304562  0.311255  0  0.990079  0
H  H44  1  0.46872596  0.04930621  0.71771889  1  0.431944  0  0.312158  0.303705  0  0.941013  0
H  H45  1  0.16409532  0.31879322  0.85798937  1  0.487388  0  0.3027  0.309243  0  0.991039  0
H  H46  1  0.20581204  0.25855825  0.97219341  1  0.437605  0  0.308821  0.297956  0  0.944772  0
H  H47  1  0.34429620  0.67779936  0.33404892  1  0.497004  0  0.303533  0.310206  0  0.993008  0
H  H48  1  0.45367270  0.72580473  0.27967569  1  0.412218  0  0.311448  0.30295  0  0.941901  0
H  H49  1  0.19874265  0.75683098  0.93231501  1  0.036767  0  0.096018  0.131632  0  0.984437  0
H  H50  1  0.19218240  0.72458208  0.06770031  1  0.077394  0  0.094631  0.140234  0  1.034687  0
H  H51  1  0.27201635  0.80558574  0.95155631  1  0.028658  0  0.09274  0.127765  0  1.002657  0
H  H52  1  0.26583592  0.98100068  0.79920617  1  0.039738  0  0.088704  0.122078  0  1.011532  0
H  H53  1  0.17604684  0.05521971  0.72141611  1  0.040061  0  0.095124  0.139254  0  1.007557  0
H  H54  1  0.21739068  0.90888120  0.77767523  1  0.037352  0  0.095156  0.130408  0  0.995692  0
C  C55  1  0.69429833  0.50070870  0.80063982  1  1.542424  0  0.237932  0.645829  0  4.097781  0
C  C56  1  0.99794558  0.80120107  0.50411478  1  1.507773  0  0.230125  0.652003  0  4.096179  0
C  C57  1  0.30007221  0.49975767  0.19378604  1  1.500715  0  0.229708  0.64955  0  4.104258  0
C  C58  1  0.00577521  0.19163851  0.50224552  1  1.535185  0  0.236077  0.645603  0  4.100085  0
C  C59  1  0.00630536  0.18893499  0.80226276  1  1.562514  0  0.238989  0.661028  0  4.088131  0
C  C60  1  0.69461809  0.50093346  0.50765226  1  1.554945  0  0.237995  0.648754  0  4.095148  0
C  C61  1  0.00519446  0.79608983  0.19314274  1  1.541592  0  0.240591  0.661934  0  4.086036  0
C  C62  1  0.29903279  0.50799981  0.50432797  1  1.500659  0  0.230437  0.654023  0  4.092849  0
C  C63  1  0.00781426  0.50057462  0.80217075  1  1.512467  0  0.231087  0.653471  0  4.097039  0
C  C64  1  0.30392704  0.19048672  0.50944389  1  1.497205  0  0.229671  0.648127  0  4.106337  0
C  C65  1  0.00849824  0.49872207  0.19644545  1  1.548167  0  0.236718  0.647019  0  4.097507  0
C  C66  1  0.69551294  0.79433784  0.50564165  1  1.540698  0  0.237401  0.646475  0  4.097266  0
C  C67  1  0.59018319  0.50511756  0.89666136  1  -0.012976  0  -0.013083  -0.056515  0  4.013523  0
C  C68  1  0.39513876  0.50173170  0.09099516  1  0.006938  0  -0.030324  -0.218622  0  3.929847  0
C  C69  1  0.54492069  0.57825740  0.95342260  1  0.001839  0  -0.02512  0.019085  0  3.922476  0
C  C70  1  0.43830441  0.42908650  0.03072954  1  0.467288  0  0.114567  0.310678  0  4.067025  0
C  C71  1  0.45166459  0.57474540  0.04721029  1  -0.040611  0  -0.00707  0.079923  0  3.929428  0
C  C72  1  0.53491400  0.43239083  0.93637304  1  0.0064  0  -0.098313  -0.230349  0  3.935531  0
C  C73  1  0.55891538  0.66875400  0.96024465  1  -0.024421  0  -0.156041  -0.193855  0  3.904266  0
C  C74  1  0.45364567  0.66367809  0.06814448  1  -0.043666  0  -0.155341  -0.199412  0  3.885761  0
C  C75  1  0.00215017  0.09533648  0.49850745  1  0.024675  0  -0.014425  -0.059412  0  4.020616  0
C  C76  1  0.99368646  0.90279183  0.50315754  1  0.08308  0  -0.028822  -0.213416  0  3.92688  0
C  C77  1  0.07250460  0.05133598  0.41250716  1  -0.016259  0  -0.024166  0.018154  0  3.913308  0
C  C78  1  0.91652889  0.95157726  0.58818047  1  0.417547  0  0.110713  0.307193  0  4.063564  0
C  C79  1  0.06805745  0.95776799  0.41718711  1  -0.067021  0  -0.004951  0.085024  0  3.920807  0
C  C80  1  0.92484367  0.04430709  0.58439891  1  -0.07167  0  -0.101372  -0.229373  0  3.939004  0
C  C81  1  0.16264656  0.06401667  0.30030239  1  -0.012662  0  -0.156483  -0.189739  0  3.898729  0
C  C82  1  0.16051330  0.95491859  0.30796213  1  -0.038177  0  -0.155726  -0.199142  0  3.881088  0
C  C83  1  0.59530657  0.89454262  0.50632290  1  -0.035902  0  -0.012568  -0.055458  0  4.014587  0
C  C84  1  0.40274703  0.09105446  0.51104405  1  0.017132  0  -0.029682  -0.21666  0  3.931796  0
C  C85  1  0.53685043  0.94059854  0.43441979  1  -0.007821  0  -0.022434  0.019502  0  3.920508  0
C  C86  1  0.46232012  0.04432744  0.58519372  1  0.450981  0  0.111754  0.307186  0  4.066627  0
C  C87  1  0.44447141  0.03528490  0.43791120  1  -0.022649  0  -0.005491  0.081041  0  3.924979  0
C  C88  1  0.55648719  0.94804546  0.58035225  1  -0.001629  0  -0.10171  -0.231158  0  3.938045  0
C  C89  1  0.52789471  0.92852283  0.34385341  1  -0.014219  0  -0.154944  -0.193287  0  3.887964  0
C  C90  1  0.42272630  0.03643406  0.34782953  1  -0.015783  0  -0.154191  -0.201896  0  3.884835  0
C  C91  1  0.01115890  0.50208761  0.09351072  1  -0.046573  0  -0.014595  -0.058476  0  4.023963  0
C  C92  1  0.01408524  0.50068165  0.89804517  1  -0.021197  0  -0.028806  -0.212923  0  3.920738  0
C  C93  1  0.93694242  0.58671907  0.03792105  1  -0.004016  0  -0.022017  0.025624  0  3.920583  0
C  C94  1  0.09192266  0.41409172  0.95378700  1  0.42469  0  0.110735  0.303674  0  4.052827  0
C  C95  1  0.93975696  0.58500758  0.94385511  1  0.024697  0  -0.006301  0.080177  0  3.918245  0
C  C96  1  0.08807112  0.41762474  0.04913463  1  0.023634  0  -0.101668  -0.231643  0  3.9561  0
C  C97  1  0.84050200  0.69384444  0.03744467  1  -0.029075  0  -0.153137  -0.190393  0  3.896067  0
C  C98  1  0.84489056  0.69326364  0.92911239  1  -0.026831  0  -0.156919  -0.197037  0  3.886717  0
C  C99  1  0.00541803  0.08650341  0.90231354  1  -0.046076  0  -0.016416  -0.142158  0  3.91997  0
C  C100  1  0.91022655  0.09110300  0.99970221  1  -0.024317  0  -0.006399  0.056815  0  3.985089  0
C  C101  1  0.09573994  0.99010883  0.89827494  1  -0.005516  0  -0.004743  0.094689  0  3.929914  0
C  C102  1  0.81614377  0.18841229  0.00540562  1  -0.067157  0  -0.099218  -0.135702  0  3.983938  0
C  C103  1  0.72608007  0.19044826  0.10096013  1  -0.058187  0  -0.100257  -0.089745  0  4.049073  0
C  C104  1  0.00521223  0.89633351  0.09086757  1  -0.007369  0  -0.014888  -0.142329  0  3.913413  0
C  C105  1  0.09610411  0.89330366  0.99465794  1  0.040083  0  -0.004364  0.097145  0  3.927529  0
C  C106  1  0.90991888  0.99379525  0.09598020  1  0.012373  0  -0.00565  0.056846  0  3.98431  0
C  C107  1  0.81549870  0.99881875  0.19303645  1  -0.031136  0  -0.098286  -0.138458  0  3.985593  0
C  C108  1  0.72578748  0.09469093  0.19574201  1  -0.046201  0  -0.097988  -0.083345  0  4.040316  0
C  C109  1  0.59063276  0.50565510  0.51089890  1  0.06317  0  -0.014427  -0.058393  0  4.019988  0
C  C110  1  0.39453265  0.51310728  0.50627954  1  0.012697  0  -0.029275  -0.214925  0  3.921887  0
C  C111  1  0.53755859  0.42812940  0.59098759  1  -0.055069  0  -0.022721  0.024418  0  3.91567  0
C  C112  1  0.44660831  0.59524023  0.42541730  1  0.441202  0  0.110979  0.307103  0  4.062668  0
C  C113  1  0.44358768  0.43278872  0.58724968  1  0.003401  0  -0.005162  0.085686  0  3.91241  0
C  C114  1  0.54287489  0.58858218  0.42991796  1  -0.025701  0  -0.102394  -0.234453  0  3.946017  0
C  C115  1  0.54117126  0.32480345  0.69213653  1  -0.022152  0  -0.155888  -0.191584  0  3.902432  0
C  C116  1  0.43444593  0.32975449  0.68773627  1  -0.051222  0  -0.160075  -0.198426  0  3.876608  0
C  C117  1  0.19420088  0.78947787  0.98725760  1  -0.073711  0  -0.240243  -0.407096  0  3.96172  0
C  C118  1  0.19302021  0.98403458  0.79364094  1  -0.045262  0  -0.239335  -0.400752  0  3.968817  0
N  N119  1  0.38897598  0.35683542  0.06141228  1  -1.291463  0  -0.588712  -0.616148  0  3.370763  0
N  N120  1  0.83320012  0.91235764  0.67271292  1  -1.251107  0  -0.594817  -0.621315  0  3.359674  0
N  N121  1  0.43214441  0.09145959  0.65947402  1  -1.264299  0  -0.591006  -0.618293  0  3.381771  0
N  N122  1  0.17213105  0.32747891  0.91704116  1  -1.274811  0  -0.590211  -0.60927  0  3.357105  0
N  N123  1  0.40516349  0.68135904  0.34408543  1  -1.245778  0  -0.591947  -0.621369  0  3.374245  0
O  O124  1  0.73599044  0.42224418  0.76302748  1  -1.183924  0  -0.355758  -0.621073  0  2.290209  0
O  O125  1  0.07491577  0.76201227  0.42722557  1  -1.182869  0  -0.351887  -0.612565  0  2.262543  0
O  O126  1  0.26218695  0.57554614  0.23407498  1  -1.182299  0  -0.352874  -0.620078  0  2.269888  0
O  O127  1  0.93043041  0.23025889  0.57982692  1  -1.185099  0  -0.356382  -0.619724  0  2.287671  0
O  O128  1  0.08076310  0.22986601  0.76629047  1  -1.178295  0  -0.35251  -0.625198  0  2.249535  0
O  O129  1  0.73685408  0.57508318  0.42908308  1  -1.185641  0  -0.360031  -0.62302  0  2.292628  0
O  O130  1  0.92978643  0.75529619  0.23295001  1  -1.172413  0  -0.349117  -0.616129  0  2.276853  0
O  O131  1  0.26154815  0.42943297  0.57975440  1  -1.183207  0  -0.353259  -0.615907  0  2.261876  0
O  O132  1  0.92949231  0.57623808  0.76447047  1  -1.183355  0  -0.350059  -0.616504  0  2.248672  0
O  O133  1  0.26367797  0.22889885  0.43359737  1  -1.180852  0  -0.352262  -0.613965  0  2.27159  0
O  O134  1  0.08351591  0.42066193  0.23779634  1  -1.179541  0  -0.359435  -0.624517  0  2.290793  0
O  O135  1  0.73540089  0.75399137  0.58218318  1  -1.18869  0  -0.360432  -0.623016  0  2.298764  0
O  O136  1  0.26327658  0.23395038  0.58430141  1  -1.191124  0  -0.362313  -0.633806  0  2.31934  0
O  O137  1  0.92954845  0.57388607  0.23685238  1  -1.172881  0  -0.351253  -0.605138  0  2.269075  0
O  O138  1  0.73537227  0.75721485  0.42722645  1  -1.177398  0  -0.348836  -0.606866  0  2.264307  0
O  O139  1  0.08136431  0.42191253  0.76234690  1  -1.186622  0  -0.364678  -0.631108  0  2.32841  0
O  O140  1  0.93078792  0.22862976  0.76136650  1  -1.181247  0  -0.354951  -0.617773  0  2.278947  0
O  O141  1  0.25945451  0.58158835  0.42534906  1  -1.186624  0  -0.362188  -0.631463  0  2.307566  0
O  O142  1  0.07942285  0.75992588  0.23465876  1  -1.172662  0  -0.355219  -0.62486  0  2.27011  0
O  O143  1  0.73531514  0.42182238  0.58276330  1  -1.185236  0  -0.350917  -0.609276  0  2.257922  0
O  O144  1  0.08386772  0.22961231  0.42670745  1  -1.177638  0  -0.3544  -0.611998  0  2.259352  0
O  O145  1  0.73560615  0.57508810  0.76434746  1  -1.176249  0  -0.352711  -0.609586  0  2.266606  0
O  O146  1  0.92359217  0.75721556  0.58227454  1  -1.19657  0  -0.361674  -0.628721  0  2.314153  0
O  O147  1  0.26127800  0.42062718  0.23858846  1  -1.196228  0  -0.362341  -0.628717  0  2.32207  0
O  O148  1  0.93565133  0.42821254  0.43613615  1  -1.235005  0  -0.696381  -1.070135  0  2.373652  0
O  O149  1  0.20313750  0.43085437  0.43544281  1  -1.255209  0  -0.695967  -1.070108  0  2.366404  0
O  O150  1  0.93348341  0.69786373  0.43436774  1  -1.242082  0  -0.696216  -1.069516  0  2.375441  0
O  O151  1  0.93476358  0.42922863  0.70444134  1  -1.251119  0  -0.696595  -1.072143  0  2.375849  0
O  O152  1  0.05060183  0.54772109  0.55116959  1  -1.19851  0  -0.794388  -1.145832  0  2.143653  0
O  O153  1  0.85397510  0.54470045  0.55213062  1  -1.199797  0  -0.790966  -1.147319  0  2.130814  0
O  O154  1  0.05159694  0.54525711  0.35433939  1  -1.199663  0  -0.791918  -1.147133  0  2.132932  0
O  O155  1  0.05182564  0.34785420  0.55333422  1  -1.199313  0  -0.795101  -1.148486  0  2.14107  0
