# generated using pymatgen
data_Zn4H6C24S4N2O19
_symmetry_space_group_name_H-M   'P 1'
_cell_length_a   19.62882368
_cell_length_b   19.61649332
_cell_length_c   33.37691952
_cell_angle_alpha   79.11266369
_cell_angle_beta   79.12810812
_cell_angle_gamma   63.83292180
_symmetry_Int_Tables_number   1
_chemical_formula_structural   Zn4H6C24S4N2O19
_chemical_formula_sum   'Zn16 H24 C96 S16 N8 O76'
_cell_volume   11245.80815399
_cell_formula_units_Z   4
loop_
 _symmetry_equiv_pos_site_id
 _symmetry_equiv_pos_as_xyz
  1  'x, y, z'
loop_
 _atom_site_type_symbol
 _atom_site_label
 _atom_site_symmetry_multiplicity
 _atom_site_fract_x
 _atom_site_fract_y
 _atom_site_fract_z
 _atom_site_occupancy
 _atom_site_pbe_bader_charge
 _atom_site_pbe_bader_spin_density
 _atom_site_pbe_cm5_charge
 _atom_site_pbe_ddec_charge
 _atom_site_pbe_ddec_spin_density
 _atom_site_pbe_ddec_sum_bond_order
 _atom_site_pbe_magmom
Zn  Zn0  1  0.05412944  0.40098281  0.47817397  1  1.319178  0  0.676898  0.974743  0  2.335215  0
Zn  Zn1  1  0.98798640  0.48275884  0.56021656  1  1.334997  0  0.695986  0.997033  0  2.330734  0
Zn  Zn2  1  0.05624036  0.56510876  0.48194038  1  1.318405  0  0.680619  0.977285  0  2.333394  0
Zn  Zn3  1  0.90122159  0.55553812  0.47868208  1  1.318184  0  0.679502  0.971054  0  2.353616  0
Zn  Zn4  1  0.69317759  0.35009190  0.27208578  1  1.322455  0  0.678024  0.973271  0  2.349912  0
Zn  Zn5  1  0.68632041  0.19269018  0.26551221  1  1.320148  0  0.678631  0.971387  0  2.373148  0
Zn  Zn6  1  0.77041316  0.26495125  0.18939081  1  1.318423  0  0.681647  0.978914  0  2.326528  0
Zn  Zn7  1  0.84679140  0.19627730  0.27153296  1  1.318008  0  0.679541  0.96627  0  2.363955  0
Zn  Zn8  1  0.26923598  0.76497456  0.68867316  1  1.310937  0  0.676887  0.965156  0  2.37074  0
Zn  Zn9  1  0.35179261  0.69480705  0.77007515  1  1.330119  0  0.68703  0.983356  0  2.349773  0
Zn  Zn10  1  0.19515875  0.84737386  0.77096227  1  1.309892  0  0.673192  0.964916  0  2.359226  0
Zn  Zn11  1  0.19172763  0.68821635  0.76580088  1  1.322506  0  0.681089  0.975831  0  2.331874  0
Zn  Zn12  1  0.56093199  0.06078274  0.98253820  1  1.31952  0  0.678143  0.968824  0  2.367092  0
Zn  Zn13  1  0.40169999  0.05435007  0.97719824  1  1.322572  0  0.678151  0.968311  0  2.359749  0
Zn  Zn14  1  0.55719964  0.90057742  0.97807590  1  1.313014  0  0.674361  0.963996  0  2.370308  0
Zn  Zn15  1  0.48470820  0.98219503  0.05933582  1  1.305052  0  0.672898  0.961214  0  2.370605  0
H  H16  1  0.74418310  0.45195125  0.35224237  1  0.147306  0  0.116697  0.141748  0  0.977189  0
H  H17  1  0.00005909  0.29921695  0.39999274  1  0.095195  0  0.116411  0.141265  0  0.978036  0
H  H18  1  0.21369704  0.69030298  0.59843304  1  0.118756  0  0.114903  0.139476  0  0.979736  0
H  H19  1  0.04740535  0.55303238  0.64829182  1  0.152775  0  0.12129  0.149492  0  0.969336  0
H  H20  1  0.46151675  0.24043013  0.34241467  1  0.141688  0  0.125419  0.152097  0  0.964842  0
H  H21  1  0.48387267  0.70343762  0.59987720  1  0.125899  0  0.124282  0.15039  0  0.965857  0
H  H22  1  0.20340141  0.97869539  0.60089809  1  0.109151  0  0.124409  0.150467  0  0.964827  0
H  H23  1  0.95007723  0.96719868  0.34239450  1  0.137437  0  0.127768  0.155481  0  0.960918  0
H  H24  1  0.64569601  0.15816090  0.04763083  1  0.111603  0  0.117504  0.143044  0  0.975802  0
H  H25  1  0.59852872  0.10360436  0.19923198  1  0.110172  0  0.116255  0.141469  0  0.978537  0
H  H26  1  0.54701936  0.76903603  0.14826123  1  0.116689  0  0.125514  0.152708  0  0.963064  0
H  H27  1  0.16243972  0.14174215  0.04069355  1  0.103386  0  0.125852  0.152185  0  0.964214  0
H  H28  1  0.30098309  0.00030694  0.89867916  1  0.124113  0  0.115197  0.140178  0  0.979626  0
H  H29  1  0.45102409  0.74250569  0.85258732  1  0.094371  0  0.120839  0.148666  0  0.969668  0
H  H30  1  0.29784277  0.28309501  0.90297398  1  0.103803  0  0.124984  0.151301  0  0.964612  0
H  H31  1  0.78677653  0.01234046  0.90624830  1  0.123595  0  0.125903  0.152609  0  0.96308  0
H  H32  1  0.80049000  0.52697108  0.42182595  1  0.645084  0  0.308999  0.357984  0  0.958568  0
H  H33  1  0.94014222  0.22016266  0.33426032  1  0.63468  0  0.30814  0.356926  0  0.95856  0
H  H34  1  0.15301113  0.62846628  0.52459486  1  0.648871  0  0.308332  0.360179  0  0.954059  0
H  H35  1  0.11761487  0.60545485  0.72192289  1  0.636159  0  0.308691  0.357522  0  0.956352  0
H  H36  1  0.71175675  0.23894218  0.10926578  1  0.653205  0  0.309642  0.360768  0  0.952133  0
H  H37  1  0.53158255  0.02453765  0.13705697  1  0.652992  0  0.306879  0.355975  0  0.963204  0
H  H38  1  0.22516766  0.94358942  0.82968155  1  0.641787  0  0.307134  0.356169  0  0.961868  0
H  H39  1  0.52862862  0.80048590  0.92010341  1  0.636835  0  0.308691  0.356922  0  0.960006  0
C  C40  1  0.06438784  0.31708491  0.56037191  1  1.602956  0  0.222703  0.618594  0  4.21326  0
C  C41  1  0.07229798  0.57235657  0.56674280  1  1.492494  0  0.2314  0.620068  0  4.135608  0
C  C42  1  0.17855021  0.44196539  0.43782899  1  1.620835  0  0.223219  0.620568  0  4.205432  0
C  C43  1  0.93514565  0.68541196  0.43859255  1  1.62926  0  0.222091  0.618017  0  4.209756  0
C  C44  1  0.92679513  0.43164916  0.43127843  1  1.513011  0  0.230643  0.62093  0  4.135861  0
C  C45  1  0.82170771  0.55907204  0.56140314  1  1.599715  0  0.224209  0.618252  0  4.207223  0
C  C46  1  0.56506387  0.31129649  0.31283523  1  1.602461  0  0.221137  0.613795  0  4.213406  0
C  C47  1  0.67475773  0.19063729  0.17781585  1  1.492742  0  0.229482  0.619015  0  4.140433  0
C  C48  1  0.69480328  0.43139552  0.18941356  1  1.622805  0  0.222161  0.619318  0  4.207879  0
C  C49  1  0.93467584  0.18459766  0.18982421  1  1.618724  0  0.221716  0.617348  0  4.210231  0
C  C50  1  0.81785678  0.31933954  0.32085645  1  1.481761  0  0.229124  0.617908  0  4.141925  0
C  C51  1  0.81113773  0.06540427  0.30737411  1  1.602224  0  0.221505  0.615186  0  4.209496  0
C  C52  1  0.43643614  0.69161600  0.68691218  1  1.55459  0  0.220952  0.613597  0  4.214289  0
C  C53  1  0.32011743  0.81830055  0.81954552  1  1.513288  0  0.231593  0.619932  0  4.136073  0
C  C54  1  0.18732457  0.93290628  0.68782860  1  1.570796  0  0.220536  0.613632  0  4.211396  0
C  C55  1  0.06734009  0.81086939  0.80904402  1  1.607375  0  0.221844  0.619132  0  4.212125  0
C  C56  1  0.18747795  0.67232828  0.67999598  1  1.509423  0  0.230396  0.621202  0  4.135519  0
C  C57  1  0.31028907  0.56927000  0.81158476  1  1.613259  0  0.222095  0.617191  0  4.211997  0
C  C58  1  0.43719541  0.18431947  0.93803730  1  1.589561  0  0.219944  0.612617  0  4.212711  0
C  C59  1  0.43242939  0.92575720  0.93084371  1  1.515939  0  0.228428  0.618616  0  4.138668  0
C  C60  1  0.68483366  0.93999463  0.93764326  1  1.579484  0  0.221313  0.613749  0  4.211774  0
C  C61  1  0.56319508  0.81481763  0.06130763  1  1.598208  0  0.220748  0.61251  0  4.214407  0
C  C62  1  0.57027296  0.06988922  0.06929502  1  1.488803  0  0.229805  0.618778  0  4.140038  0
C  C63  1  0.31688382  0.06199594  0.06068227  1  1.551777  0  0.220803  0.61363  0  4.213999  0
C  C64  1  0.89737596  0.40380081  0.40320229  1  -0.011279  0  -0.030107  -0.159148  0  3.998945  0
C  C65  1  0.84649942  0.34686613  0.34944216  1  0.075388  0  -0.030959  -0.159788  0  4.003011  0
C  C66  1  0.82352949  0.44773038  0.39003261  1  0.485993  0  0.082488  0.289364  0  4.078986  0
C  C67  1  0.91968149  0.30225472  0.36330864  1  0.519103  0  0.083361  0.289911  0  4.080312  0
C  C68  1  0.80007868  0.41852184  0.36293780  1  -0.028684  0  -0.092974  -0.188966  0  3.943437  0
C  C69  1  0.94389784  0.33229142  0.38958302  1  0.075943  0  -0.093849  -0.189798  0  3.946936  0
C  C70  1  0.10360703  0.59748681  0.59513572  1  0.016512  0  -0.029742  -0.158049  0  3.997111  0
C  C71  1  0.15878470  0.64456262  0.65153459  1  -0.014441  0  -0.03096  -0.161321  0  4.003111  0
C  C72  1  0.15198652  0.63601855  0.58051501  1  0.570866  0  0.082565  0.289688  0  4.079955  0
C  C73  1  0.11211680  0.60417866  0.66616075  1  0.512754  0  0.084621  0.290821  0  4.077931  0
C  C74  1  0.17769226  0.65970362  0.60917454  1  0.036793  0  -0.094783  -0.190456  0  3.945439  0
C  C75  1  0.08451539  0.58244473  0.63748942  1  -0.036189  0  -0.089154  -0.184767  0  3.923554  0
C  C76  1  0.30433675  0.45535309  0.40356432  1  0.309874  0  0.079154  0.029632  0  3.93314  0
C  C77  1  0.44498020  0.29731847  0.35041168  1  0.062415  0  -0.085303  -0.129807  0  3.956676  0
C  C78  1  0.25691474  0.41730268  0.41586659  1  -0.073037  0  -0.006789  -0.150786  0  3.905262  0
C  C79  1  0.49025208  0.33696727  0.33820306  1  -0.210054  0  -0.021257  -0.118696  0  3.968219  0
C  C80  1  0.37670837  0.34133317  0.37388193  1  -0.16767  0  -0.017526  -0.004611  0  4.066236  0
C  C81  1  0.37198002  0.41314458  0.37891847  1  -0.131348  0  -0.015505  -0.067397  0  4.076626  0
C  C82  1  0.72996687  0.57907787  0.63039097  1  0.327535  0  0.080923  0.033133  0  3.931744  0
C  C83  1  0.52807359  0.67482592  0.62030787  1  0.070809  0  -0.086207  -0.131781  0  3.959931  0
C  C84  1  0.74788132  0.58713278  0.58781788  1  -0.107555  0  -0.008108  -0.154382  0  3.911674  0
C  C85  1  0.51219611  0.66576258  0.66264536  1  -0.217053  0  -0.021574  -0.120611  0  3.974229  0
C  C86  1  0.60782467  0.64213741  0.60866040  1  -0.123333  0  -0.0178  -0.004522  0  4.068304  0
C  C87  1  0.65026394  0.60900517  0.64249234  1  -0.147926  0  -0.014963  -0.067368  0  4.078973  0
C  C88  1  0.07159952  0.22598265  0.62911502  1  0.378783  0  0.079172  0.02991  0  3.933775  0
C  C89  1  0.17348483  0.02349309  0.62091658  1  0.069257  0  -0.085928  -0.130693  0  3.955253  0
C  C90  1  0.08295646  0.24297476  0.58661381  1  -0.151024  0  -0.007377  -0.149944  0  3.908919  0
C  C91  1  0.16194499  0.00853492  0.66323723  1  -0.169961  0  -0.021487  -0.11902  0  3.967336  0
C  C92  1  0.14119082  0.10314332  0.60868919  1  -0.164501  0  -0.017663  -0.002603  0  4.065685  0
C  C93  1  0.10593882  0.14654247  0.64203517  1  -0.161443  0  -0.014987  -0.067219  0  4.076358  0
C  C94  1  0.83683075  0.80590746  0.39858410  1  0.299304  0  0.079465  0.028847  0  3.939613  0
C  C95  1  0.90421028  0.94846116  0.34810495  1  0.078825  0  -0.082574  -0.12644  0  3.947264  0
C  C96  1  0.90606452  0.76204722  0.41465835  1  -0.114939  0  -0.005662  -0.149339  0  3.905446  0
C  C97  1  0.83493056  0.99055839  0.33259319  1  -0.197607  0  -0.0215  -0.11986  0  3.969925  0
C  C98  1  0.90500617  0.88032179  0.37161507  1  -0.165142  0  -0.016949  -0.003618  0  4.063511  0
C  C99  1  0.83633668  0.87261678  0.37333707  1  -0.115333  0  -0.01563  -0.067387  0  4.081765  0
C  C100  1  0.64770751  0.16136374  0.14925747  1  -0.02655  0  -0.030037  -0.158156  0  3.999355  0
C  C101  1  0.59655993  0.10041677  0.09761463  1  -0.026382  0  -0.031188  -0.161754  0  4.003865  0
C  C102  1  0.66145300  0.17740154  0.10580520  1  0.552967  0  0.08441  0.290597  0  4.077078  0
C  C103  1  0.58262176  0.08461198  0.14108978  1  0.512379  0  0.082123  0.290719  0  4.079309  0
C  C104  1  0.63556808  0.14628117  0.08088563  1  0.054735  0  -0.09241  -0.187082  0  3.938923  0
C  C105  1  0.60861193  0.11553286  0.16598273  1  0.047757  0  -0.094502  -0.190839  0  3.942468  0
C  C106  1  0.67493379  0.52161648  0.11981966  1  0.281441  0  0.079683  0.030049  0  3.934688  0
C  C107  1  0.57710703  0.72427174  0.12823027  1  0.007756  0  -0.085138  -0.131231  0  3.954548  0
C  C108  1  0.66584670  0.50474241  0.16245635  1  -0.06093  0  -0.007124  -0.153056  0  3.910397  0
C  C109  1  0.58826239  0.73919755  0.08589433  1  -0.136366  0  -0.020143  -0.117348  0  3.96738  0
C  C110  1  0.60994897  0.64462553  0.14044930  1  -0.171591  0  -0.017076  -0.003183  0  4.06602  0
C  C111  1  0.64478109  0.60123601  0.10706185  1  -0.113815  0  -0.015331  -0.068346  0  4.078258  0
C  C112  1  0.08405431  0.11561897  0.17824242  1  0.326271  0  0.079317  0.030128  0  3.935289  0
C  C113  1  0.17084325  0.12431455  0.07295865  1  0.072748  0  -0.084671  -0.128853  0  3.95455  0
C  C114  1  0.01114210  0.15490208  0.16582238  1  -0.14098  0  -0.006551  -0.152331  0  3.907602  0
C  C115  1  0.24236113  0.08585387  0.08630179  1  -0.159391  0  -0.020667  -0.117651  0  3.967651  0
C  C116  1  0.11320464  0.13622551  0.10679435  1  -0.169515  0  -0.016649  -0.00452  0  4.063662  0
C  C117  1  0.14254361  0.10624401  0.14490561  1  -0.181365  0  -0.015598  -0.067979  0  4.079454  0
C  C118  1  0.34774344  0.84655519  0.84835157  1  -0.050486  0  -0.02926  -0.158039  0  3.996634  0
C  C119  1  0.40460131  0.89664664  0.90261869  1  0.011749  0  -0.031822  -0.163342  0  4.003665  0
C  C120  1  0.30427248  0.92058825  0.86144675  1  0.574363  0  0.081963  0.288932  0  4.082994  0
C  C121  1  0.44807617  0.82264777  0.88951757  1  0.482828  0  0.085813  0.292763  0  4.072717  0
C  C122  1  0.33367405  0.94392092  0.88846478  1  0.013754  0  -0.094873  -0.190707  0  3.949913  0
C  C123  1  0.41842697  0.79903783  0.86267396  1  0.081727  0  -0.089609  -0.185011  0  3.925401  0
C  C124  1  0.40365451  0.45349734  0.85635595  1  0.277917  0  0.079774  0.031843  0  3.934712  0
C  C125  1  0.34274713  0.30291847  0.89863970  1  0.066921  0  -0.084737  -0.129169  0  3.954778  0
C  C126  1  0.33508935  0.49686313  0.83953957  1  -0.074982  0  -0.007105  -0.154907  0  3.908845  0
C  C127  1  0.41206463  0.26051110  0.91410972  1  -0.145786  0  -0.021303  -0.120109  0  3.970947  0
C  C128  1  0.34035686  0.37307608  0.87711697  1  -0.207426  0  -0.017362  -0.004947  0  4.064792  0
C  C129  1  0.40783754  0.38212153  0.87697928  1  -0.110935  0  -0.015176  -0.067764  0  4.082563  0
C  C130  1  0.94862769  0.79228396  0.85076394  1  0.272681  0  0.079281  0.030629  0  3.935403  0
C  C131  1  0.80406954  0.95466029  0.89920271  1  0.081906  0  -0.083757  -0.128024  0  3.951215  0
C  C132  1  0.99430462  0.83173012  0.83634890  1  -0.088483  0  -0.007195  -0.151667  0  3.908946  0
C  C133  1  0.75976843  0.91418013  0.91254285  1  -0.147555  0  -0.021615  -0.12058  0  3.97044  0
C  C134  1  0.87250068  0.91026328  0.87597449  1  -0.188517  0  -0.017028  -0.004181  0  4.064411  0
C  C135  1  0.87838544  0.83722034  0.87253439  1  -0.134458  0  -0.014636  -0.066804  0  4.080068  0
S  S136  1  0.29694566  0.32853595  0.39834579  1  0.309741  0  0.126832  0.184929  0  2.739979  0
S  S137  1  0.45051001  0.42740364  0.35459148  1  0.351687  0  0.114291  0.176829  0  2.790883  0
S  S138  1  0.66668889  0.63374236  0.56280256  1  0.329479  0  0.127902  0.18788  0  2.740385  0
S  S139  1  0.59292617  0.61705281  0.68852217  1  0.347151  0  0.119135  0.18376  0  2.789846  0
S  S140  1  0.13336391  0.16103780  0.56245920  1  0.32067  0  0.122339  0.177541  0  2.736392  0
S  S141  1  0.11307614  0.09018067  0.68839743  1  0.346736  0  0.114518  0.176808  0  2.789897  0
S  S142  1  0.96936695  0.80423023  0.39984101  1  0.330742  0  0.132917  0.192387  0  2.733768  0
S  S143  1  0.77111546  0.94791008  0.34571749  1  0.339293  0  0.111378  0.172838  0  2.795617  0
S  S144  1  0.61751796  0.58674688  0.18665912  1  0.332837  0  0.129059  0.188331  0  2.740557  0
S  S145  1  0.63868261  0.65765100  0.06075607  1  0.344589  0  0.117895  0.18184  0  2.78694  0
S  S146  1  0.01469741  0.17774402  0.11300942  1  0.367747  0  0.132693  0.193649  0  2.732483  0
S  S147  1  0.24048014  0.06480577  0.13953413  1  0.378682  0  0.112544  0.174781  0  2.793361  0
S  S148  1  0.27459782  0.45115086  0.85060986  1  0.330386  0  0.134368  0.196727  0  2.729192  0
S  S149  1  0.47468725  0.30459906  0.90255097  1  0.343809  0  0.112997  0.175896  0  2.793357  0
S  S150  1  0.95198445  0.92302487  0.85094015  1  0.327272  0  0.127113  0.185128  0  2.734619  0
S  S151  1  0.79976860  0.82319599  0.89683575  1  0.351339  0  0.116402  0.179912  0  2.791393  0
N  N152  1  0.29273522  0.52796904  0.41527403  1  0.362835  0  0.059378  0.529084  0  4.21592  0
N  N153  1  0.78283777  0.54934638  0.66141258  1  0.392141  0  0.060673  0.528171  0  4.218156  0
N  N154  1  0.02567807  0.27962099  0.65890861  1  0.366146  0  0.060449  0.529461  0  4.218627  0
N  N155  1  0.76799420  0.79234315  0.40748761  1  0.376218  0  0.059211  0.531244  0  4.220494  0
N  N156  1  0.70660386  0.46747279  0.08950633  1  0.355015  0  0.059791  0.529665  0  4.218635  0
N  N157  1  0.10331346  0.08106149  0.21956680  1  0.387133  0  0.058877  0.531079  0  4.217057  0
N  N158  1  0.46526020  0.47594569  0.85647347  1  0.378564  0  0.05959  0.529406  0  4.216718  0
N  N159  1  0.96828895  0.71230894  0.84797857  1  0.38851  0  0.060803  0.530605  0  4.218104  0
O  O160  1  0.00065293  0.50043948  0.49955241  1  -1.229741  0  -0.57354  -1.041924  0  2.529013  0
O  O161  1  0.06474818  0.31512765  0.52217306  1  -1.14997  0  -0.314047  -0.540052  0  2.304283  0
O  O162  1  0.02425019  0.54440432  0.58193185  1  -1.16592  0  -0.306057  -0.531047  0  2.348885  0
O  O163  1  0.13885989  0.51306714  0.43952328  1  -1.164974  0  -0.311367  -0.533884  0  2.350754  0
O  O164  1  0.05243217  0.37480281  0.57727383  1  -1.149482  0  -0.30769  -0.529765  0  2.346243  0
O  O165  1  0.15753197  0.38786053  0.45196467  1  -1.158939  0  -0.314219  -0.540485  0  2.305101  0
O  O166  1  0.09575049  0.58061745  0.52782669  1  -1.16381  0  -0.308203  -0.55748  0  2.348599  0
O  O167  1  0.99362797  0.66858514  0.45665697  1  -1.157443  0  -0.313172  -0.538129  0  2.304536  0
O  O168  1  0.87982955  0.49456172  0.44630387  1  -1.175939  0  -0.309202  -0.55571  0  2.359244  0
O  O169  1  0.90231979  0.64252123  0.43814351  1  -1.163101  0  -0.308132  -0.528491  0  2.351744  0
O  O170  1  0.99553539  0.39300973  0.43906248  1  -1.174868  0  -0.309579  -0.535973  0  2.337036  0
O  O171  1  0.87949254  0.50665369  0.57712859  1  -1.154639  0  -0.304533  -0.524239  0  2.35623  0
O  O172  1  0.81909171  0.58983266  0.52385722  1  -1.157335  0  -0.314736  -0.539138  0  2.320213  0
O  O173  1  0.74827200  0.25152846  0.24956625  1  -1.225249  0  -0.571994  -1.035414  0  2.530894  0
O  O174  1  0.59730157  0.35727186  0.30596009  1  -1.177012  0  -0.31572  -0.542058  0  2.330778  0
O  O175  1  0.66132134  0.17265843  0.21617211  1  -1.16699  0  -0.310216  -0.537098  0  2.354543  0
O  O176  1  0.74880707  0.37391449  0.17414401  1  -1.16629  0  -0.312627  -0.536213  0  2.349843  0
O  O177  1  0.59072630  0.24600359  0.30009386  1  -1.164712  0  -0.312676  -0.535117  0  2.309344  0
O  O178  1  0.66336465  0.43407821  0.22672954  1  -1.162409  0  -0.312732  -0.536888  0  2.311125  0
O  O179  1  0.71098140  0.23283416  0.16183173  1  -1.168123  0  -0.307933  -0.555712  0  2.350282  0
O  O180  1  0.87836731  0.20382357  0.16949669  1  -1.15469  0  -0.314049  -0.539904  0  2.304294  0
O  O181  1  0.85966885  0.25052191  0.31145466  1  -1.172448  0  -0.30861  -0.553943  0  2.367059  0
O  O182  1  0.93077107  0.19104584  0.22742191  1  -1.156204  0  -0.307379  -0.527025  0  2.351099  0
O  O183  1  0.75464418  0.36392213  0.30713467  1  -1.171281  0  -0.309055  -0.53534  0  2.342221  0
O  O184  1  0.74409521  0.09378361  0.29633459  1  -1.171657  0  -0.316923  -0.544762  0  2.334697  0
O  O185  1  0.85923062  0.09510227  0.29915229  1  -1.172863  0  -0.31254  -0.533433  0  2.316459  0
O  O186  1  0.25159110  0.74911590  0.74899966  1  -1.222221  0  -0.571561  -1.034797  0  2.52907  0
O  O187  1  0.37818952  0.72396804  0.66714023  1  -1.175719  0  -0.313944  -0.536711  0  2.309418  0
O  O188  1  0.36049269  0.75100170  0.80985673  1  -1.169559  0  -0.304831  -0.528673  0  2.343846  0
O  O189  1  0.16977558  0.93301366  0.72680529  1  -1.16005  0  -0.31889  -0.546732  0  2.331692  0
O  O190  1  0.43636227  0.67918852  0.72595378  1  -1.139889  0  -0.314867  -0.540435  0  2.337168  0
O  O191  1  0.22402336  0.87470768  0.66826413  1  -1.165355  0  -0.312685  -0.534175  0  2.311805  0
O  O192  1  0.25572999  0.86467511  0.80580494  1  -1.176126  0  -0.310419  -0.558392  0  2.364152  0
O  O193  1  0.10237060  0.85304264  0.80818242  1  -1.149229  0  -0.315271  -0.54129  0  2.311773  0
O  O194  1  0.17431336  0.65247437  0.71901824  1  -1.17233  0  -0.310266  -0.559315  0  2.35504  0
O  O195  1  0.08774339  0.75586750  0.78812181  1  -1.157578  0  -0.308834  -0.529933  0  2.351693  0
O  O196  1  0.22286408  0.71397622  0.66488588  1  -1.180332  0  -0.310639  -0.536855  0  2.350003  0
O  O197  1  0.36108520  0.59162276  0.79353871  1  -1.157646  0  -0.306824  -0.528388  0  2.360232  0
O  O198  1  0.23892016  0.60135854  0.80715138  1  -1.146618  0  -0.311662  -0.535357  0  2.308603  0
O  O199  1  0.50077381  0.99982135  0.99932616  1  -1.216447  0  -0.570375  -1.029349  0  2.532247  0
O  O200  1  0.50404981  0.15669873  0.94931510  1  -1.172955  0  -0.316808  -0.544083  0  2.338267  0
O  O201  1  0.39034646  0.99198957  0.94170842  1  -1.176816  0  -0.310954  -0.538013  0  2.346094  0
O  O202  1  0.65331736  0.89328299  0.94501441  1  -1.168447  0  -0.317843  -0.544615  0  2.338507  0
O  O203  1  0.39057812  0.15294910  0.94540538  1  -1.16167  0  -0.31337  -0.535145  0  2.308652  0
O  O204  1  0.65838505  0.00576642  0.94987638  1  -1.169428  0  -0.312752  -0.533562  0  2.309969  0
O  O205  1  0.49886561  0.88148413  0.94286082  1  -1.180142  0  -0.309633  -0.556975  0  2.363013  0
O  O206  1  0.58090239  0.81487634  0.02239910  1  -1.172568  0  -0.316327  -0.542247  0  2.334634  0
O  O207  1  0.53428172  0.02765603  0.08572825  1  -1.15671  0  -0.310913  -0.558932  0  2.362179  0
O  O208  1  0.52620156  0.87310082  0.08086164  1  -1.163039  0  -0.314771  -0.536403  0  2.310384  0
O  O209  1  0.58404725  0.08648916  0.03084145  1  -1.182093  0  -0.308081  -0.532321  0  2.345926  0
O  O210  1  0.31616065  0.07675275  0.02183503  1  -1.14381  0  -0.312433  -0.5345  0  2.309155  0
O  O211  1  0.37565892  0.02801467  0.08019531  1  -1.171284  0  -0.318649  -0.546006  0  2.336187  0
O  O212  1  0.77476880  0.51678469  0.40221262  1  -1.149746  0  -0.360638  -0.444706  0  2.244547  0
O  O213  1  0.96747936  0.23209763  0.35220880  1  -1.145403  0  -0.362669  -0.446333  0  2.242982  0
O  O214  1  0.17412540  0.65155296  0.54018550  1  -1.156846  0  -0.360659  -0.446878  0  2.2514  0
O  O215  1  0.09238980  0.58624858  0.70652156  1  -1.141422  0  -0.357999  -0.4408  0  2.242125  0
O  O216  1  0.69834864  0.22129882  0.08716399  1  -1.144075  0  -0.357188  -0.441323  0  2.249717  0
O  O217  1  0.54536600  0.04085115  0.15963720  1  -1.160906  0  -0.365006  -0.450403  0  2.24337  0
O  O218  1  0.23550852  0.96978023  0.84901345  1  -1.149931  0  -0.365461  -0.450399  0  2.243638  0
O  O219  1  0.51696312  0.77367761  0.90174627  1  -1.139211  0  -0.359157  -0.441703  0  2.24407  0
O  O220  1  0.32513756  0.56371329  0.39055642  1  -0.440803  0  -0.141112  -0.336605  0  1.862642  0
O  O221  1  0.25548532  0.54782124  0.44854618  1  -0.435076  0  -0.124921  -0.311024  0  1.900113  0
O  O222  1  0.75953516  0.52172899  0.69492594  1  -0.439905  0  -0.133833  -0.327168  0  1.863806  0
O  O223  1  0.84357915  0.55636071  0.65349712  1  -0.420553  0  -0.120941  -0.304758  0  1.891362  0
O  O224  1  0.04485571  0.25895971  0.69427729  1  -0.429935  0  -0.137674  -0.331605  0  1.861067  0
O  O225  1  0.97054032  0.33850203  0.64810600  1  -0.413508  0  -0.119841  -0.302632  0  1.894301  0
O  O226  1  0.72372224  0.82151156  0.38051462  1  -0.454198  0  -0.14374  -0.339262  0  1.865571  0
O  O227  1  0.75613039  0.75690656  0.44077874  1  -0.432013  0  -0.129566  -0.315532  0  1.891931  0
O  O228  1  0.73460216  0.49008753  0.05590005  1  -0.439851  0  -0.1379  -0.331881  0  1.861115  0
O  O229  1  0.70125697  0.40579297  0.09793858  1  -0.426031  0  -0.126636  -0.314008  0  1.901495  0
O  O230  1  0.16644703  0.07356830  0.22676788  1  -0.45636  0  -0.141168  -0.336333  0  1.862344  0
O  O231  1  0.05910806  0.05885379  0.24363493  1  -0.429102  0  -0.130857  -0.317023  0  1.887156  0
O  O232  1  0.52995981  0.42209626  0.85815499  1  -0.451046  0  -0.138637  -0.333305  0  1.86094  0
O  O233  1  0.44979806  0.54404676  0.85677301  1  -0.422077  0  -0.124086  -0.308261  0  1.887146  0
O  O234  1  0.91298603  0.69694617  0.84838427  1  -0.442359  0  -0.135821  -0.328774  0  1.863029  0
O  O235  1  0.03588751  0.66554654  0.84735778  1  -0.440692  0  -0.129532  -0.315984  0  1.890952  0
