# generated using pymatgen
data_FeH20(C13N5)2
_symmetry_space_group_name_H-M   'P 1'
_cell_length_a   9.42304238
_cell_length_b   9.42211106
_cell_length_c   14.27806975
_cell_angle_alpha   92.81128107
_cell_angle_beta   104.57660971
_cell_angle_gamma   110.93253589
_symmetry_Int_Tables_number   1
_chemical_formula_structural   FeH20(C13N5)2
_chemical_formula_sum   'Fe2 H40 C52 N20'
_cell_volume   1132.28086944
_cell_formula_units_Z   2
loop_
 _symmetry_equiv_pos_site_id
 _symmetry_equiv_pos_as_xyz
  1  'x, y, z'
loop_
 _atom_site_type_symbol
 _atom_site_label
 _atom_site_symmetry_multiplicity
 _atom_site_fract_x
 _atom_site_fract_y
 _atom_site_fract_z
 _atom_site_occupancy
 _atom_site_hle17_bader_spin_density
 _atom_site_hle17_ddec_charge
 _atom_site_hle17_ddec_spin_density
 _atom_site_hle17_ddec_sum_bond_order
 _atom_site_hle17_magmom
 _atom_site_hse06_10hf_bader_spin_density
 _atom_site_hse06_10hf_ddec_charge
 _atom_site_hse06_10hf_ddec_spin_density
 _atom_site_hse06_10hf_ddec_sum_bond_order
 _atom_site_hse06_10hf_magmom
 _atom_site_hse06_bader_spin_density
 _atom_site_hse06_ddec_charge
 _atom_site_hse06_ddec_spin_density
 _atom_site_hse06_ddec_sum_bond_order
 _atom_site_hse06_magmom
 _atom_site_pbe_bader_spin_density
 _atom_site_pbe_cm5_charge
 _atom_site_pbe_ddec_charge
 _atom_site_pbe_ddec_spin_density
 _atom_site_pbe_ddec_sum_bond_order
 _atom_site_pbe_magmom
Fe  Fe0  1  0.50000247  0.00000267  0.00000053  1  0  0.341522  0  3.300992  0  0  0.300498  0  3.76891  0  0  0.331067  0  3.736538  0  0  0.796379  0.288065  0  3.782611  0
Fe  Fe1  1  0.49999280  0.49999868  0.49999979  1  0  0.357942  0  2.850135  0  0  0.279546  0  3.340832  0  0  0.337549  0  3.287062  0  0  0.644099  0.252196  0  3.368023  0
H  H2  1  0.86022088  0.60571435  0.99416508  1  0  0.097797  0  0.931529  0  0  0.112594  0  0.984396  0  0  0.116208  0  0.980983  0  0  0.106234  0.110199  0  0.98639  0
H  H3  1  0.13978064  0.39428989  0.00583249  1  0  0.097782  0  0.931568  0  0  0.112617  0  0.984397  0  0  0.116208  0  0.981011  0  0  0.106241  0.110221  0  0.986392  0
H  H4  1  0.57228164  0.50821060  0.89468899  1  0  0.090423  0  0.985041  0  0  0.098578  0  1.052423  0  0  0.100468  0  1.053555  0  0  0.100228  0.097584  0  1.051373  0
H  H5  1  0.42772033  0.49179478  0.10531010  1  0  0.090431  0  0.985022  0  0  0.098568  0  1.052425  0  0  0.100457  0  1.053559  0  0  0.100227  0.097573  0  1.051374  0
H  H6  1  0.41929889  0.67537625  0.90012833  1  0  0.081456  0  1.006933  0  0  0.080137  0  1.086605  0  0  0.084117  0  1.081804  0  0  0.115325  0.07719  0  1.090818  0
H  H7  1  0.58070279  0.32462566  0.09987128  1  0  0.081494  0  1.006843  0  0  0.080143  0  1.08656  0  0  0.084123  0  1.08176  0  0  0.115312  0.077197  0  1.090774  0
H  H8  1  0.84011907  0.47927253  0.28660921  1  0  0.094635  0  0.977363  0  0  0.102744  0  1.045766  0  0  0.105027  0  1.04397  0  0  0.104695  0.10072  0  1.047906  0
H  H9  1  0.15988197  0.52073052  0.71339174  1  0  0.094647  0  0.977327  0  0  0.102722  0  1.045769  0  0  0.105005  0  1.043969  0  0  0.104708  0.100698  0  1.047909  0
H  H10  1  0.00914207  0.66869187  0.43898063  1  0  0.106941  0  0.949905  0  0  0.119761  0  1.003598  0  0  0.121386  0  1.005107  0  0  0.110466  0.118715  0  1.002464  0
H  H11  1  0.99086289  0.33131000  0.56102092  1  0  0.106938  0  0.949885  0  0  0.119769  0  1.003572  0  0  0.12139  0  1.005078  0  0  0.110462  0.118724  0  1.002442  0
H  H12  1  0.27580828  0.66562030  0.52312021  1  0  0.09103  0  0.960096  0  0  0.095204  0  1.028554  0  0  0.096864  0  1.02746  0  0  0.120958  0.09366  0  1.030651  0
H  H13  1  0.72419512  0.33438039  0.47688384  1  0  0.090971  0  0.960058  0  0  0.095145  0  1.028542  0  0  0.096807  0  1.027447  0  0  0.12093  0.093576  0  1.030668  0
H  H14  1  0.21993208  0.31833425  0.30945548  1  0  0.100306  0  0.942528  0  0  0.102771  0  1.012911  0  0  0.104926  0  1.01086  0  0  0.122572  0.101006  0  1.014992  0
H  H15  1  0.78006902  0.68166069  0.69054797  1  0  0.100338  0  0.942354  0  0  0.102751  0  1.01283  0  0  0.104905  0  1.010778  0  0  0.122544  0.10099  0  1.014911  0
H  H16  1  0.08604684  0.80279830  0.09860003  1  0  0.101632  0  0.973628  0  0  0.120811  0  1.037235  0  0  0.121489  0  1.038801  0  0  0.085205  0.120552  0  1.035992  0
H  H17  1  0.91395422  0.19720479  0.90139742  1  0  0.101639  0  0.973603  0  0  0.120822  0  1.037201  0  0  0.121498  0  1.038769  0  0  0.085202  0.120563  0  1.035956  0
H  H18  1  0.04023326  0.89593826  0.19193916  1  0  0.117674  0  0.942332  0  0  0.14018  0  1.001597  0  0  0.141247  0  1.001484  0  0  0.095749  0.139275  0  1.002194  0
H  H19  1  0.95976734  0.10406368  0.80805887  1  0  0.117751  0  0.942256  0  0  0.140225  0  1.001541  0  0  0.141291  0  1.001428  0  0  0.095763  0.139319  0  1.002138  0
H  H20  1  0.09598389  0.99600620  0.09900250  1  0  0.119562  0  0.955815  0  0  0.137481  0  1.021382  0  0  0.138417  0  1.022334  0  0  0.093408  0.1366  0  1.02106  0
H  H21  1  0.90401918  0.00399917  0.90099606  1  0  0.119559  0  0.955906  0  0  0.137482  0  1.021456  0  0  0.138436  0  1.02239  0  0  0.093385  0.136586  0  1.02115  0
H  H22  1  0.16547086  0.09067142  0.74452187  1  0  0.10063  0  0.970844  0  0  0.110631  0  1.034296  0  0  0.113639  0  1.031649  0  0  0.104638  0.10829  0  1.036409  0
H  H23  1  0.83452932  0.90932125  0.25547925  1  0  0.100572  0  0.970778  0  0  0.110564  0  1.034234  0  0  0.11357  0  1.031589  0  0  0.104611  0.108219  0  1.036355  0
H  H24  1  0.29166988  0.37539055  0.80286502  1  0  0.095442  0  0.956094  0  0  0.109545  0  1.010692  0  0  0.111472  0  1.011463  0  0  0.103649  0.10822  0  1.01027  0
H  H25  1  0.70832420  0.62460331  0.19713443  1  0  0.0954  0  0.956094  0  0  0.109524  0  1.010671  0  0  0.111451  0  1.01144  0  0  0.103654  0.108188  0  1.010262  0
H  H26  1  0.43415397  0.54831481  0.69759324  1  0  0.085533  0  0.986228  0  0  0.083868  0  1.066579  0  0  0.087723  0  1.061749  0  0  0.11385  0.08111  0  1.070435  0
H  H27  1  0.56583729  0.45168022  0.30240579  1  0  0.085555  0  0.986107  0  0  0.083858  0  1.066513  0  0  0.087707  0  1.061682  0  0  0.113824  0.081097  0  1.070371  0
H  H28  1  0.29265748  0.76750693  0.33611332  1  0  0.100276  0  0.971133  0  0  0.107925  0  1.039244  0  0  0.110865  0  1.037328  0  0  0.105793  0.105593  0  1.041186  0
H  H29  1  0.70734137  0.23249612  0.66388726  1  0  0.10026  0  0.971123  0  0  0.10792  0  1.039234  0  0  0.110863  0  1.037311  0  0  0.105773  0.105589  0  1.041176  0
H  H30  1  0.26642333  0.58468829  0.19203182  1  0  0.097377  0  0.959565  0  0  0.108071  0  1.018412  0  0  0.109735  0  1.019846  0  0  0.103885  0.106627  0  1.018158  0
H  H31  1  0.73357881  0.41531476  0.80796861  1  0  0.097385  0  0.959565  0  0  0.108047  0  1.018447  0  0  0.109711  0  1.019883  0  0  0.103865  0.106604  0  1.018193  0
H  H32  1  0.34995981  0.69319017  0.04884869  1  0  0.076695  0  0.966979  0  0  0.082739  0  1.039046  0  0  0.084573  0  1.036329  0  0  0.115929  0.081523  0  1.04085  0
H  H33  1  0.65004343  0.30681288  0.95115122  1  0  0.07664  0  0.96705  0  0  0.08269  0  1.03911  0  0  0.084521  0  1.036393  0  0  0.115908  0.081473  0  1.040916  0
H  H34  1  0.50877444  0.13978985  0.19153268  1  0  0.087524  0  0.975313  0  0  0.088534  0  1.053383  0  0  0.091369  0  1.049057  0  0  0.120881  0.086412  0  1.056893  0
H  H35  1  0.49123099  0.86021318  0.80846829  1  0  0.087539  0  0.975341  0  0  0.088545  0  1.053405  0  0  0.091379  0  1.04908  0  0  0.120881  0.086422  0  1.056915  0
H  H36  1  0.19050631  0.90682082  0.51325984  1  0  0.120268  0  1.002494  0  0  0.132631  0  1.075572  0  0  0.135907  0  1.073181  0  0  0.091164  0.13044  0  1.076956  0
H  H37  1  0.80949618  0.09317763  0.48673977  1  0  0.120248  0  1.00255  0  0  0.132635  0  1.07559  0  0  0.135912  0  1.073197  0  0  0.091174  0.130445  0  1.076975  0
H  H38  1  0.04563735  0.89351354  0.57703621  1  0  0.111713  0  0.936672  0  0  0.133907  0  0.995583  0  0  0.134941  0  0.996073  0  0  0.091797  0.133295  0  0.995039  0
H  H39  1  0.95436267  0.10648148  0.42296217  1  0  0.1118  0  0.936699  0  0  0.133986  0  0.995614  0  0  0.13502  0  0.996104  0  0  0.091845  0.133374  0  0.99507  0
H  H40  1  0.22633608  0.87773955  0.63797280  1  0  0.115023  0  0.94072  0  0  0.135735  0  1.003551  0  0  0.136427  0  1.004849  0  0  0.092344  0.135305  0  1.002448  0
H  H41  1  0.77366457  0.12225430  0.36202563  1  0  0.115073  0  0.940725  0  0  0.135773  0  1.003557  0  0  0.136466  0  1.004855  0  0  0.092367  0.135346  0  1.002452  0
C  C42  1  0.81641197  0.05936082  0.10368432  1  0  0.234822  0  3.817448  0  0  0.215591  0  4.088919  0  0  0.223556  0  4.104704  0  0  0.195709  0.210852  0  4.077099  0
C  C43  1  0.18358925  0.94063994  0.89631517  1  0  0.234898  0  3.817435  0  0  0.215699  0  4.088863  0  0  0.223665  0  4.10465  0  0  0.19574  0.210957  0  4.077049  0
C  C44  1  0.91668870  0.26596783  0.20195788  1  0  0.259764  0  3.862264  0  0  0.236241  0  4.140365  0  0  0.245317  0  4.15941  0  0  0.188563  0.230126  0  4.127124  0
C  C45  1  0.08331021  0.73402716  0.79804242  1  0  0.259767  0  3.862384  0  0  0.236265  0  4.140377  0  0  0.245343  0  4.159421  0  0  0.188584  0.230153  0  4.127136  0
C  C46  1  0.76485250  0.90755701  0.05008936  1  0  0.099438  0  3.699219  0  0  0.090573  0  3.942931  0  0  0.100204  0  3.957779  0  0  0.118386  0.086467  0  3.930619  0
C  C47  1  0.23515119  0.09244719  0.94991067  1  0  0.099422  0  3.699173  0  0  0.090546  0  3.942894  0  0  0.100176  0  3.957744  0  0  0.118388  0.086445  0  3.930587  0
C  C48  1  0.85980865  0.82060194  0.05246963  1  0  0.090969  0  3.714292  0  0  0.115309  0  3.951664  0  0  0.112051  0  3.972843  0  0  0.003676  0.117298  0  3.936068  0
C  C49  1  0.14019022  0.17940117  0.94752676  1  0  0.091152  0  3.714192  0  0  0.115451  0  3.951603  0  0  0.112195  0  3.972781  0  0  0.003713  0.11744  0  3.936006  0
C  C50  1  0.78916814  0.67506171  0.99524232  1  0  -0.081256  0  3.720293  0  0  -0.108474  0  3.967296  0  0  -0.102985  0  3.981681  0  0  -0.07948  -0.110866  0  3.956518  0
C  C51  1  0.21083292  0.32494140  0.00475373  1  0  -0.081284  0  3.720475  0  0  -0.108519  0  3.967476  0  0  -0.103011  0  3.981867  0  0  -0.079492  -0.110911  0  3.956691  0
C  C52  1  0.63047823  0.62085284  0.94003363  1  0  -0.124253  0  3.789012  0  0  -0.137362  0  4.044595  0  0  -0.144174  0  4.066237  0  0  -0.09467  -0.133061  0  4.031183  0
C  C53  1  0.36952064  0.37915027  0.05996346  1  0  -0.124374  0  3.789148  0  0  -0.137465  0  4.044737  0  0  -0.144278  0  4.066377  0  0  -0.094742  -0.133164  0  4.03133  0
C  C54  1  0.54386258  0.71269525  0.94244410  1  0  0.094004  0  3.688032  0  0  0.062954  0  3.949407  0  0  0.071739  0  3.96206  0  0  0.033372  0.054294  0  3.944421  0
C  C55  1  0.45614066  0.28730781  0.05755511  1  0  0.093992  0  3.687846  0  0  0.062958  0  3.949231  0  0  0.071741  0  3.961888  0  0  0.033405  0.054299  0  3.944239  0
C  C56  1  0.01680012  0.38445821  0.28588846  1  0  -0.029901  0  3.806712  0  0  -0.006917  0  4.037058  0  0  -0.012305  0  4.059591  0  0  0.001676  -0.004541  0  4.022983  0
C  C57  1  0.98320235  0.61554017  0.71411605  1  0  -0.030069  0  3.806877  0  0  -0.00697  0  4.037052  0  0  -0.012361  0  4.059588  0  0  0.001657  -0.004597  0  4.022977  0
C  C58  1  0.95880443  0.48599663  0.32330220  1  0  -0.051647  0  3.710308  0  0  -0.078597  0  3.952869  0  0  -0.075098  0  3.97129  0  0  -0.071219  -0.081372  0  3.942346  0
C  C59  1  0.04120070  0.51400291  0.67670070  1  0  -0.051591  0  3.71029  0  0  -0.078549  0  3.952828  0  0  -0.075053  0  3.971253  0  0  -0.071212  -0.08132  0  3.942305  0
C  C60  1  0.05168635  0.58931828  0.40814099  1  0  -0.116372  0  3.772836  0  0  -0.126293  0  4.022362  0  0  -0.133417  0  4.044701  0  0  -0.082649  -0.121726  0  4.00918  0
C  C61  1  0.94831815  0.41068241  0.59186254  1  0  -0.116374  0  3.773029  0  0  -0.126287  0  4.022583  0  0  -0.133405  0  4.04492  0  0  -0.08258  -0.121718  0  4.009394  0
C  C62  1  0.20031186  0.58915345  0.45516201  1  0  0.105307  0  3.66976  0  0  0.072966  0  3.930142  0  0  0.081612  0  3.946777  0  0  0.043309  0.064808  0  3.921534  0
C  C63  1  0.79969172  0.41084495  0.54484058  1  0  0.105406  0  3.669713  0  0  0.073012  0  3.930159  0  0  0.08165  0  3.94679  0  0  0.043266  0.064882  0  3.921573  0
C  C64  1  0.16935552  0.39403191  0.33605902  1  0  0.082076  0  3.626015  0  0  0.044345  0  3.882092  0  0  0.053147  0  3.897291  0  0  0.051046  0.038064  0  3.87306  0
C  C65  1  0.83064322  0.60596536  0.66394343  1  0  0.082153  0  3.626008  0  0  0.044406  0  3.88205  0  0  0.053206  0  3.89724  0  0  0.051056  0.038128  0  3.873024  0
C  C66  1  0.02954509  0.88137452  0.11329527  1  0  -0.332793  0  3.732165  0  0  -0.417348  0  3.970303  0  0  -0.419519  0  3.98179  0  0  -0.24364  -0.415894  0  3.962774  0
C  C67  1  0.97045550  0.11862743  0.88670206  1  0  -0.332919  0  3.732097  0  0  -0.417436  0  3.970215  0  0  -0.419624  0  3.981687  0  0  -0.243616  -0.415968  0  3.962703  0
C  C68  1  0.36546985  0.17133668  0.47432420  1  0  0.24272  0  3.800766  0  0  0.222521  0  4.069665  0  0  0.232427  0  4.084626  0  0  0.197548  0.216304  0  4.05952  0
C  C69  1  0.63452670  0.82866061  0.52567719  1  0  0.242662  0  3.800816  0  0  0.222449  0  4.069698  0  0  0.232355  0  4.084661  0  0  0.197532  0.216233  0  4.059557  0
C  C70  1  0.40281660  0.07796626  0.35010175  1  0  0.27236  0  3.834399  0  0  0.250478  0  4.108576  0  0  0.259462  0  4.126572  0  0  0.195568  0.244436  0  4.096565  0
C  C71  1  0.59718152  0.92203221  0.64989713  1  0  0.272306  0  3.834559  0  0  0.250449  0  4.108678  0  0  0.259439  0  4.126668  0  0  0.195593  0.244414  0  4.096661  0
C  C72  1  0.33225040  0.21089604  0.56377188  1  0  0.099309  0  3.701087  0  0  0.0913  0  3.942024  0  0  0.101056  0  3.9575  0  0  0.117761  0.085115  0  3.931671  0
C  C73  1  0.66774570  0.78910014  0.43622659  1  0  0.099387  0  3.701133  0  0  0.091429  0  3.942006  0  0  0.101186  0  3.957481  0  0  0.117757  0.085245  0  3.931654  0
C  C74  1  0.24709857  0.10729888  0.61651490  1  0  0.089727  0  3.709607  0  0  0.115086  0  3.94391  0  0  0.111288  0  3.965897  0  0  0.003467  0.117285  0  3.929339  0
C  C75  1  0.75290081  0.89269725  0.38348621  1  0  0.089658  0  3.709636  0  0  0.114941  0  3.943999  0  0  0.111141  0  3.965984  0  0  0.003446  0.117142  0  3.929429  0
C  C76  1  0.23218919  0.16888415  0.70303057  1  0  -0.070136  0  3.697043  0  0  -0.098249  0  3.945757  0  0  -0.09165  0  3.959791  0  0  -0.078341  -0.102887  0  3.936492  0
C  C77  1  0.76780818  0.83110969  0.29696943  1  0  -0.070026  0  3.696923  0  0  -0.098103  0  3.945649  0  0  -0.091496  0  3.959674  0  0  -0.078277  -0.102746  0  3.936392  0
C  C78  1  0.30149950  0.32666531  0.73504475  1  0  -0.134096  0  3.792152  0  0  -0.146573  0  4.048767  0  0  -0.15303  0  4.068476  0  0  -0.095684  -0.141629  0  4.03514  0
C  C79  1  0.69849613  0.67332970  0.26495500  1  0  -0.13398  0  3.792101  0  0  -0.146466  0  4.048701  0  0  -0.152923  0  4.068407  0  0  -0.095661  -0.141516  0  4.03508  0
C  C80  1  0.38156235  0.42307834  0.67822634  1  0  0.104641  0  3.681947  0  0  0.073018  0  3.943893  0  0  0.082648  0  3.957233  0  0  0.03682  0.065135  0  3.936575  0
C  C81  1  0.61842983  0.57691900  0.32177293  1  0  0.104602  0  3.681693  0  0  0.07297  0  3.943674  0  0  0.082595  0  3.957034  0  0  0.036833  0.065094  0  3.936335  0
C  C82  1  0.39768838  0.96769897  0.27280172  1  0  -0.020502  0  3.77238  0  0  0.003222  0  4.001678  0  0  -0.001965  0  4.022244  0  0  0.00744  0.006009  0  3.9886  0
C  C83  1  0.60231065  0.03230179  0.72719811  1  0  -0.020506  0  3.772305  0  0  0.003245  0  4.001577  0  0  -0.001945  0  4.022143  0  0  0.007404  0.006028  0  3.988495  0
C  C84  1  0.33282607  0.80879914  0.27393422  1  0  -0.03399  0  3.675384  0  0  -0.065446  0  3.925226  0  0  -0.059886  0  3.940709  0  0  -0.068461  -0.069258  0  3.915736  0
C  C85  1  0.66717371  0.19120625  0.72606451  1  0  -0.033999  0  3.675456  0  0  -0.0655  0  3.925318  0  0  -0.059941  0  3.940803  0  0  -0.068434  -0.069312  0  3.915831  0
C  C86  1  0.31809425  0.70866445  0.19395788  1  0  -0.12967  0  3.787151  0  0  -0.138702  0  4.040922  0  0  -0.146375  0  4.062379  0  0  -0.090064  -0.13436  0  4.027541  0
C  C87  1  0.68190524  0.29133747  0.80604137  1  0  -0.129643  0  3.787231  0  0  -0.138641  0  4.040996  0  0  -0.146318  0  4.062458  0  0  -0.09002  -0.134297  0  4.027616  0
C  C88  1  0.36626440  0.76742842  0.11469145  1  0  0.088776  0  3.684209  0  0  0.051941  0  3.950271  0  0  0.06287  0  3.963478  0  0  0.031861  0.044606  0  3.941292  0
C  C89  1  0.63373555  0.23257464  0.88530862  1  0  0.088894  0  3.684235  0  0  0.052067  0  3.950242  0  0  0.062999  0  3.963442  0  0  0.031898  0.044731  0  3.941265  0
C  C90  1  0.45176706  0.01754350  0.19277547  1  0  0.091718  0  3.597093  0  0  0.051633  0  3.850917  0  0  0.062534  0  3.862868  0  0  0.050521  0.044159  0  3.843342  0
C  C91  1  0.54823352  0.98245840  0.80722466  1  0  0.091748  0  3.597151  0  0  0.051654  0  3.850963  0  0  0.062551  0  3.862914  0  0  0.050534  0.04418  0  3.843395  0
C  C92  1  0.17316560  0.93663275  0.58336630  1  0  -0.337684  0  3.707927  0  0  -0.418273  0  3.94357  0  0  -0.420905  0  3.952968  0  0  -0.244629  -0.416188  0  3.936849  0
C  C93  1  0.82683707  0.06336339  0.41663325  1  0  -0.33781  0  3.708154  0  0  -0.418363  0  3.943753  0  0  -0.420994  0  3.953153  0  0  -0.24469  -0.416277  0  3.937032  0
N  N94  1  0.70731895  0.12572977  0.08803851  1  0  -0.191852  0  3.355212  0  0  -0.160306  0  3.656915  0  0  -0.176373  0  3.676699  0  0  -0.26639  -0.150753  0  3.642646  0
N  N95  1  0.29268209  0.87427327  0.91196314  1  0  -0.192036  0  3.355419  0  0  -0.160519  0  3.657137  0  0  -0.176588  0  3.67692  0  0  -0.266487  -0.150962  0  3.642865  0
N  N96  1  0.77108178  0.25895113  0.15046065  1  0  -0.305862  0  2.943991  0  0  -0.27792  0  3.22151  0  0  -0.288341  0  3.23794  0  0  -0.229812  -0.269718  0  3.209434  0
N  N97  1  0.22892145  0.74105188  0.84954205  1  0  -0.305722  0  2.944061  0  0  -0.277805  0  3.221561  0  0  -0.288225  0  3.23799  0  0  -0.229746  -0.269604  0  3.209482  0
N  N98  1  0.95030503  0.14448465  0.17464404  1  0  -0.456069  0  2.948832  0  0  -0.42703  0  3.215166  0  0  -0.441702  0  3.228752  0  0  -0.338504  -0.415878  0  3.204702  0
N  N99  1  0.04969728  0.85551608  0.82535773  1  0  -0.456099  0  2.948803  0  0  -0.427077  0  3.215104  0  0  -0.441751  0  3.228692  0  0  -0.338505  -0.415927  0  3.204642  0
N  N100  1  0.60854212  0.85441398  0.99570913  1  0  -0.245027  0  3.340901  0  0  -0.1976  0  3.612945  0  0  -0.215902  0  3.630916  0  0  -0.333851  -0.186322  0  3.600408  0
N  N101  1  0.39145957  0.14558796  0.00428838  1  0  -0.245001  0  3.340826  0  0  -0.197552  0  3.61285  0  0  -0.215851  0  3.630823  0  0  -0.333839  -0.186274  0  3.60031  0
N  N102  1  0.25779873  0.49360578  0.41874799  1  0  -0.224724  0  3.244849  0  0  -0.170395  0  3.520247  0  0  -0.195748  0  3.541355  0  0  -0.292231  -0.152911  0  3.505636  0
N  N103  1  0.74220483  0.50639258  0.58125740  1  0  -0.224842  0  3.244894  0  0  -0.170453  0  3.520266  0  0  -0.195791  0  3.541365  0  0  -0.292225  -0.152986  0  3.505668  0
N  N104  1  0.44493870  0.29214113  0.43345382  1  0  -0.212197  0  3.349362  0  0  -0.173703  0  3.659033  0  0  -0.194558  0  3.676248  0  0  -0.266029  -0.16117  0  3.646737  0
N  N105  1  0.55505705  0.70785962  0.56654756  1  0  -0.212225  0  3.349441  0  0  -0.173727  0  3.659108  0  0  -0.194582  0  3.676328  0  0  -0.266056  -0.161194  0  3.64682  0
N  N106  1  0.46916219  0.23278652  0.35352370  1  0  -0.306506  0  2.918735  0  0  -0.281159  0  3.196513  0  0  -0.289202  0  3.211555  0  0  -0.230771  -0.275821  0  3.186684  0
N  N107  1  0.53083511  0.76721539  0.64647659  1  0  -0.306422  0  2.918764  0  0  -0.281098  0  3.196534  0  0  -0.289148  0  3.211581  0  0  -0.230762  -0.275767  0  3.186714  0
N  N108  1  0.33666433  0.03503228  0.42349384  1  0  -0.443829  0  2.95353  0  0  -0.413459  0  3.215132  0  0  -0.427702  0  3.227921  0  0  -0.334917  -0.403254  0  3.206119  0
N  N109  1  0.66333361  0.96496848  0.57650580  1  0  -0.443804  0  2.953635  0  0  -0.41346  0  3.215224  0  0  -0.427705  0  3.228009  0  0  -0.334908  -0.403256  0  3.206209  0
N  N110  1  0.39552461  0.36731965  0.59398338  1  0  -0.24415  0  3.287463  0  0  -0.194564  0  3.566767  0  0  -0.216644  0  3.583127  0  0  -0.316717  -0.180109  0  3.554416  0
N  N111  1  0.60446821  0.63267652  0.40601664  1  0  -0.244289  0  3.287498  0  0  -0.194678  0  3.566755  0  0  -0.216757  0  3.583109  0  0  -0.316781  -0.180224  0  3.554403  0
N  N112  1  0.43433475  0.92041776  0.11444711  1  0  -0.204713  0  3.39538  0  0  -0.152614  0  3.672752  0  0  -0.17347  0  3.694158  0  0  -0.337667  -0.13962  0  3.657187  0
N  N113  1  0.56566629  0.07958530  0.88555314  1  0  -0.20486  0  3.395501  0  0  -0.152744  0  3.672882  0  0  -0.173592  0  3.694274  0  0  -0.337693  -0.13975  0  3.657314  0
