# generated using pymatgen
data_AlH6C15(BrO2)3
_symmetry_space_group_name_H-M   'P 1'
_cell_length_a   4.05181624
_cell_length_b   17.24803193
_cell_length_c   17.24802450
_cell_angle_alpha   119.99999539
_cell_angle_beta   90.00019176
_cell_angle_gamma   89.99988903
_symmetry_Int_Tables_number   1
_chemical_formula_structural   AlH6C15(BrO2)3
_chemical_formula_sum   'Al2 H12 C30 Br6 O12'
_cell_volume   1043.90096957
_cell_formula_units_Z   2
loop_
 _symmetry_equiv_pos_site_id
 _symmetry_equiv_pos_as_xyz
  1  'x, y, z'
loop_
 _atom_site_type_symbol
 _atom_site_label
 _atom_site_symmetry_multiplicity
 _atom_site_fract_x
 _atom_site_fract_y
 _atom_site_fract_z
 _atom_site_occupancy
 _atom_site_pbe_bader_charge
 _atom_site_pbe_bader_spin_density
 _atom_site_pbe_cm5_charge
 _atom_site_pbe_ddec_charge
 _atom_site_pbe_ddec_spin_density
 _atom_site_pbe_ddec_sum_bond_order
 _atom_site_pbe_magmom
Al  Al0  1  0.99125332  0.50000052  0.50000041  1  2.508904  0  0.430397  1.617266  0  2.553333  0
Al  Al1  1  0.00857427  0.16666750  0.83333341  1  2.508949  0  0.429512  1.615818  0  2.553718  0
H  H2  1  0.27671874  0.11474324  0.53166478  1  0.04758  0  0.092299  0.105187  0  1.005167  0
H  H3  1  0.71658075  0.11471271  0.53302894  1  0.028392  0  0.092719  0.104641  0  1.00388  0
H  H4  1  0.72369020  0.19827256  0.44808567  1  0.062406  0  0.092142  0.104774  0  1.005542  0
H  H5  1  0.28375416  0.19959467  0.44804589  1  0.057412  0  0.092568  0.104696  0  1.003561  0
H  H6  1  0.27671311  0.91692180  0.88525633  1  0.053196  0  0.092295  0.105183  0  1.00517  0
H  H7  1  0.71657757  0.91831535  0.88528569  1  0.027073  0  0.092722  0.104648  0  1.003925  0
H  H8  1  0.72368804  0.74981254  0.80172496  1  0.061004  0  0.092151  0.104817  0  1.005569  0
H  H9  1  0.28374953  0.74845020  0.80040395  1  0.055542  0  0.092592  0.104711  0  1.003557  0
H  H10  1  0.27671660  0.46833456  0.08307792  1  0.048538  0  0.092308  0.105199  0  1.005139  0
H  H11  1  0.71658353  0.46697031  0.08168373  1  0.026254  0  0.092712  0.104676  0  1.003863  0
H  H12  1  0.72369231  0.55191427  0.25018673  1  0.057698  0  0.092136  0.104795  0  1.005549  0
H  H13  1  0.28375381  0.55195415  0.25154862  1  0.051859  0  0.092576  0.104713  0  1.003553  0
C  C14  1  0.49502085  0.42951689  0.36333091  1  1.578133  0  0.278828  0.682142  0  4.05346  0
C  C15  1  0.49501244  0.43381186  0.57048279  1  1.569164  0  0.278756  0.682001  0  4.053559  0
C  C16  1  0.49502146  0.63667173  0.56618581  1  1.573144  0  0.278748  0.682112  0  4.053337  0
C  C17  1  0.50502989  0.23726978  0.76724188  1  1.597976  0  0.279191  0.682863  0  4.051723  0
C  C18  1  0.50502328  0.02997294  0.76273026  1  1.64008  0  0.279281  0.683001  0  4.051715  0
C  C19  1  0.50502641  0.23275820  0.97002780  1  1.597154  0  0.279268  0.682999  0  4.05162  0
C  C20  1  0.49683548  0.29009711  0.72007544  1  0.01892  0  -0.009172  -0.106845  0  3.944936  0
C  C21  1  0.50296005  0.38669663  0.62333322  1  0.112458  0  -0.00857  -0.105577  0  3.944429  0
C  C22  1  0.49565774  0.24709931  0.62706232  1  -0.025689  0  -0.00647  0.062433  0  3.891778  0
C  C23  1  0.49984343  0.43187961  0.71791695  1  -0.174964  0  -0.015275  0.039231  0  3.918022  0
C  C24  1  0.50460630  0.29368299  0.58039512  1  0.018772  0  -0.006366  0.061327  0  3.891543  0
C  C25  1  0.49970081  0.38467028  0.76511936  1  0.037692  0  -0.014466  0.040167  0  3.918179  0
C  C26  1  0.49723951  0.15596313  0.54235234  1  0.026951  0  -0.150233  -0.189903  0  3.840687  0
C  C27  1  0.50315479  0.20889501  0.48927662  1  -0.056185  0  -0.149993  -0.189279  0  3.839624  0
C  C28  1  0.49682791  0.92997924  0.70990207  1  0.093462  0  -0.009168  -0.106861  0  3.944783  0
C  C29  1  0.50295365  0.73663628  0.61330123  1  -0.062214  0  -0.008583  -0.105657  0  3.944423  0
C  C30  1  0.49565364  0.87996268  0.75289874  1  -0.016219  0  -0.006488  0.062456  0  3.891617  0
C  C31  1  0.49983847  0.78603854  0.56811970  1  -0.075844  0  -0.015202  0.039312  0  3.917948  0
C  C32  1  0.50460769  0.78671233  0.70631632  1  0.097878  0  -0.006398  0.061291  0  3.891629  0
C  C33  1  0.49969282  0.88045069  0.61532834  1  -0.078305  0  -0.014444  0.040184  0  3.918119  0
C  C34  1  0.49723627  0.88638926  0.84403581  1  -0.014112  0  -0.150223  -0.189909  0  3.84066  0
C  C35  1  0.50315218  0.78038128  0.79110392  1  -0.015936  0  -0.15002  -0.189338  0  3.839673  0
C  C36  1  0.49683336  0.27992354  0.07002143  1  -0.066446  0  -0.009118  -0.106814  0  3.944818  0
C  C37  1  0.50296247  0.37666724  0.26336541  1  0.019714  0  -0.008594  -0.105684  0  3.944537  0
C  C38  1  0.49566350  0.37293790  0.12003788  1  -0.036164  0  -0.006496  0.062409  0  3.891667  0
C  C39  1  0.49984784  0.28208391  0.21396245  1  -0.12907  0  -0.015233  0.0393  0  3.918137  0
C  C40  1  0.50460318  0.41960415  0.21328909  1  0.128628  0  -0.006387  0.061338  0  3.891549  0
C  C41  1  0.49970668  0.23487926  0.11955091  1  0.086297  0  -0.01451  0.040126  0  3.918319  0
C  C42  1  0.49724265  0.45764694  0.11361022  1  0.031959  0  -0.150223  -0.189937  0  3.840632  0
C  C43  1  0.50315659  0.51072269  0.21961817  1  -0.049932  0  -0.149982  -0.189316  0  3.839564  0
Br  Br44  1  0.51493290  0.55872149  0.78162667  1  0.003011  0  0.038327  -0.046972  0  1.628943  0
Br  Br45  1  0.48403688  0.44825984  0.89199912  1  -0.008065  0  0.037954  -0.047462  0  1.628456  0
Br  Br46  1  0.51492735  0.72290984  0.44127769  1  0.002987  0  0.038297  -0.047012  0  1.628929  0
Br  Br47  1  0.48403493  0.94373989  0.55173992  1  -0.013402  0  0.037978  -0.04742  0  1.628444  0
Br  Br48  1  0.51493561  0.21837579  0.27709781  1  -0.00483  0  0.038277  -0.047048  0  1.628978  0
Br  Br49  1  0.48403969  0.10800100  0.05626138  1  -0.006979  0  0.037968  -0.047442  0  1.62847  0
O  O50  1  0.72632296  0.59834037  0.58449758  1  -1.249949  0  -0.233414  -0.590588  0  2.345411  0
O  O51  1  0.72631964  0.48616102  0.40166118  1  -1.256098  0  -0.233451  -0.59061  0  2.345505  0
O  O52  1  0.72631825  0.41550170  0.51384300  1  -1.242792  0  -0.233401  -0.590547  0  2.345517  0
O  O53  1  0.25408485  0.59784563  0.51380488  1  -1.251648  0  -0.231695  -0.599031  0  2.414684  0
O  O54  1  0.25408580  0.48619582  0.58404019  1  -1.250432  0  -0.231706  -0.599001  0  2.41483  0
O  O55  1  0.25408478  0.41596056  0.40215501  1  -1.248253  0  -0.231698  -0.598991  0  2.414796  0
O  O56  1  0.74597261  0.18039579  0.93114856  1  -1.249889  0  -0.231881  -0.599596  0  2.415403  0
O  O57  1  0.74597154  0.25075361  0.81960451  1  -1.245487  0  -0.231823  -0.599509  0  2.415417  0
O  O58  1  0.74597176  0.06885216  0.74924647  1  -1.246219  0  -0.231873  -0.599591  0  2.415399  0
O  O59  1  0.27383839  0.25109694  0.93169595  1  -1.25163  0  -0.233149  -0.589965  0  2.344035  0
O  O60  1  0.27384079  0.06830408  0.81940006  1  -1.252671  0  -0.233164  -0.589985  0  2.344195  0
O  O61  1  0.27383737  0.18059945  0.74890185  1  -1.249763  0  -0.233131  -0.589923  0  2.344053  0
