# generated using pymatgen
data_ZnH12C10(NO2)4
_symmetry_space_group_name_H-M   'P 1'
_cell_length_a   7.34815082
_cell_length_b   11.87760749
_cell_length_c   19.34800000
_cell_angle_alpha   90.00000000
_cell_angle_beta   90.00000000
_cell_angle_gamma   90.00000000
_symmetry_Int_Tables_number   1
_chemical_formula_structural   ZnH12C10(NO2)4
_chemical_formula_sum   'Zn4 H48 C40 N16 O32'
_cell_volume   1688.66347252
_cell_formula_units_Z   4
loop_
 _symmetry_equiv_pos_site_id
 _symmetry_equiv_pos_as_xyz
  1  'x, y, z'
loop_
 _atom_site_type_symbol
 _atom_site_label
 _atom_site_symmetry_multiplicity
 _atom_site_fract_x
 _atom_site_fract_y
 _atom_site_fract_z
 _atom_site_occupancy
 _atom_site_hle17_bader_spin_density
 _atom_site_hle17_ddec_charge
 _atom_site_hle17_ddec_spin_density
 _atom_site_hle17_ddec_sum_bond_order
 _atom_site_hle17_magmom
 _atom_site_hse06_10hf_bader_spin_density
 _atom_site_hse06_10hf_ddec_charge
 _atom_site_hse06_10hf_ddec_spin_density
 _atom_site_hse06_10hf_ddec_sum_bond_order
 _atom_site_hse06_10hf_magmom
 _atom_site_hse06_bader_spin_density
 _atom_site_hse06_ddec_charge
 _atom_site_hse06_ddec_spin_density
 _atom_site_hse06_ddec_sum_bond_order
 _atom_site_hse06_magmom
 _atom_site_pbe_bader_charge
 _atom_site_pbe_bader_spin_density
 _atom_site_pbe_cm5_charge
 _atom_site_pbe_ddec_charge
 _atom_site_pbe_ddec_spin_density
 _atom_site_pbe_ddec_sum_bond_order
 _atom_site_pbe_magmom
Zn  Zn0  1  0.49999926  0.49999968  0.00000052  1  0  1.078464  0  1.743428  0  0  0.895186  0  2.188668  0  0  0.941982  0  2.135128  0  1.337034  0  0.686967  0.862219  0  2.225706  0
Zn  Zn1  1  0.50000062  0.99999937  0.50000052  1  0  1.078471  0  1.743375  0  0  0.895186  0  2.188675  0  0  0.941983  0  2.135139  0  1.337149  0  0.686966  0.862218  0  2.225717  0
Zn  Zn2  1  0.00000000  0.99999937  0.99999948  1  0  1.078533  0  1.74337  0  0  0.895189  0  2.188662  0  0  0.941994  0  2.135113  0  1.337017  0  0.686949  0.862224  0  2.2257  0
Zn  Zn3  1  0.00000136  0.50000137  0.50000000  1  0  1.078486  0  1.743392  0  0  0.895183  0  2.188634  0  0  0.941984  0  2.135091  0  1.33694  0  0.686954  0.862219  0  2.22567  0
H  H4  1  0.45868411  0.25322356  0.04355592  1  0  0.09095  0  0.948476  0  0  0.096377  0  1.015918  0  0  0.098836  0  1.013454  0  0.132909  0  0.119958  0.094508  0  1.017812  0
H  H5  1  0.45868547  0.24677445  0.45644253  1  0  0.091011  0  0.948434  0  0  0.096418  0  1.015904  0  0  0.098877  0  1.013439  0  0.13302  0  0.119985  0.094546  0  1.017796  0
H  H6  1  0.04131380  0.75322408  0.95644356  1  0  0.090994  0  0.948399  0  0  0.096411  0  1.015869  0  0  0.098871  0  1.013402  0  0.133006  0  0.119965  0.094539  0  1.017763  0
H  H7  1  0.04131380  0.74677581  0.54355644  1  0  0.090992  0  0.948391  0  0  0.096417  0  1.015853  0  0  0.098878  0  1.013385  0  0.132994  0  0.119965  0.094546  0  1.017747  0
H  H8  1  0.54131442  0.74677497  0.95644304  1  0  0.091  0  0.948442  0  0  0.096405  0  1.015921  0  0  0.098866  0  1.013455  0  0.132993  0  0.119966  0.094532  0  1.017814  0
H  H9  1  0.54131442  0.75322324  0.54355644  1  0  0.090976  0  0.948432  0  0  0.096402  0  1.015881  0  0  0.098862  0  1.013414  0  0.132934  0  0.119966  0.094529  0  1.017773  0
H  H10  1  0.95868473  0.24677445  0.04355696  1  0  0.090987  0  0.948464  0  0  0.0964  0  1.015932  0  0  0.09886  0  1.013466  0  0.132998  0  0.119968  0.094527  0  1.017823  0
H  H11  1  0.95868609  0.25322692  0.45644356  1  0  0.090964  0  0.948438  0  0  0.096387  0  1.015917  0  0  0.098845  0  1.013454  0  0.133007  0  0.119962  0.094515  0  1.017809  0
H  H12  1  0.45528189  0.14011829  0.14947126  1  0  0.116323  0  0.984664  0  0  0.123336  0  1.050918  0  0  0.126786  0  1.049068  0  0.144538  0  0.107141  0.120848  0  1.052458  0
H  H13  1  0.45528053  0.35987972  0.35052770  1  0  0.116363  0  0.984655  0  0  0.123371  0  1.050914  0  0  0.12682  0  1.049067  0  0.144567  0  0.107148  0.120884  0  1.052452  0
H  H14  1  0.04472418  0.64011881  0.85052770  1  0  0.116303  0  0.984681  0  0  0.123319  0  1.050929  0  0  0.126768  0  1.049083  0  0.144535  0  0.107139  0.120832  0  1.052467  0
H  H15  1  0.04472282  0.85988108  0.64947178  1  0  0.116265  0  0.984685  0  0  0.12327  0  1.050947  0  0  0.126718  0  1.049103  0  0.144547  0  0.10713  0.120783  0  1.052485  0
H  H16  1  0.54471392  0.85987940  0.85052822  1  0  0.11628  0  0.984703  0  0  0.123294  0  1.050952  0  0  0.126742  0  1.049106  0  0.144572  0  0.107121  0.120807  0  1.05249  0
H  H17  1  0.54471936  0.64011797  0.64947178  1  0  0.116325  0  0.984659  0  0  0.123335  0  1.050911  0  0  0.126783  0  1.049066  0  0.144543  0  0.107149  0.120847  0  1.05245  0
H  H18  1  0.95528252  0.35988224  0.14947126  1  0  0.116271  0  0.984688  0  0  0.123281  0  1.05095  0  0  0.126728  0  1.049105  0  0.14452  0  0.107108  0.120793  0  1.05249  0
H  H19  1  0.95527979  0.14012081  0.35052822  1  0  0.116357  0  0.984643  0  0  0.123364  0  1.050889  0  0  0.126811  0  1.049044  0  0.14457  0  0.107157  0.120877  0  1.052427  0
H  H20  1  0.56350232  0.44666403  0.26421956  1  0  0.114377  0  0.939832  0  0  0.126597  0  0.993524  0  0  0.129863  0  0.992596  0  0.098877  0  0.112949  0.124245  0  0.994378  0
H  H21  1  0.56350232  0.05333229  0.23577941  1  0  0.114384  0  0.939766  0  0  0.12661  0  0.993458  0  0  0.129876  0  0.992528  0  0.098691  0  0.112958  0.124258  0  0.994313  0
H  H22  1  0.93649548  0.94666371  0.73577838  1  0  0.114374  0  0.939748  0  0  0.126585  0  0.993455  0  0  0.129852  0  0.992524  0  0.098845  0  0.112951  0.124233  0  0.994309  0
H  H23  1  0.93649003  0.55333197  0.76422059  1  0  0.114381  0  0.939716  0  0  0.126576  0  0.993443  0  0  0.129841  0  0.992514  0  0.098686  0  0.112939  0.124224  0  0.994297  0
H  H24  1  0.43649757  0.55333113  0.73578044  1  0  0.114377  0  0.939767  0  0  0.126612  0  0.993445  0  0  0.129877  0  0.992516  0  0.098698  0  0.112954  0.12426  0  0.994298  0
H  H25  1  0.43649757  0.94666540  0.76421904  1  0  0.114345  0  0.939866  0  0  0.126554  0  0.993572  0  0  0.129819  0  0.992644  0  0.09888  0  0.112935  0.124202  0  0.994424  0
H  H26  1  0.06350441  0.05333734  0.26422111  1  0  0.114344  0  0.939757  0  0  0.12655  0  0.993478  0  0  0.129816  0  0.992551  0  0.098874  0  0.112931  0.124198  0  0.994332  0
H  H27  1  0.06351394  0.44666824  0.23578096  1  0  0.114394  0  0.939739  0  0  0.126608  0  0.993442  0  0  0.129873  0  0.992514  0  0.098705  0  0.112954  0.124256  0  0.994296  0
H  H28  1  0.55108423  0.54844210  0.15216612  1  0  0.090468  0  0.926842  0  0  0.100429  0  0.982904  0  0  0.102855  0  0.980826  0  0.136208  0  0.120857  0.098557  0  0.984603  0
H  H29  1  0.55108150  0.95155527  0.34783440  1  0  0.090457  0  0.926786  0  0  0.100431  0  0.982838  0  0  0.102857  0  0.980759  0  0.136245  0  0.120835  0.098559  0  0.98454  0
H  H30  1  0.94891493  0.04844494  0.84783233  1  0  0.090451  0  0.926771  0  0  0.100428  0  0.982835  0  0  0.102853  0  0.980757  0  0.136179  0  0.120837  0.098557  0  0.984534  0
H  H31  1  0.94890540  0.45155559  0.65216612  1  0  0.090484  0  0.926782  0  0  0.100483  0  0.982807  0  0  0.102909  0  0.980728  0  0.136237  0  0.120847  0.098609  0  0.984512  0
H  H32  1  0.44891839  0.45155474  0.84783492  1  0  0.090481  0  0.926794  0  0  0.10044  0  0.982854  0  0  0.102865  0  0.980777  0  0.136238  0  0.120836  0.098568  0  0.984555  0
H  H33  1  0.44891839  0.04844410  0.65216508  1  0  0.090493  0  0.926786  0  0  0.10045  0  0.982846  0  0  0.102875  0  0.980768  0  0.136222  0  0.120848  0.098577  0  0.984547  0
H  H34  1  0.05108496  0.95155780  0.15216715  1  0  0.090479  0  0.926817  0  0  0.100437  0  0.982889  0  0  0.102864  0  0.98081  0  0.136207  0  0.120864  0.098566  0  0.984588  0
H  H35  1  0.05109993  0.54844463  0.34783440  1  0  0.090408  0  0.926843  0  0  0.100455  0  0.982811  0  0  0.102881  0  0.980731  0  0.136212  0  0.12083  0.098581  0  0.984516  0
H  H36  1  0.60038779  0.29724000  0.93990955  1  0  0.41808  0  0.886364  0  0  0.382705  0  0.957951  0  0  0.394406  0  0.940669  0  0.639102  0  0.288211  0.374402  0  0.97022  0
H  H37  1  0.60038643  0.20275716  0.56009200  1  0  0.418099  0  0.886353  0  0  0.382726  0  0.957931  0  0  0.394427  0  0.940647  0  0.639119  0  0.288208  0.374423  0  0.970201  0
H  H38  1  0.89961681  0.79723884  0.06009200  1  0  0.418185  0  0.886238  0  0  0.382827  0  0.957791  0  0  0.394528  0  0.940508  0  0.639053  0  0.288277  0.374524  0  0.970061  0
H  H39  1  0.89961681  0.70275937  0.43990748  1  0  0.418115  0  0.886325  0  0  0.382742  0  0.957906  0  0  0.394444  0  0.940621  0  0.639101  0  0.28824  0.374439  0  0.970176  0
H  H40  1  0.39961346  0.70275937  0.06009252  1  0  0.418103  0  0.886339  0  0  0.382737  0  0.95791  0  0  0.394438  0  0.940626  0  0.639103  0  0.288227  0.374434  0  0.97018  0
H  H41  1  0.39961619  0.79724221  0.43990800  1  0  0.418065  0  0.886399  0  0  0.38269  0  0.957985  0  0  0.394393  0  0.940699  0  0.639113  0  0.288209  0.374388  0  0.970254  0
H  H42  1  0.10038444  0.20276137  0.93990800  1  0  0.418196  0  0.886225  0  0  0.382839  0  0.957779  0  0  0.39454  0  0.940497  0  0.639058  0  0.288275  0.374535  0  0.97005  0
H  H43  1  0.10038444  0.29724252  0.56009303  1  0  0.41808  0  0.886387  0  0  0.382705  0  0.957972  0  0  0.394409  0  0.940682  0  0.63912  0  0.288193  0.374402  0  0.970242  0
H  H44  1  0.77964241  0.37215071  0.93826080  1  0  0.424474  0  0.875847  0  0  0.389739  0  0.94555  0  0  0.40135  0  0.928309  0  0.647742  0  0.289137  0.381489  0  0.957818  0
H  H45  1  0.77964513  0.12784898  0.56174023  1  0  0.424445  0  0.875893  0  0  0.389703  0  0.945605  0  0  0.401314  0  0.928365  0  0.647711  0  0.289124  0.381453  0  0.957873  0
H  H46  1  0.72035947  0.87214955  0.06174075  1  0  0.424439  0  0.875897  0  0  0.38971  0  0.945584  0  0  0.40132  0  0.928344  0  0.647769  0  0.289112  0.381462  0  0.957851  0
H  H47  1  0.72035674  0.62785035  0.43826029  1  0  0.424421  0  0.875912  0  0  0.389681  0  0.94562  0  0  0.401291  0  0.928378  0  0.647723  0  0.289107  0.381432  0  0.957888  0
H  H48  1  0.22035748  0.62784866  0.06174127  1  0  0.424421  0  0.875919  0  0  0.389695  0  0.945602  0  0  0.401305  0  0.928361  0  0.647756  0  0.289117  0.381446  0  0.957869  0
H  H49  1  0.22035612  0.87214955  0.43826029  1  0  0.424419  0  0.875921  0  0  0.389675  0  0.945637  0  0  0.401286  0  0.928396  0  0.64772  0  0.289119  0.381426  0  0.957904  0
H  H50  1  0.27964042  0.12785066  0.93825977  1  0  0.424437  0  0.875907  0  0  0.389712  0  0.945586  0  0  0.401322  0  0.928346  0  0.647769  0  0.289116  0.381463  0  0.957852  0
H  H51  1  0.27964451  0.37214986  0.56174075  1  0  0.424418  0  0.875921  0  0  0.389684  0  0.945618  0  0  0.401293  0  0.928379  0  0.647726  0  0.289101  0.381436  0  0.957885  0
C  C52  1  0.48113465  0.29343704  0.09339157  1  0  0.152741  0  3.664813  0  0  0.122108  0  3.914654  0  0  0.129432  0  3.932834  0  0.5387  0  0.054637  0.117375  0  3.902383  0
C  C53  1  0.48113738  0.20656096  0.40660688  1  0  0.152735  0  3.664821  0  0  0.122112  0  3.914685  0  0  0.129438  0  3.932864  0  0.53913  0  0.054639  0.117384  0  3.902412  0
C  C54  1  0.01886189  0.79343925  0.90660585  1  0  0.15276  0  3.664836  0  0  0.122063  0  3.914697  0  0  0.129388  0  3.93288  0  0.538385  0  0.054628  0.117334  0  3.902421  0
C  C55  1  0.01885644  0.70656064  0.59339260  1  0  0.152692  0  3.66478  0  0  0.12198  0  3.914703  0  0  0.129307  0  3.932883  0  0.538505  0  0.054567  0.117252  0  3.902429  0
C  C56  1  0.51885979  0.70656064  0.90660792  1  0  0.152757  0  3.664782  0  0  0.122086  0  3.914661  0  0  0.12941  0  3.932843  0  0.53844  0  0.05462  0.117357  0  3.902386  0
C  C57  1  0.51886387  0.79343841  0.59339260  1  0  0.152776  0  3.664747  0  0  0.122121  0  3.914623  0  0  0.129448  0  3.932802  0  0.538721  0  0.054654  0.117395  0  3.902344  0
C  C58  1  0.98113800  0.20656264  0.09339260  1  0  0.15275  0  3.664762  0  0  0.122087  0  3.914626  0  0  0.12941  0  3.932808  0  0.538418  0  0.054645  0.117361  0  3.902347  0
C  C59  1  0.98113936  0.29344041  0.40660740  1  0  0.152807  0  3.664752  0  0  0.122067  0  3.914702  0  0  0.129391  0  3.932881  0  0.538383  0  0.054602  0.11734  0  3.902429  0
C  C60  1  0.48065290  0.23002191  0.15372235  1  0  -0.153667  0  3.684022  0  0  -0.175017  0  3.933019  0  0  -0.182765  0  3.954669  0  -0.089019  0  -0.081504  -0.169997  0  3.918654  0
C  C61  1  0.48065426  0.26997777  0.34627817  1  0  -0.153695  0  3.684076  0  0  -0.175063  0  3.933082  0  0  -0.182811  0  3.954728  0  -0.089603  0  -0.081535  -0.170061  0  3.918696  0
C  C62  1  0.01934364  0.73002076  0.84627817  1  0  -0.153619  0  3.684  0  0  -0.174954  0  3.932999  0  0  -0.182702  0  3.95465  0  -0.089429  0  -0.0815  -0.169928  0  3.918637  0
C  C63  1  0.01934092  0.76997830  0.65372080  1  0  -0.153582  0  3.683902  0  0  -0.17491  0  3.932907  0  0  -0.182657  0  3.954557  0  -0.089904  0  -0.081549  -0.169905  0  3.918522  0
C  C64  1  0.51934291  0.76997746  0.84627869  1  0  -0.153713  0  3.684022  0  0  -0.175044  0  3.933021  0  0  -0.182792  0  3.954669  0  -0.089283  0  -0.081573  -0.17003  0  3.918641  0
C  C65  1  0.51934427  0.73002160  0.65372183  1  0  -0.15368  0  3.684042  0  0  -0.175019  0  3.933048  0  0  -0.182767  0  3.954696  0  -0.089499  0  -0.081552  -0.169993  0  3.918685  0
C  C66  1  0.98065761  0.26998030  0.15372131  1  0  -0.153592  0  3.683991  0  0  -0.174935  0  3.933  0  0  -0.182682  0  3.954648  0  -0.088362  0  -0.081481  -0.169903  0  3.91864  0
C  C67  1  0.98065353  0.23002276  0.34627765  1  0  -0.153759  0  3.683989  0  0  -0.175068  0  3.933001  0  0  -0.182813  0  3.954646  0  -0.089597  0  -0.081576  -0.170059  0  3.918618  0
C  C68  1  0.50988883  0.28268403  0.21751034  1  0  0.092575  0  3.761694  0  0  0.103668  0  3.995397  0  0  0.107537  0  4.017128  0  -0.016418  0  0.011045  0.101188  0  3.980673  0
C  C69  1  0.50989019  0.21731312  0.28248915  1  0  0.092462  0  3.761839  0  0  0.103606  0  3.995509  0  0  0.107475  0  4.017239  0  0.023651  0  0.011078  0.101203  0  3.980715  0
C  C70  1  0.99010760  0.78268540  0.78248863  1  0  0.092541  0  3.7617  0  0  0.103639  0  3.995394  0  0  0.107508  0  4.017124  0  -0.016509  0  0.011049  0.101144  0  3.980694  0
C  C71  1  0.99010352  0.71731365  0.71750982  1  0  0.092446  0  3.76171  0  0  0.103571  0  3.995383  0  0  0.107439  0  4.017114  0  0.023906  0  0.011129  0.101163  0  3.98061  0
C  C72  1  0.49010970  0.71731534  0.78249018  1  0  0.092577  0  3.761628  0  0  0.103682  0  3.995331  0  0  0.107552  0  4.017059  0  -0.016632  0  0.011127  0.101252  0  3.980588  0
C  C73  1  0.49010834  0.78268540  0.71751085  1  0  0.092526  0  3.761715  0  0  0.103626  0  3.99542  0  0  0.107496  0  4.01715  0  0.023545  0  0.011079  0.101136  0  3.98073  0
C  C74  1  0.00989092  0.21731818  0.21751034  1  0  0.092547  0  3.761655  0  0  0.103658  0  3.995334  0  0  0.107527  0  4.017063  0  -0.01716  0  0.011089  0.101148  0  3.980657  0
C  C75  1  0.00988956  0.28268656  0.28249018  1  0  0.092563  0  3.761734  0  0  0.103666  0  3.995422  0  0  0.107534  0  4.01715  0  0.023628  0  0.011102  0.101251  0  3.980673  0
C  C76  1  0.53762097  0.39983389  0.21677176  1  0  -0.16349  0  3.703094  0  0  -0.181883  0  3.951773  0  0  -0.18958  0  3.97337  0  0.018361  0  -0.081445  -0.176804  0  3.937187  0
C  C77  1  0.53762097  0.10016411  0.28322876  1  0  -0.163478  0  3.703178  0  0  -0.181893  0  3.951864  0  0  -0.18959  0  3.973461  0  0.018507  0  -0.081454  -0.176831  0  3.937258  0
C  C78  1  0.96237546  0.89983273  0.78322772  1  0  -0.163455  0  3.703013  0  0  -0.181838  0  3.951714  0  0  -0.189536  0  3.973312  0  0.018509  0  -0.081439  -0.176753  0  3.937131  0
C  C79  1  0.96236865  0.60016632  0.71677124  1  0  -0.163371  0  3.703001  0  0  -0.181761  0  3.95168  0  0  -0.189454  0  3.973276  0  0.018602  0  -0.081442  -0.176695  0  3.937073  0
C  C80  1  0.46237755  0.60016464  0.78322824  1  0  -0.16346  0  3.703027  0  0  -0.181876  0  3.951714  0  0  -0.189571  0  3.973309  0  0.018534  0  -0.081458  -0.176804  0  3.937115  0
C  C81  1  0.46237619  0.89983357  0.71677124  1  0  -0.163408  0  3.703192  0  0  -0.181795  0  3.951863  0  0  -0.189493  0  3.973461  0  0.01834  0  -0.081453  -0.176711  0  3.937279  0
C  C82  1  0.03762579  0.10016832  0.21677124  1  0  -0.163483  0  3.703094  0  0  -0.181865  0  3.951778  0  0  -0.189562  0  3.973376  0  0.018662  0  -0.081456  -0.176774  0  3.937198  0
C  C83  1  0.03763260  0.39983557  0.28322927  1  0  -0.163412  0  3.703009  0  0  -0.181809  0  3.951712  0  0  -0.189505  0  3.973309  0  0.018442  0  -0.081444  -0.176741  0  3.937108  0
C  C84  1  0.53381185  0.45742209  0.15426918  1  0  0.137263  0  3.708543  0  0  0.105639  0  3.959392  0  0  0.112296  0  3.978455  0  0.373658  0  0.048144  0.101332  0  3.946444  0
C  C85  1  0.53381185  0.04257676  0.34573082  1  0  0.13726  0  3.708556  0  0  0.105627  0  3.95941  0  0  0.112287  0  3.978474  0  0.373566  0  0.048129  0.101316  0  3.94647  0
C  C86  1  0.96618458  0.95742177  0.84572927  1  0  0.137354  0  3.708514  0  0  0.105661  0  3.959372  0  0  0.112319  0  3.97844  0  0.374023  0  0.04815  0.101352  0  3.946425  0
C  C87  1  0.96618050  0.54257644  0.65426866  1  0  0.137136  0  3.708622  0  0  0.10548  0  3.959434  0  0  0.112139  0  3.9785  0  0.373996  0  0.04806  0.10117  0  3.946493  0
C  C88  1  0.46618804  0.54257644  0.84573134  1  0  0.137181  0  3.708663  0  0  0.105552  0  3.959485  0  0  0.112212  0  3.978552  0  0.374094  0  0.048088  0.101241  0  3.94654  0
C  C89  1  0.46618668  0.95742177  0.65426918  1  0  0.137183  0  3.708608  0  0  0.10558  0  3.959426  0  0  0.11224  0  3.978491  0  0.37364  0  0.048128  0.101272  0  3.946479  0
C  C90  1  0.03381395  0.04257844  0.15426969  1  0  0.137299  0  3.70856  0  0  0.105649  0  3.959406  0  0  0.112309  0  3.978468  0  0.373907  0  0.048136  0.101342  0  3.946458  0
C  C91  1  0.03382348  0.45742545  0.34573134  1  0  0.137171  0  3.708613  0  0  0.105473  0  3.959435  0  0  0.11213  0  3.978497  0  0.374173  0  0.048052  0.101165  0  3.946492  0
N  N92  1  0.50664175  0.40557663  0.09319154  1  0  -0.326085  0  3.280592  0  0  -0.243719  0  3.541739  0  0  -0.263539  0  3.559443  0  -1.230621  0  -0.318403  -0.23028  0  3.529581  0
N  N93  1  0.50664039  0.09442221  0.40680794  1  0  -0.326102  0  3.280631  0  0  -0.24373  0  3.541777  0  0  -0.263557  0  3.559489  0  -1.230668  0  -0.318403  -0.230291  0  3.52962  0
N  N94  1  0.99335604  0.90557884  0.90680742  1  0  -0.326254  0  3.280678  0  0  -0.243744  0  3.541702  0  0  -0.263571  0  3.559413  0  -1.230356  0  -0.318383  -0.230303  0  3.529543  0
N  N95  1  0.99335332  0.59442106  0.59319206  1  0  -0.326054  0  3.280729  0  0  -0.243614  0  3.541806  0  0  -0.263443  0  3.559521  0  -1.230453  0  -0.318278  -0.230174  0  3.529649  0
N  N96  1  0.49335814  0.59442022  0.90680897  1  0  -0.326066  0  3.280712  0  0  -0.24363  0  3.541765  0  0  -0.263462  0  3.559485  0  -1.230506  0  -0.318289  -0.230185  0  3.5296  0
N  N97  1  0.49335678  0.90557800  0.59319103  1  0  -0.326081  0  3.280575  0  0  -0.243707  0  3.541707  0  0  -0.263534  0  3.559419  0  -1.230192  0  -0.318362  -0.230268  0  3.529549  0
N  N98  1  0.00664113  0.09442306  0.09319258  1  0  -0.326181  0  3.280535  0  0  -0.243739  0  3.541613  0  0  -0.263564  0  3.559322  0  -1.230891  0  -0.318396  -0.2303  0  3.529453  0
N  N99  1  0.00664929  0.40557915  0.40680846  1  0  -0.326045  0  3.280673  0  0  -0.243587  0  3.541766  0  0  -0.263409  0  3.559473  0  -1.23039  0  -0.318261  -0.230151  0  3.52961  0
N  N100  1  0.12111482  0.41632964  0.94284939  1  0  0.703215  0  4.14295  0  0  0.740488  0  4.427645  0  0  0.754355  0  4.455574  0  0.855935  0  0.10587  0.720873  0  4.423583  0
N  N101  1  0.12111755  0.08367342  0.55715268  1  0  0.703416  0  4.142733  0  0  0.740513  0  4.427608  0  0  0.754382  0  4.455532  0  0.855771  0  0.105866  0.720899  0  4.423545  0
N  N102  1  0.37888580  0.91632932  0.05715009  1  0  0.703192  0  4.142898  0  0  0.740417  0  4.427646  0  0  0.75425  0  4.455626  0  0.855599  0  0.105892  0.720802  0  4.423584  0
N  N103  1  0.37888444  0.58367563  0.44284836  1  0  0.703438  0  4.14281  0  0  0.740562  0  4.427647  0  0  0.754474  0  4.455524  0  0.855767  0  0.105894  0.720947  0  4.423585  0
N  N104  1  0.87888642  0.58366973  0.05715061  1  0  0.703205  0  4.142939  0  0  0.740448  0  4.42768  0  0  0.754374  0  4.455526  0  0.855917  0  0.105849  0.720834  0  4.423618  0
N  N105  1  0.87888370  0.91632595  0.44284784  1  0  0.703208  0  4.143042  0  0  0.740444  0  4.427746  0  0  0.754305  0  4.455682  0  0.85575  0  0.105842  0.72083  0  4.423682  0
N  N106  1  0.62111545  0.08367089  0.94284991  1  0  0.703201  0  4.143  0  0  0.740437  0  4.427721  0  0  0.754272  0  4.455704  0  0.855602  0  0.105918  0.720822  0  4.42366  0
N  N107  1  0.62111545  0.41632795  0.55715061  1  0  0.703336  0  4.142923  0  0  0.740569  0  4.427658  0  0  0.754414  0  4.455611  0  0.855385  0  0.105936  0.720955  0  4.423596  0
O  O108  1  0.27290403  0.38677907  0.96919733  1  0  -0.482822  0  1.857664  0  0  -0.456986  0  2.096076  0  0  -0.471469  0  2.093454  0  -0.574176  0  -0.18305  -0.4434  0  2.101901  0
O  O109  1  0.27291084  0.11322566  0.53080887  1  0  -0.482843  0  1.857444  0  0  -0.456991  0  2.095956  0  0  -0.471481  0  2.093334  0  -0.574164  0  -0.183049  -0.443409  0  2.101782  0
O  O110  1  0.22709523  0.88677876  0.03080215  1  0  -0.482812  0  1.857575  0  0  -0.456938  0  2.095949  0  0  -0.471418  0  2.093343  0  -0.573865  0  -0.183051  -0.443352  0  2.101774  0
O  O111  1  0.22709251  0.61322535  0.46919320  1  0  -0.48291  0  1.857576  0  0  -0.457047  0  2.096063  0  0  -0.471558  0  2.093434  0  -0.574189  0  -0.18307  -0.443461  0  2.101887  0
O  O112  1  0.72709585  0.61322114  0.03080318  1  0  -0.48282  0  1.857652  0  0  -0.456981  0  2.09608  0  0  -0.471482  0  2.093434  0  -0.574157  0  -0.183042  -0.443396  0  2.101905  0
O  O113  1  0.72709313  0.88677539  0.46919165  1  0  -0.482763  0  1.857607  0  0  -0.456952  0  2.096075  0  0  -0.47144  0  2.093459  0  -0.574132  0  -0.183017  -0.443365  0  2.101896  0
O  O114  1  0.77290466  0.11322061  0.96919785  1  0  -0.482821  0  1.857621  0  0  -0.456942  0  2.095987  0  0  -0.471427  0  2.093385  0  -0.573855  0  -0.183054  -0.443356  0  2.101813  0
O  O115  1  0.77290466  0.38677907  0.53080215  1  0  -0.482854  0  1.85759  0  0  -0.456979  0  2.095949  0  0  -0.47146  0  2.093338  0  -0.573667  0  -0.183059  -0.443397  0  2.101776  0
O  O116  1  0.00778835  0.33764039  0.92817914  1  0  -0.484659  0  1.809164  0  0  -0.463423  0  2.009706  0  0  -0.475956  0  2.005093  0  -0.58778  0  -0.18418  -0.451277  0  2.017027  0
O  O117  1  0.00778835  0.16236351  0.57181983  1  0  -0.484643  0  1.809067  0  0  -0.463338  0  2.009661  0  0  -0.475872  0  2.005044  0  -0.587657  0  -0.18416  -0.451195  0  2.016981  0
O  O118  1  0.49221227  0.83763923  0.07181983  1  0  -0.484588  0  1.809151  0  0  -0.463321  0  2.009674  0  0  -0.47584  0  2.005073  0  -0.587813  0  -0.184169  -0.451179  0  2.016996  0
O  O119  1  0.49220955  0.66236488  0.42818017  1  0  -0.484612  0  1.809097  0  0  -0.463303  0  2.009662  0  0  -0.475846  0  2.005032  0  -0.587684  0  -0.18414  -0.451162  0  2.016983  0
O  O120  1  0.99221153  0.66235982  0.07182086  1  0  -0.484649  0  1.809155  0  0  -0.463412  0  2.009705  0  0  -0.475963  0  2.005066  0  -0.587783  0  -0.184177  -0.451269  0  2.017026  0
O  O121  1  0.99221017  0.83763586  0.42818017  1  0  -0.484584  0  1.809158  0  0  -0.463308  0  2.009688  0  0  -0.475834  0  2.005075  0  -0.587672  0  -0.184158  -0.451168  0  2.017011  0
O  O122  1  0.50778898  0.16236182  0.92817914  1  0  -0.484587  0  1.809146  0  0  -0.463337  0  2.009681  0  0  -0.475858  0  2.00508  0  -0.587839  0  -0.184195  -0.45119  0  2.017001  0
O  O123  1  0.50779034  0.33763702  0.57181983  1  0  -0.484627  0  1.809147  0  0  -0.463376  0  2.009692  0  0  -0.475899  0  2.005083  0  -0.587814  0  -0.184207  -0.451234  0  2.017015  0
O  O124  1  0.08340602  0.51664866  0.93139084  1  0  -0.422434  0  1.791114  0  0  -0.427404  0  2.006584  0  0  -0.434577  0  2.007424  0  -0.512226  0  -0.168175  -0.418698  0  2.010266  0
O  O125  1  0.08340602  0.98335545  0.56860916  1  0  -0.422624  0  1.791274  0  0  -0.427453  0  2.006713  0  0  -0.434632  0  2.007566  0  -0.512171  0  -0.168179  -0.418747  0  2.010395  0
O  O126  1  0.41659461  0.01664729  0.06860916  1  0  -0.42248  0  1.791234  0  0  -0.427424  0  2.006689  0  0  -0.434592  0  2.007554  0  -0.512176  0  -0.168194  -0.418717  0  2.010371  0
O  O127  1  0.41659461  0.48335660  0.43139136  1  0  -0.422625  0  1.791239  0  0  -0.427491  0  2.006687  0  0  -0.434686  0  2.007524  0  -0.512139  0  -0.168193  -0.418784  0  2.010369  0
O  O128  1  0.91659523  0.48335155  0.06860864  1  0  -0.422432  0  1.791156  0  0  -0.427364  0  2.006609  0  0  -0.434561  0  2.007433  0  -0.512233  0  -0.16816  -0.418657  0  2.010291  0
O  O129  1  0.91659659  0.01664477  0.43139136  1  0  -0.42255  0  1.791301  0  0  -0.427445  0  2.006698  0  0  -0.434618  0  2.007552  0  -0.512191  0  -0.168179  -0.41874  0  2.01038  0
O  O130  1  0.58340392  0.98335292  0.93139136  1  0  -0.422486  0  1.791279  0  0  -0.427429  0  2.006733  0  0  -0.434589  0  2.007586  0  -0.512184  0  -0.168205  -0.418724  0  2.010414  0
O  O131  1  0.58340392  0.51664613  0.56860864  1  0  -0.422568  0  1.79133  0  0  -0.427496  0  2.006758  0  0  -0.434665  0  2.007619  0  -0.512158  0  -0.1682  -0.418789  0  2.010439  0
O  O132  1  0.64526983  0.37596039  0.94232530  1  0  -0.846528  0  1.944883  0  0  -0.790285  0  2.15989  0  0  -0.810845  0  2.122338  0  -1.26427  0  -0.584688  -0.775531  0  2.18598  0
O  O133  1  0.64527119  0.12403761  0.55767470  1  0  -0.846515  0  1.944911  0  0  -0.790267  0  2.159948  0  0  -0.810829  0  2.1224  0  -1.264295  0  -0.584669  -0.775505  0  2.186022  0
O  O134  1  0.85473205  0.87595840  0.05767470  1  0  -0.846595  0  1.944832  0  0  -0.790357  0  2.159843  0  0  -0.810928  0  2.122309  0  -1.264204  0  -0.584724  -0.775598  0  2.185917  0
O  O135  1  0.85473069  0.62403897  0.44232530  1  0  -0.846508  0  1.944905  0  0  -0.790279  0  2.159956  0  0  -0.810845  0  2.122415  0  -1.2642  0  -0.584694  -0.775518  0  2.18603  0
O  O136  1  0.35473006  0.62403897  0.05767573  1  0  -0.846483  0  1.944913  0  0  -0.790238  0  2.159911  0  0  -0.810806  0  2.122375  0  -1.264224  0  -0.584673  -0.775478  0  2.185985  0
O  O137  1  0.35473006  0.87596176  0.44232582  1  0  -0.846473  0  1.944964  0  0  -0.790229  0  2.159995  0  0  -0.810797  0  2.122456  0  -1.264349  0  -0.584689  -0.775468  0  2.186071  0
O  O138  1  0.14526920  0.12404097  0.94232582  1  0  -0.846608  0  1.944858  0  0  -0.790378  0  2.159879  0  0  -0.810937  0  2.122322  0  -1.264264  0  -0.584729  -0.77563  0  2.185979  0
O  O139  1  0.14527192  0.37596208  0.55767573  1  0  -0.846483  0  1.944963  0  0  -0.790252  0  2.160002  0  0  -0.810813  0  2.122455  0  -1.264222  0  -0.584636  -0.775492  0  2.186075  0
