# generated using pymatgen
data_LiH3(CO)4
_symmetry_space_group_name_H-M   'P 1'
_cell_length_a   7.68889702
_cell_length_b   8.43810867
_cell_length_c   8.52256987
_cell_angle_alpha   90.00035848
_cell_angle_beta   112.76469580
_cell_angle_gamma   89.99977787
_symmetry_Int_Tables_number   1
_chemical_formula_structural   LiH3(CO)4
_chemical_formula_sum   'Li4 H12 C16 O16'
_cell_volume   509.86896364
_cell_formula_units_Z   4
loop_
 _symmetry_equiv_pos_site_id
 _symmetry_equiv_pos_as_xyz
  1  'x, y, z'
loop_
 _atom_site_type_symbol
 _atom_site_label
 _atom_site_symmetry_multiplicity
 _atom_site_fract_x
 _atom_site_fract_y
 _atom_site_fract_z
 _atom_site_occupancy
 _atom_site_hle17_bader_spin_density
 _atom_site_hle17_ddec_charge
 _atom_site_hle17_ddec_spin_density
 _atom_site_hle17_ddec_sum_bond_order
 _atom_site_hle17_magmom
 _atom_site_hse06_10hf_bader_spin_density
 _atom_site_hse06_10hf_ddec_charge
 _atom_site_hse06_10hf_ddec_spin_density
 _atom_site_hse06_10hf_ddec_sum_bond_order
 _atom_site_hse06_10hf_magmom
 _atom_site_hse06_bader_spin_density
 _atom_site_hse06_ddec_charge
 _atom_site_hse06_ddec_spin_density
 _atom_site_hse06_ddec_sum_bond_order
 _atom_site_hse06_magmom
 _atom_site_pbe_bader_spin_density
 _atom_site_pbe_cm5_charge
 _atom_site_pbe_ddec_charge
 _atom_site_pbe_ddec_spin_density
 _atom_site_pbe_ddec_sum_bond_order
 _atom_site_pbe_magmom
Li  Li0  1  0.31885816  0.48337601  0.89086411  1  0  0.855586  0  0.409209  0  0  0.815102  0  0.516184  0  0  0.825222  0  0.4983  0  0  0.5299  0.807818  0  0.529008  0
Li  Li1  1  0.18114521  0.98337204  0.10913807  1  0  0.855608  0  0.409165  0  0  0.815119  0  0.516151  0  0  0.82524  0  0.498267  0  0  0.529901  0.807837  0  0.528976  0
Li  Li2  1  0.68114333  0.51662434  0.10913648  1  0  0.855596  0  0.409174  0  0  0.815109  0  0.516151  0  0  0.82523  0  0.498266  0  0  0.529902  0.807828  0  0.528975  0
Li  Li3  1  0.81885628  0.01662831  0.89086252  1  0  0.855604  0  0.409175  0  0  0.815106  0  0.516174  0  0  0.825228  0  0.498286  0  0  0.529882  0.807823  0  0.528999  0
H  H4  1  0.63054410  0.43947070  0.41880507  1  0  0.131882  0  0.953654  0  0  0.136034  0  1.019283  0  0  0.140704  0  1.017071  0  0  0.11983  0.132688  0  1.021028  0
H  H5  1  0.86945274  0.93947501  0.58119752  1  0  0.131891  0  0.953548  0  0  0.136036  0  1.019189  0  0  0.14071  0  1.016975  0  0  0.119836  0.132691  0  1.020929  0
H  H6  1  0.36944945  0.56052728  0.58118916  1  0  0.131901  0  0.953576  0  0  0.136057  0  1.019214  0  0  0.140726  0  1.017005  0  0  0.119854  0.132711  0  1.020955  0
H  H7  1  0.13054539  0.06052889  0.41880435  1  0  0.131895  0  0.953611  0  0  0.136048  0  1.019238  0  0  0.140719  0  1.017027  0  0  0.119834  0.1327  0  1.020983  0
H  H8  1  0.52572436  0.08354147  0.37598204  1  0  0.125629  0  0.956467  0  0  0.129662  0  1.024879  0  0  0.134042  0  1.021767  0  0  0.118724  0.126472  0  1.02732  0
H  H9  1  0.97427144  0.58354448  0.62401478  1  0  0.125613  0  0.956617  0  0  0.12962  0  1.025049  0  0  0.133992  0  1.021932  0  0  0.11875  0.126433  0  1.027483  0
H  H10  1  0.47427268  0.91645414  0.62401728  1  0  0.125605  0  0.956532  0  0  0.129639  0  1.024934  0  0  0.134012  0  1.021814  0  0  0.118751  0.126452  0  1.027369  0
H  H11  1  0.02573319  0.41646061  0.37598708  1  0  0.1256  0  0.956566  0  0  0.129621  0  1.024993  0  0  0.133994  0  1.02188  0  0  0.118725  0.126433  0  1.02743  0
H  H12  1  0.79204650  0.37553098  0.86674523  1  0  0.408962  0  0.879743  0  0  0.374545  0  0.962788  0  0  0.389015  0  0.945614  0  0  0.315632  0.364327  0  0.97386  0
H  H13  1  0.70795325  0.87553062  0.13325445  1  0  0.408919  0  0.879808  0  0  0.37451  0  0.962837  0  0  0.388979  0  0.945666  0  0  0.315622  0.364281  0  0.973929  0
H  H14  1  0.20794944  0.62446937  0.13325154  1  0  0.40888  0  0.879853  0  0  0.37447  0  0.962888  0  0  0.388939  0  0.945723  0  0  0.315612  0.364241  0  0.973982  0
H  H15  1  0.29204543  0.12446736  0.86674868  1  0  0.408921  0  0.879773  0  0  0.374518  0  0.962807  0  0  0.388987  0  0.945653  0  0  0.3156  0.364321  0  0.973835  0
C  C16  1  0.69514582  0.27779051  0.63796461  1  0  0.712174  0  3.814747  0  0  0.673545  0  4.095524  0  0  0.707771  0  4.085358  0  0  0.248331  0.650338  0  4.101839  0
C  C17  1  0.80485486  0.77778771  0.36203327  1  0  0.712014  0  3.814373  0  0  0.673383  0  4.095213  0  0  0.707591  0  4.085069  0  0  0.248264  0.65017  0  4.101535  0
C  C18  1  0.30485608  0.72220865  0.36203089  1  0  0.712115  0  3.81443  0  0  0.673514  0  4.095217  0  0  0.707717  0  4.085077  0  0  0.248333  0.650307  0  4.101532  0
C  C19  1  0.19514738  0.22221145  0.63796605  1  0  0.712003  0  3.814318  0  0  0.673395  0  4.095109  0  0  0.70761  0  4.084962  0  0  0.248264  0.650188  0  4.101418  0
C  C20  1  0.61951981  0.31686872  0.45431725  1  0  -0.176045  0  3.64063  0  0  -0.194812  0  3.892845  0  0  -0.204271  0  3.911015  0  0  -0.070018  -0.1885  0  3.880628  0
C  C21  1  0.88047559  0.81686327  0.54568085  1  0  -0.176053  0  3.640554  0  0  -0.194816  0  3.892783  0  0  -0.20427  0  3.910952  0  0  -0.070063  -0.188502  0  3.880566  0
C  C22  1  0.38047332  0.68314229  0.54568208  1  0  -0.176126  0  3.640835  0  0  -0.194912  0  3.893051  0  0  -0.204364  0  3.911225  0  0  -0.070074  -0.188597  0  3.880831  0
C  C23  1  0.11952350  0.18313589  0.45431720  1  0  -0.17608  0  3.640824  0  0  -0.194842  0  3.893027  0  0  -0.204301  0  3.911199  0  0  -0.070057  -0.188528  0  3.880805  0
C  C24  1  0.53751721  0.20491094  0.33727247  1  0  -0.144976  0  3.616442  0  0  -0.171052  0  3.873297  0  0  -0.175127  0  3.888519  0  0  -0.058101  -0.16834  0  3.863091  0
C  C25  1  0.96247989  0.70490595  0.66272247  1  0  -0.144894  0  3.616564  0  0  -0.170941  0  3.873407  0  0  -0.174999  0  3.888618  0  0  -0.058084  -0.168231  0  3.8632  0
C  C26  1  0.46247948  0.79509059  0.66272303  1  0  -0.144894  0  3.616777  0  0  -0.170952  0  3.873629  0  0  -0.175008  0  3.888838  0  0  -0.058106  -0.168242  0  3.863421  0
C  C27  1  0.03752529  0.29509321  0.33728067  1  0  -0.14491  0  3.616575  0  0  -0.17098  0  3.873417  0  0  -0.175043  0  3.888637  0  0  -0.058095  -0.168271  0  3.863211  0
C  C28  1  0.45209093  0.23745452  0.15091083  1  0  0.752222  0  3.841677  0  0  0.713911  0  4.122435  0  0  0.74779  0  4.110674  0  0  0.248972  0.691019  0  4.12972  0
C  C29  1  0.04789951  0.73744990  0.84908620  1  0  0.752081  0  3.841622  0  0  0.713778  0  4.12238  0  0  0.747653  0  4.110622  0  0  0.248926  0.690885  0  4.129662  0
C  C30  1  0.54791056  0.76254701  0.84908976  1  0  0.75215  0  3.841615  0  0  0.713822  0  4.122394  0  0  0.7477  0  4.110634  0  0  0.248956  0.69093  0  4.129678  0
C  C31  1  0.95209274  0.26255163  0.15090803  1  0  0.752181  0  3.841916  0  0  0.713888  0  4.122651  0  0  0.747764  0  4.110889  0  0  0.248946  0.690996  0  4.129938  0
O  O32  1  0.70701707  0.13903445  0.69096649  1  0  -0.665828  0  1.958171  0  0  -0.626252  0  2.185795  0  0  -0.645757  0  2.171783  0  0  -0.364624  -0.612865  0  2.19519  0
O  O33  1  0.79298254  0.63903135  0.30903063  1  0  -0.665699  0  1.957822  0  0  -0.62612  0  2.185486  0  0  -0.645611  0  2.171469  0  0  -0.364541  -0.612731  0  2.194883  0
O  O34  1  0.29298832  0.86096709  0.30903410  1  0  -0.665771  0  1.957894  0  0  -0.626206  0  2.185537  0  0  -0.645705  0  2.171539  0  0  -0.364602  -0.612819  0  2.194933  0
O  O35  1  0.20702914  0.36096900  0.69097249  1  0  -0.665693  0  1.957806  0  0  -0.626153  0  2.185507  0  0  -0.645623  0  2.171445  0  0  -0.364539  -0.612765  0  2.194897  0
O  O36  1  0.74662787  0.40353337  0.73721178  1  0  -0.538084  0  2.07853  0  0  -0.484405  0  2.292712  0  0  -0.508469  0  2.27766  0  0  -0.297228  -0.467606  0  2.301744  0
O  O37  1  0.75337260  0.90353012  0.26278679  1  0  -0.537969  0  2.078517  0  0  -0.484335  0  2.29275  0  0  -0.508386  0  2.277691  0  0  -0.297216  -0.467527  0  2.301801  0
O  O38  1  0.25337068  0.59647054  0.26278499  1  0  -0.537949  0  2.078597  0  0  -0.484325  0  2.292825  0  0  -0.50837  0  2.277772  0  0  -0.297228  -0.467519  0  2.301873  0
O  O39  1  0.24662519  0.09646312  0.73721126  1  0  -0.538023  0  2.078401  0  0  -0.484382  0  2.2926  0  0  -0.508446  0  2.277568  0  0  -0.297243  -0.467594  0  2.301597  0
O  O40  1  0.47984477  0.36939143  0.09364186  1  0  -0.769729  0  1.973926  0  0  -0.726409  0  2.210248  0  0  -0.747157  0  2.194911  0  0  -0.434911  -0.712099  0  2.220521  0
O  O41  1  0.02015324  0.86939203  0.90635588  1  0  -0.769695  0  1.973882  0  0  -0.726384  0  2.210194  0  0  -0.747129  0  2.194863  0  0  -0.434923  -0.712074  0  2.220467  0
O  O42  1  0.52015097  0.63060655  0.90635746  1  0  -0.769731  0  1.973758  0  0  -0.726406  0  2.210075  0  0  -0.747155  0  2.19474  0  0  -0.434948  -0.712095  0  2.220348  0
O  O43  1  0.97984762  0.13060595  0.09365234  1  0  -0.769801  0  1.973992  0  0  -0.726483  0  2.210288  0  0  -0.74723  0  2.194955  0  0  -0.434948  -0.712171  0  2.220562  0
O  O44  1  0.35029044  0.12616643  0.05762468  1  0  -0.691803  0  1.979402  0  0  -0.639855  0  2.201358  0  0  -0.663763  0  2.187345  0  0  -0.356466  -0.623253  0  2.210299  0
O  O45  1  0.14970093  0.62616086  0.94237047  1  0  -0.691758  0  1.979411  0  0  -0.639792  0  2.201346  0  0  -0.663714  0  2.187358  0  0  -0.356468  -0.623172  0  2.210304  0
O  O46  1  0.64970940  0.87383273  0.94237209  1  0  -0.691785  0  1.979539  0  0  -0.639821  0  2.201498  0  0  -0.663732  0  2.187487  0  0  -0.356456  -0.623203  0  2.210454  0
O  O47  1  0.85029775  0.37382882  0.05763267  1  0  -0.691735  0  1.97974  0  0  -0.639796  0  2.20171  0  0  -0.663705  0  2.187699  0  0  -0.356408  -0.623184  0  2.210662  0
