# generated using pymatgen
data_CdH24C32(N7O4)2
_symmetry_space_group_name_H-M   'P 1'
_cell_length_a   7.91920262
_cell_length_b   12.45834133
_cell_length_c   19.73146913
_cell_angle_alpha   82.36443661
_cell_angle_beta   82.58073926
_cell_angle_gamma   74.48437239
_symmetry_Int_Tables_number   1
_chemical_formula_structural   CdH24C32(N7O4)2
_chemical_formula_sum   'Cd2 H48 C64 N28 O16'
_cell_volume   1850.18645489
_cell_formula_units_Z   2
loop_
 _symmetry_equiv_pos_site_id
 _symmetry_equiv_pos_as_xyz
  1  'x, y, z'
loop_
 _atom_site_type_symbol
 _atom_site_label
 _atom_site_symmetry_multiplicity
 _atom_site_fract_x
 _atom_site_fract_y
 _atom_site_fract_z
 _atom_site_occupancy
 _atom_site_pbe_bader_charge
 _atom_site_pbe_bader_spin_density
 _atom_site_pbe_cm5_charge
 _atom_site_pbe_ddec_charge
 _atom_site_pbe_ddec_spin_density
 _atom_site_pbe_ddec_sum_bond_order
 _atom_site_pbe_magmom
Cd  Cd0  1  0.36725970  0.21630539  0.25556797  1  1.276801  0  0.791844  0.819594  0  2.263436  0
Cd  Cd1  1  0.63274346  0.78369339  0.74443213  1  1.2769  0  0.791834  0.819571  0  2.263482  0
H  H2  1  0.64025283  0.02464242  0.15237105  1  0.155604  0  0.133575  0.107086  0  1.005502  0
H  H3  1  0.35975100  0.97536135  0.84762404  1  0.155345  0  0.133608  0.107092  0  1.0055  0
H  H4  1  0.08800384  0.09313869  0.17588172  1  0.233468  0  0.140577  0.119101  0  1.034357  0
H  H5  1  0.91200219  0.90685925  0.82411933  1  0.233403  0  0.140572  0.119099  0  1.034304  0
H  H6  1  0.02583148  0.89264799  0.17405148  1  0.109485  0  0.109469  0.124075  0  1.006864  0
H  H7  1  0.97417327  0.10734995  0.82594912  1  0.109502  0  0.109472  0.124054  0  1.006855  0
H  H8  1  0.85505921  0.79887728  0.11410127  1  0.097818  0  0.110261  0.128474  0  0.996759  0
H  H9  1  0.14493946  0.20112320  0.88589992  1  0.097849  0  0.110264  0.128491  0  0.996789  0
H  H10  1  0.16688948  0.85485896  0.92350574  1  0.111948  0  0.11065  0.128788  0  0.990632  0
H  H11  1  0.83310733  0.14513651  0.07649496  1  0.111916  0  0.110674  0.128848  0  0.990563  0
H  H12  1  0.33353990  0.95390571  0.98368182  1  0.087411  0  0.106376  0.105191  0  1.047357  0
H  H13  1  0.66645597  0.04609227  0.01631617  1  0.087376  0  0.106369  0.105169  0  1.047409  0
H  H14  1  0.02776570  0.58504777  0.05610209  1  0.112841  0  0.105776  0.119182  0  1.041954  0
H  H15  1  0.97223617  0.41495769  0.94389547  1  0.112865  0  0.105791  0.119225  0  1.041927  0
H  H16  1  0.84554401  0.45487414  0.10974423  1  0.109058  0  0.103766  0.109755  0  1.059107  0
H  H17  1  0.15446203  0.54512713  0.89025400  1  0.109025  0  0.103778  0.109723  0  1.059118  0
H  H18  1  0.38859790  0.68036860  0.02562264  1  0.110357  0  0.103788  0.107701  0  1.046943  0
H  H19  1  0.61139947  0.31963191  0.97438064  1  0.110299  0  0.103784  0.10767  0  1.047051  0
H  H20  1  0.57482091  0.80856471  0.97112543  1  0.068819  0  0.10478  0.116962  0  1.020702  0
H  H21  1  0.42517295  0.19143830  0.02887578  1  0.068866  0  0.104749  0.116967  0  1.02071  0
H  H22  1  0.13906470  0.41880728  0.13177802  1  0.129159  0  0.132428  0.103225  0  1.018014  0
H  H23  1  0.86093876  0.58119402  0.86822236  1  0.129121  0  0.132454  0.103289  0  1.018039  0
H  H24  1  0.67712003  0.35248615  0.15769603  1  0.18938  0  0.137363  0.111566  0  1.048401  0
H  H25  1  0.32288375  0.64751430  0.84230440  1  0.189418  0  0.13735  0.111574  0  1.04846  0
H  H26  1  0.53612293  0.07563974  0.42218152  1  0.186632  0  0.130972  0.09929  0  1.027957  0
H  H27  1  0.46387835  0.92435737  0.57781730  1  0.186582  0  0.130961  0.099302  0  1.027948  0
H  H28  1  0.12032788  0.03814073  0.32113370  1  0.227861  0  0.136262  0.109996  0  1.056547  0
H  H29  1  0.87966505  0.96185811  0.67886843  1  0.228016  0  0.136291  0.11006  0  1.056461  0
H  H30  1  0.17276900  0.88353202  0.54767079  1  0.12719  0  0.107961  0.117915  0  1.033843  0
H  H31  1  0.82722680  0.11646932  0.45232996  1  0.127197  0  0.10795  0.117911  0  1.033905  0
H  H32  1  0.98654923  0.75241405  0.59254248  1  0.093965  0  0.106737  0.130617  0  1.016398  0
H  H33  1  0.01344722  0.24758561  0.40745838  1  0.094003  0  0.106727  0.130589  0  1.016388  0
H  H34  1  0.85586689  0.74955665  0.38727997  1  0.086521  0  0.108632  0.125995  0  0.997405  0
H  H35  1  0.14414013  0.25043876  0.61271972  1  0.086652  0  0.108625  0.126015  0  0.997371  0
H  H36  1  0.04571990  0.87590067  0.34223700  1  0.097804  0  0.108601  0.121098  0  1.016271  0
H  H37  1  0.95428165  0.12409896  0.65776362  1  0.097775  0  0.10859  0.121089  0  1.016301  0
H  H38  1  0.47075608  0.75052456  0.50306542  1  0.072976  0  0.105855  0.119117  0  1.025801  0
H  H39  1  0.52924132  0.24947593  0.49693533  1  0.073003  0  0.105817  0.11909  0  1.025871  0
H  H40  1  0.30259648  0.66182070  0.43708428  1  0.09419  0  0.10467  0.110228  0  1.055296  0
H  H41  1  0.69740220  0.33817979  0.56291641  1  0.094205  0  0.104668  0.110197  0  1.055317  0
H  H42  1  0.78660408  0.42588087  0.37421073  1  0.111451  0  0.106689  0.11313  0  1.045429  0
H  H43  1  0.21339557  0.57412043  0.62578832  1  0.11155  0  0.106678  0.113109  0  1.045461  0
H  H44  1  0.94963317  0.50816376  0.44432234  1  0.131932  0  0.107838  0.122082  0  1.024337  0
H  H45  1  0.05036296  0.49183674  0.55567848  1  0.131867  0  0.107845  0.122096  0  1.024293  0
H  H46  1  0.09408112  0.47286326  0.30750611  1  0.148492  0  0.136777  0.106946  0  0.986751  0
H  H47  1  0.90591564  0.52714223  0.69249172  1  0.148542  0  0.136807  0.106986  0  0.986752  0
H  H48  1  0.61655920  0.32411072  0.34939970  1  0.217196  0  0.141304  0.118175  0  1.021048  0
H  H49  1  0.38343758  0.67589143  0.65059891  1  0.21725  0  0.141287  0.118142  0  1.021022  0
C  C50  1  0.50692694  0.02219077  0.14656041  1  0.93741  0  0.138879  0.130122  0  3.997345  0
C  C51  1  0.49307848  0.97781216  0.85343568  1  0.937012  0  0.138852  0.130055  0  3.997445  0
C  C52  1  0.22633628  0.05874837  0.16046194  1  0.956849  0  0.167223  0.106475  0  3.873076  0
C  C53  1  0.77367041  0.94125122  0.83953639  1  0.95685  0  0.167179  0.106481  0  3.873033  0
C  C54  1  0.19167263  0.92614349  0.08208846  1  0.294443  0  0.084344  0.114875  0  4.020189  0
C  C55  1  0.80832797  0.07385865  0.91791047  1  0.294124  0  0.084327  0.114858  0  4.020282  0
C  C56  1  0.05758298  0.88337548  0.11935449  1  -0.021964  0  -0.084014  -0.135554  0  3.98946  0
C  C57  1  0.94241540  0.11662583  0.88064462  1  -0.022023  0  -0.083955  -0.135423  0  3.9894  0
C  C58  1  0.96204720  0.83086239  0.08590772  1  0.005936  0  -0.100719  -0.195012  0  3.991578  0
C  C59  1  0.03794987  0.16913894  0.91409348  1  0.005662  0  -0.10086  -0.195281  0  3.991699  0
C  C60  1  0.00354768  0.82034176  0.01556052  1  0.402424  0  0.090432  0.262968  0  4.036154  0
C  C61  1  0.99644591  0.17965875  0.98443991  1  0.402678  0  0.090483  0.263185  0  4.036145  0
C  C62  1  0.13869367  0.86308499  0.97842463  1  0.001035  0  -0.095796  -0.18408  0  3.971181  0
C  C63  1  0.86130440  0.13691382  0.02157471  1  0.001151  0  -0.09577  -0.184137  0  3.97132  0
C  C64  1  0.23131623  0.91720728  0.01170002  1  0.014152  0  -0.082741  -0.128735  0  4.003898  0
C  C65  1  0.76868121  0.08279319  0.98829819  1  0.014176  0  -0.082755  -0.128782  0  4.004003  0
C  C66  1  0.80985292  0.70390128  0.01138797  1  0.376783  0  0.08113  0.24555  0  4.037907  0
C  C67  1  0.19014386  0.29610087  0.98861115  1  0.376691  0  0.081211  0.245764  0  4.037679  0
C  C68  1  0.88752726  0.60488644  0.05007943  1  -0.01883  0  -0.09687  -0.179071  0  3.985013  0
C  C69  1  0.11247302  0.39511653  0.94991945  1  -0.018901  0  -0.096928  -0.179161  0  3.985008  0
C  C70  1  0.78526404  0.53263300  0.07982587  1  0.039592  0  -0.08967  -0.141133  0  3.973622  0
C  C71  1  0.21473910  0.46736913  0.92017395  1  0.039732  0  -0.089632  -0.141052  0  3.973609  0
C  C72  1  0.60576376  0.56063191  0.07066403  1  0.227437  0  0.091843  0.130179  0  4.002642  0
C  C73  1  0.39423809  0.43937023  0.92933686  1  0.227635  0  0.091837  0.130114  0  4.002444  0
C  C74  1  0.52849533  0.65953055  0.03172554  1  0.035764  0  -0.089767  -0.140126  0  3.989054  0
C  C75  1  0.47150460  0.34046993  0.96827661  1  0.035866  0  -0.089758  -0.139994  0  3.989087  0
C  C76  1  0.63175387  0.73106353  0.00170087  1  0.048767  0  -0.094688  -0.166682  0  3.995101  0
C  C77  1  0.36824416  0.26893862  0.99829971  1  0.048533  0  -0.094726  -0.166897  0  3.995124  0
C  C78  1  0.27252040  0.42764231  0.12852808  1  0.970086  0  0.140805  0.13575  0  4.010045  0
C  C79  1  0.72748275  0.57235982  0.87147122  1  0.969989  0  0.140828  0.135712  0  4.0099  0
C  C80  1  0.54574007  0.39000799  0.14199399  1  0.986382  0  0.163317  0.107049  0  3.840366  0
C  C81  1  0.45426500  0.60999246  0.85800587  1  0.986158  0  0.163292  0.106958  0  3.840498  0
C  C82  1  0.42650665  0.04777494  0.40970320  1  0.958329  0  0.14581  0.148274  0  3.982077  0
C  C83  1  0.57349176  0.95222302  0.59029569  1  0.958165  0  0.145821  0.148231  0  3.981939  0
C  C84  1  0.21937709  0.02911260  0.35640337  1  0.915843  0  0.155857  0.08789  0  3.87749  0
C  C85  1  0.78061874  0.97088539  0.64359767  1  0.915781  0  0.155862  0.087856  0  3.877364  0
C  C86  1  0.12194531  0.88690500  0.44212505  1  0.21394  0  0.085612  0.111618  0  4.03212  0
C  C87  1  0.87805241  0.11309465  0.55787626  1  0.213929  0  0.085629  0.111722  0  4.032009  0
C  C88  1  0.10583217  0.85256143  0.51256076  1  0.04018  0  -0.088103  -0.140269  0  3.995023  0
C  C89  1  0.89416523  0.14743906  0.48743999  1  0.040252  0  -0.088112  -0.140354  0  3.995113  0
C  C90  1  0.00102369  0.77981811  0.53777968  1  0.003782  0  -0.101761  -0.183527  0  3.964446  0
C  C91  1  0.99897435  0.22018071  0.46222169  1  0.003722  0  -0.101789  -0.183524  0  3.964405  0
C  C92  1  0.90973593  0.74386093  0.49267485  1  0.405017  0  0.086938  0.261291  0  4.03935  0
C  C93  1  0.09026500  0.25613703  0.50732594  1  0.404887  0  0.087014  0.261443  0  4.039172  0
C  C94  1  0.92526945  0.77864694  0.42235304  1  0.025379  0  -0.101194  -0.191759  0  4.005897  0
C  C95  1  0.07473437  0.22135016  0.57764666  1  0.025278  0  -0.101231  -0.191862  0  4.005848  0
C  C96  1  0.03304732  0.84950795  0.39706668  1  0.009488  0  -0.086531  -0.135869  0  3.997635  0
C  C97  1  0.96695394  0.15048917  0.60293416  1  0.009551  0  -0.086486  -0.135844  0  3.997556  0
C  C98  1  0.71739974  0.63196735  0.47883076  1  0.454687  0  0.077556  0.239136  0  4.052101  0
C  C99  1  0.28259831  0.36803146  0.52117010  1  0.45466  0  0.077544  0.239156  0  4.052061  0
C  C100  1  0.53726644  0.67771762  0.47600708  1  0.040198  0  -0.096328  -0.18005  0  3.993505  0
C  C101  1  0.46273255  0.32228203  0.52399467  1  0.040207  0  -0.096284  -0.180026  0  3.993585  0
C  C102  1  0.44400495  0.62947654  0.43878355  1  0.017949  0  -0.086975  -0.135625  0  3.978768  0
C  C103  1  0.55599309  0.37052228  0.56121833  1  0.017936  0  -0.086958  -0.135569  0  3.978767  0
C  C104  1  0.53404950  0.53746988  0.40366026  1  0.242773  0  0.095061  0.134582  0  4.000533  0
C  C105  1  0.46594694  0.46252978  0.59634111  1  0.242807  0  0.095021  0.134567  0  4.000369  0
C  C106  1  0.71620634  0.49427742  0.40429575  1  0.036281  0  -0.087612  -0.141313  0  3.97831  0
C  C107  1  0.28379140  0.50572223  0.59570455  1  0.036134  0  -0.087575  -0.141297  0  3.978283  0
C  C108  1  0.80804906  0.54128871  0.44274480  1  -0.099746  0  -0.094896  -0.173865  0  3.976175  0
C  C109  1  0.19194994  0.45871093  0.55725594  1  -0.099737  0  -0.09492  -0.173894  0  3.976119  0
C  C110  1  0.22343412  0.46037530  0.32461169  1  0.991532  0  0.144749  0.144158  0  3.996459  0
C  C111  1  0.77656361  0.53962768  0.67538680  1  0.991227  0  0.144686  0.144077  0  3.99646  0
C  C112  1  0.48868712  0.38267802  0.34553449  1  0.955958  0  0.166586  0.108163  0  3.871299  0
C  C113  1  0.51130837  0.61732414  0.65446520  1  0.955814  0  0.166642  0.108263  0  3.871265  0
N  N114  1  0.28865071  0.98095290  0.11578990  1  -0.838657  0  -0.115618  0.141417  0  3.740993  0
N  N115  1  0.71135246  0.01904921  0.88420789  1  -0.838348  0  -0.115639  0.141343  0  3.740826  0
N  N116  1  0.46879833  0.95728559  0.10573998  1  -0.690915  0  -0.222158  -0.263113  0  3.089231  0
N  N117  1  0.53120326  0.04271736  0.89425629  1  -0.690735  0  -0.222149  -0.263032  0  3.089118  0
N  N118  1  0.36186192  0.08605955  0.18121179  1  -1.208351  0  -0.349462  -0.3226  0  3.479644  0
N  N119  1  0.63814412  0.91394172  0.81878593  1  -1.207888  0  -0.349395  -0.322529  0  3.479756  0
N  N120  1  0.49954866  0.48780202  0.10138894  1  -0.858456  0  -0.109813  0.144727  0  3.726684  0
N  N121  1  0.50045511  0.51219844  0.89861251  1  -0.85816  0  -0.10976  0.144812  0  3.72651  0
N  N122  1  0.32430911  0.51268535  0.09253771  1  -0.655579  0  -0.219321  -0.261423  0  3.131592  0
N  N123  1  0.67569467  0.48731511  0.90746323  1  -0.655545  0  -0.219383  -0.261472  0  3.131451  0
N  N124  1  0.40384047  0.35018496  0.16000162  1  -1.214793  0  -0.3484  -0.32799  0  3.454351  0
N  N125  1  0.59616365  0.64981466  0.83999837  1  -1.214876  0  -0.348406  -0.327963  0  3.454543  0
N  N126  1  0.22901508  0.96088407  0.41569639  1  -0.845898  0  -0.116388  0.142184  0  3.768468  0
N  N127  1  0.77098232  0.03911642  0.58430487  1  -0.845906  0  -0.116416  0.142092  0  3.768613  0
N  N128  1  0.36053232  0.97222137  0.45053278  1  -0.683487  0  -0.213751  -0.254501  0  3.103482  0
N  N129  1  0.63946574  0.02777744  0.54946807  1  -0.683625  0  -0.213704  -0.254374  0  3.103588  0
N  N130  1  0.34409125  0.08476406  0.35092235  1  -1.20987  0  -0.349038  -0.325372  0  3.467454  0
N  N131  1  0.65590714  0.91523391  0.64907755  1  -1.209694  0  -0.349095  -0.325447  0  3.467234  0
N  N132  1  0.43774668  0.48528080  0.36821164  1  -0.843813  0  -0.112946  0.145673  0  3.730445  0
N  N133  1  0.56225040  0.51472053  0.63178906  1  -0.843933  0  -0.112977  0.145658  0  3.730381  0
N  N134  1  0.26731903  0.53579529  0.35539519  1  -0.675907  0  -0.221417  -0.260516  0  3.088571  0
N  N135  1  0.73267740  0.46420771  0.64460489  1  -0.675813  0  -0.221398  -0.260478  0  3.088584  0
N  N136  1  0.35571021  0.36481907  0.31753125  1  -1.209014  0  -0.348626  -0.318996  0  3.493865  0
N  N137  1  0.64428592  0.63518476  0.68246726  1  -1.208626  0  -0.348594  -0.319008  0  3.493935  0
N  N138  1  0.78106372  0.10415240  0.27721784  1  0.841873  0  0.100508  0.714818  0  4.439587  0
N  N139  1  0.21893721  0.89584889  0.72278064  1  0.841897  0  0.100413  0.714694  0  4.439522  0
N  N140  1  0.94263937  0.33133902  0.23659335  1  0.811662  0  0.092489  0.713522  0  4.430347  0
N  N141  1  0.05736320  0.66865475  0.76340670  1  0.811691  0  0.092391  0.713302  0  4.43085  0
O  O142  1  0.91048039  0.77478383  0.97788689  1  -1.1043  0  -0.152345  -0.21172  0  2.56479  0
O  O143  1  0.08951478  0.22521917  0.02211274  1  -1.104314  0  -0.152352  -0.211788  0  2.564702  0
O  O144  1  0.80454156  0.67457357  0.52180268  1  -1.116475  0  -0.156002  -0.222533  0  2.583103  0
O  O145  1  0.19545938  0.32542439  0.47819760  1  -1.11641  0  -0.15603  -0.22262  0  2.583124  0
O  O146  1  0.91787381  0.02795343  0.26333944  1  -0.554064  0  -0.188266  -0.451757  0  1.990628  0
O  O147  1  0.08213030  0.97204952  0.73665874  1  -0.554049  0  -0.188255  -0.451735  0  1.990642  0
O  O148  1  0.67858883  0.14644032  0.22952813  1  -0.594609  0  -0.216302  -0.474854  0  2.06164  0
O  O149  1  0.32141275  0.85355931  0.77047097  1  -0.59457  0  -0.216267  -0.474797  0  2.061631  0
O  O150  1  0.74485226  0.13932143  0.33556333  1  -0.540832  0  -0.184639  -0.437096  0  1.954542  0
O  O151  1  0.25514965  0.86067735  0.66443531  1  -0.540901  0  -0.184591  -0.437047  0  1.95442  0
O  O152  1  0.04978807  0.28509410  0.28230169  1  -0.604325  0  -0.218216  -0.482279  0  2.043472  0
O  O153  1  0.95021926  0.71490382  0.71769726  1  -0.604292  0  -0.218191  -0.482203  0  2.043549  0
O  O154  1  0.97112141  0.29676339  0.17763202  1  -0.543399  0  -0.190718  -0.452578  0  1.960649  0
O  O155  1  0.02888687  0.70323536  0.82236681  1  -0.543349  0  -0.19075  -0.452515  0  1.960823  0
O  O156  1  0.81217420  0.41037419  0.25148715  1  -0.516969  0  -0.190991  -0.445692  0  1.928617  0
O  O157  1  0.18781884  0.58961128  0.74851560  1  -0.517055  0  -0.190893  -0.445619  0  1.928812  0
