# generated using pymatgen
data_NaH10C5N11O
_symmetry_space_group_name_H-M   'P 1'
_cell_length_a   6.81739034
_cell_length_b   8.35414827
_cell_length_c   20.97245897
_cell_angle_alpha   89.99997874
_cell_angle_beta   97.42738937
_cell_angle_gamma   89.99971938
_symmetry_Int_Tables_number   1
_chemical_formula_structural   NaH10C5N11O
_chemical_formula_sum   'Na4 H40 C20 N44 O4'
_cell_volume   1184.43263056
_cell_formula_units_Z   4
loop_
 _symmetry_equiv_pos_site_id
 _symmetry_equiv_pos_as_xyz
  1  'x, y, z'
loop_
 _atom_site_type_symbol
 _atom_site_label
 _atom_site_symmetry_multiplicity
 _atom_site_fract_x
 _atom_site_fract_y
 _atom_site_fract_z
 _atom_site_occupancy
 _atom_site_hle17_bader_spin_density
 _atom_site_hle17_ddec_charge
 _atom_site_hle17_ddec_spin_density
 _atom_site_hle17_ddec_sum_bond_order
 _atom_site_hle17_magmom
 _atom_site_hse06_10hf_bader_spin_density
 _atom_site_hse06_10hf_ddec_charge
 _atom_site_hse06_10hf_ddec_spin_density
 _atom_site_hse06_10hf_ddec_sum_bond_order
 _atom_site_hse06_10hf_magmom
 _atom_site_hse06_bader_spin_density
 _atom_site_hse06_ddec_charge
 _atom_site_hse06_ddec_spin_density
 _atom_site_hse06_ddec_sum_bond_order
 _atom_site_hse06_magmom
 _atom_site_pbe_bader_spin_density
 _atom_site_pbe_cm5_charge
 _atom_site_pbe_ddec_charge
 _atom_site_pbe_ddec_spin_density
 _atom_site_pbe_ddec_sum_bond_order
 _atom_site_pbe_magmom
Na  Na0  1  0.01136735  0.12749563  0.60474492  1  0  0.813768  0  0.487939  0  0  0.715248  0  0.703228  0  0  0.729996  0  0.678709  0  0  0.711673  0.705026  0  0.719918  0
Na  Na1  1  0.98862901  0.62749306  0.89525533  1  0  0.813756  0  0.487957  0  0  0.715238  0  0.703243  0  0  0.729981  0  0.678716  0  0  0.711646  0.705006  0  0.719934  0
Na  Na2  1  0.98863240  0.87250810  0.39525565  1  0  0.813758  0  0.487965  0  0  0.715231  0  0.703256  0  0  0.729975  0  0.678729  0  0  0.711665  0.705008  0  0.71995  0
Na  Na3  1  0.01136635  0.37250469  0.10474650  1  0  0.813761  0  0.487946  0  0  0.715248  0  0.703219  0  0  0.72999  0  0.67869  0  0  0.711646  0.705018  0  0.719911  0
H  H4  1  0.54676068  0.54462377  0.81356396  1  0  0.114696  0  0.96787  0  0  0.12346  0  1.048269  0  0  0.125204  0  1.046653  0  0  0.112826  0.122248  0  1.050227  0
H  H5  1  0.45324354  0.04462331  0.68643470  1  0  0.114647  0  0.967883  0  0  0.123415  0  1.048283  0  0  0.125159  0  1.046667  0  0  0.112809  0.122202  0  1.05024  0
H  H6  1  0.45324351  0.45537877  0.18643678  1  0  0.114675  0  0.967907  0  0  0.123442  0  1.048295  0  0  0.125185  0  1.046679  0  0  0.11283  0.12223  0  1.05025  0
H  H7  1  0.54675475  0.95537803  0.31356629  1  0  0.114622  0  0.967873  0  0  0.123398  0  1.048271  0  0  0.12514  0  1.046655  0  0  0.112811  0.122185  0  1.050228  0
H  H8  1  0.49466323  0.56583852  0.72775089  1  0  0.121258  0  0.933049  0  0  0.139986  0  0.995827  0  0  0.142106  0  0.993786  0  0  0.116674  0.138466  0  0.998229  0
H  H9  1  0.50534087  0.06584017  0.77224825  1  0  0.121262  0  0.933025  0  0  0.139985  0  0.995816  0  0  0.142105  0  0.993775  0  0  0.116679  0.138465  0  0.998214  0
H  H10  1  0.50534390  0.43416282  0.27224902  1  0  0.121243  0  0.932997  0  0  0.139947  0  0.995807  0  0  0.142066  0  0.993766  0  0  0.116646  0.138429  0  0.998207  0
H  H11  1  0.49465595  0.93415877  0.22775316  1  0  0.121274  0  0.932987  0  0  0.139999  0  0.995771  0  0  0.142119  0  0.993729  0  0  0.116688  0.138482  0  0.998172  0
H  H12  1  0.67306636  0.69485788  0.77241102  1  0  0.121942  0  0.937568  0  0  0.137182  0  1.006426  0  0  0.138684  0  1.004819  0  0  0.117245  0.136143  0  1.008496  0
H  H13  1  0.32693839  0.19486148  0.72758716  1  0  0.12188  0  0.937623  0  0  0.137114  0  1.006498  0  0  0.138615  0  1.00489  0  0  0.117225  0.136074  0  1.008567  0
H  H14  1  0.32694077  0.30514346  0.22758889  1  0  0.121975  0  0.937543  0  0  0.13721  0  1.006391  0  0  0.138712  0  1.004782  0  0  0.117256  0.13617  0  1.008459  0
H  H15  1  0.67305697  0.80513627  0.27241514  1  0  0.12191  0  0.937526  0  0  0.137135  0  1.006419  0  0  0.138634  0  1.00481  0  0  0.117239  0.136095  0  1.008488  0
H  H16  1  0.21038448  0.25990976  0.46055391  1  0  0.122427  0  0.936483  0  0  0.139842  0  1.001382  0  0  0.141201  0  1.000248  0  0  0.120436  0.138865  0  1.003142  0
H  H17  1  0.78961471  0.75990114  0.03943874  1  0  0.122429  0  0.936558  0  0  0.139819  0  1.001478  0  0  0.141179  0  1.000345  0  0  0.120462  0.138843  0  1.003238  0
H  H18  1  0.78961373  0.74009158  0.53944422  1  0  0.122453  0  0.936513  0  0  0.139843  0  1.00143  0  0  0.141198  0  1.000301  0  0  0.120462  0.138866  0  1.00319  0
H  H19  1  0.21038635  0.24009302  0.96055568  1  0  0.122452  0  0.936517  0  0  0.139843  0  1.001435  0  0  0.141197  0  1.000306  0  0  0.120462  0.138866  0  1.003195  0
H  H20  1  0.26081814  0.23140769  0.37906325  1  0  0.120211  0  0.954717  0  0  0.130671  0  1.032818  0  0  0.133051  0  1.029941  0  0  0.117963  0.128962  0  1.035655  0
H  H21  1  0.73919015  0.73140398  0.12093167  1  0  0.120289  0  0.954536  0  0  0.130725  0  1.032658  0  0  0.133099  0  1.029787  0  0  0.117965  0.129021  0  1.035492  0
H  H22  1  0.73918305  0.76859125  0.62093595  1  0  0.120247  0  0.954669  0  0  0.130708  0  1.032771  0  0  0.133088  0  1.029894  0  0  0.11796  0.128999  0  1.035608  0
H  H23  1  0.26081541  0.26859377  0.87906531  1  0  0.120265  0  0.954632  0  0  0.130708  0  1.032754  0  0  0.133092  0  1.029871  0  0  0.117955  0.128999  0  1.035591  0
H  H24  1  0.34985340  0.40615661  0.42298902  1  0  0.11429  0  0.962623  0  0  0.126414  0  1.037216  0  0  0.127028  0  1.037768  0  0  0.10891  0.125901  0  1.03795  0
H  H25  1  0.65015674  0.90615329  0.07700499  1  0  0.114347  0  0.96255  0  0  0.126463  0  1.037139  0  0  0.127081  0  1.037685  0  0  0.108925  0.125951  0  1.037874  0
H  H26  1  0.65014626  0.59384473  0.57700821  1  0  0.114337  0  0.962611  0  0  0.126454  0  1.037201  0  0  0.127068  0  1.037752  0  0  0.108915  0.125942  0  1.037932  0
H  H27  1  0.34985174  0.09384685  0.92299068  1  0  0.114228  0  0.962736  0  0  0.12639  0  1.03728  0  0  0.127  0  1.037832  0  0  0.108895  0.125882  0  1.038011  0
H  H28  1  0.02105915  0.52482875  0.62126871  1  0  0.070056  0  0.953402  0  0  0.089  0  1.017833  0  0  0.088412  0  1.019718  0  0  0.093187  0.089339  0  1.016448  0
H  H29  1  0.97894088  0.02482842  0.87873456  1  0  0.070089  0  0.953383  0  0  0.089016  0  1.017822  0  0  0.088427  0  1.019708  0  0  0.093212  0.089354  0  1.016438  0
H  H30  1  0.97894957  0.47517499  0.37873555  1  0  0.070073  0  0.953319  0  0  0.08898  0  1.017788  0  0  0.088391  0  1.019674  0  0  0.093194  0.089318  0  1.016403  0
H  H31  1  0.02104998  0.97517412  0.12126518  1  0  0.070085  0  0.953358  0  0  0.088989  0  1.017835  0  0  0.088401  0  1.01972  0  0  0.09319  0.089328  0  1.01645  0
H  H32  1  0.12155397  0.59427671  0.55178035  1  0  0.066067  0  0.94477  0  0  0.084661  0  1.006213  0  0  0.085296  0  1.006618  0  0  0.087764  0.084094  0  1.006016  0
H  H33  1  0.87844119  0.09426953  0.94822272  1  0  0.066002  0  0.944855  0  0  0.084592  0  1.00631  0  0  0.085224  0  1.006717  0  0  0.087738  0.084024  0  1.006113  0
H  H34  1  0.87845031  0.40573061  0.44822373  1  0  0.065961  0  0.944821  0  0  0.084539  0  1.006307  0  0  0.085172  0  1.006714  0  0  0.087709  0.083972  0  1.006111  0
H  H35  1  0.12154819  0.90572821  0.05177697  1  0  0.065986  0  0.944841  0  0  0.084571  0  1.006304  0  0  0.085204  0  1.00671  0  0  0.08773  0.084003  0  1.006106  0
H  H36  1  0.28003414  0.56022861  0.62591513  1  0  0.060377  0  0.958613  0  0  0.070882  0  1.037275  0  0  0.072681  0  1.035058  0  0  0.084525  0.069454  0  1.038965  0
H  H37  1  0.71996267  0.06023170  0.87408658  1  0  0.060314  0  0.958649  0  0  0.070826  0  1.037316  0  0  0.072636  0  1.035087  0  0  0.084502  0.069396  0  1.039007  0
H  H38  1  0.71997158  0.43977034  0.37408759  1  0  0.060296  0  0.958703  0  0  0.070819  0  1.037349  0  0  0.072617  0  1.035134  0  0  0.084508  0.06939  0  1.03904  0
H  H39  1  0.28002670  0.93976724  0.12591263  1  0  0.060323  0  0.958693  0  0  0.070848  0  1.037336  0  0  0.072647  0  1.035119  0  0  0.08451  0.06942  0  1.039026  0
H  H40  1  0.31280554  0.33781691  0.56894908  1  0  0.330472  0  0.974736  0  0  0.294145  0  1.073641  0  0  0.30518  0  1.061114  0  0  0.282264  0.286456  0  1.082177  0
H  H41  1  0.68719099  0.83781670  0.93105114  1  0  0.330549  0  0.974696  0  0  0.294217  0  1.073607  0  0  0.305251  0  1.061081  0  0  0.282304  0.286527  0  1.082134  0
H  H42  1  0.68719572  0.66218563  0.43105251  1  0  0.330493  0  0.974683  0  0  0.294145  0  1.073642  0  0  0.305179  0  1.061117  0  0  0.282267  0.286457  0  1.08217  0
H  H43  1  0.31280429  0.16218225  0.06894782  1  0  0.330486  0  0.974701  0  0  0.294162  0  1.073604  0  0  0.305197  0  1.061078  0  0  0.282274  0.286473  0  1.082139  0
C  C44  1  0.60886832  0.57431071  0.76939997  1  0  -0.18419  0  3.609015  0  0  -0.290443  0  3.859086  0  0  -0.286676  0  3.864988  0  0  -0.122393  -0.302653  0  3.850295  0
C  C45  1  0.39113276  0.07431285  0.73059856  1  0  -0.184089  0  3.609047  0  0  -0.290352  0  3.859134  0  0  -0.286584  0  3.865037  0  0  -0.122372  -0.302541  0  3.85035  0
C  C46  1  0.39113438  0.42568943  0.23060024  1  0  -0.184215  0  3.609014  0  0  -0.29044  0  3.859068  0  0  -0.286674  0  3.86497  0  0  -0.122397  -0.302625  0  3.850292  0
C  C47  1  0.60886701  0.92568968  0.26940248  1  0  -0.184123  0  3.609013  0  0  -0.290374  0  3.859131  0  0  -0.286603  0  3.865033  0  0  -0.122399  -0.302571  0  3.850349  0
C  C48  1  0.61014399  0.19833235  0.50798253  1  0  0.385078  0  3.842936  0  0  0.332236  0  4.139352  0  0  0.350502  0  4.153279  0  0  0.333269  0.310709  0  4.129896  0
C  C49  1  0.38984744  0.69833685  0.99201561  1  0  0.38505  0  3.843002  0  0  0.332221  0  4.1394  0  0  0.350488  0  4.15333  0  0  0.333283  0.310686  0  4.129949  0
C  C50  1  0.38985278  0.80166899  0.49201697  1  0  0.385071  0  3.842905  0  0  0.332159  0  4.139421  0  0  0.350426  0  4.15335  0  0  0.333236  0.310632  0  4.129963  0
C  C51  1  0.61014636  0.30166449  0.00798330  1  0  0.385118  0  3.842881  0  0  0.332297  0  4.139278  0  0  0.350563  0  4.153205  0  0  0.333246  0.310764  0  4.129822  0
C  C52  1  0.78198278  0.36793867  0.70756692  1  0  0.370928  0  3.843086  0  0  0.331918  0  4.125984  0  0  0.348711  0  4.140376  0  0  0.334844  0.311317  0  4.116328  0
C  C53  1  0.21801645  0.86794165  0.79243054  1  0  0.370998  0  3.843002  0  0  0.331746  0  4.126172  0  0  0.348537  0  4.140564  0  0  0.33475  0.311165  0  4.11651  0
C  C54  1  0.21801695  0.63206027  0.29243269  1  0  0.370786  0  3.843127  0  0  0.331816  0  4.125981  0  0  0.348607  0  4.140374  0  0  0.334809  0.311243  0  4.11632  0
C  C55  1  0.78198322  0.13205251  0.20756669  1  0  0.370831  0  3.84308  0  0  0.331601  0  4.126238  0  0  0.348392  0  4.140631  0  0  0.334722  0.31102  0  4.116575  0
C  C56  1  0.31795736  0.27811968  0.42665891  1  0  -0.184936  0  3.606644  0  0  -0.290459  0  3.858503  0  0  -0.286492  0  3.86477  0  0  -0.121955  -0.302719  0  3.849479  0
C  C57  1  0.68204620  0.77811384  0.07333533  1  0  -0.185125  0  3.606585  0  0  -0.290593  0  3.858467  0  0  -0.286635  0  3.864753  0  0  -0.12203  -0.302867  0  3.849442  0
C  C58  1  0.68204234  0.72188046  0.57333975  1  0  -0.185056  0  3.606676  0  0  -0.290566  0  3.85857  0  0  -0.286594  0  3.864831  0  0  -0.12199  -0.302826  0  3.849546  0
C  C59  1  0.31795491  0.22188151  0.92666052  1  0  -0.185014  0  3.60672  0  0  -0.290542  0  3.858605  0  0  -0.286574  0  3.864881  0  0  -0.121992  -0.302812  0  3.849577  0
C  C60  1  0.14884341  0.51670200  0.59457844  1  0  -0.007672  0  3.689929  0  0  -0.092553  0  3.951429  0  0  -0.086816  0  3.956069  0  0  -0.157803  -0.096209  0  3.948087  0
C  C61  1  0.85115368  0.01670096  0.90542376  1  0  -0.007557  0  3.690043  0  0  -0.09243  0  3.951562  0  0  -0.086702  0  3.956193  0  0  -0.157796  -0.09609  0  3.948227  0
C  C62  1  0.85116233  0.48329933  0.40542522  1  0  -0.007433  0  3.689926  0  0  -0.092293  0  3.951418  0  0  -0.086554  0  3.956059  0  0  -0.157724  -0.095952  0  3.94808  0
C  C63  1  0.14883717  0.98329679  0.09457551  1  0  -0.007544  0  3.69  0  0  -0.092422  0  3.951536  0  0  -0.086682  0  3.956174  0  0  -0.157772  -0.096082  0  3.948198  0
N  N64  1  0.49963145  0.19379952  0.44930510  1  0  0.006567  0  3.518394  0  0  0.099189  0  3.746507  0  0  0.084745  0  3.771863  0  0  -0.120717  0.137724  0  3.693164  0
N  N65  1  0.50037126  0.69379802  0.05069341  1  0  0.006648  0  3.518351  0  0  0.099274  0  3.746427  0  0  0.084831  0  3.771782  0  0  -0.120723  0.137822  0  3.693079  0
N  N66  1  0.50036978  0.80620182  0.55069552  1  0  0.006624  0  3.518353  0  0  0.099267  0  3.746472  0  0  0.084823  0  3.771829  0  0  -0.120696  0.137802  0  3.693125  0
N  N67  1  0.49962992  0.30619973  0.94930530  1  0  0.006641  0  3.518381  0  0  0.099264  0  3.746474  0  0  0.08482  0  3.771828  0  0  -0.120674  0.137809  0  3.693129  0
N  N68  1  0.68940459  0.28407757  0.60813749  1  0  0.008558  0  3.16319  0  0  0.029472  0  3.46164  0  0  0.045395  0  3.464638  0  0  -0.096819  0.020038  0  3.458272  0
N  N69  1  0.31059373  0.78408248  0.89186186  1  0  0.008608  0  3.163326  0  0  0.029517  0  3.46175  0  0  0.045443  0  3.464743  0  0  -0.096758  0.020085  0  3.458381  0
N  N70  1  0.31059662  0.71592377  0.39186219  1  0  0.008604  0  3.163144  0  0  0.029524  0  3.461574  0  0  0.045449  0  3.46457  0  0  -0.096836  0.020089  0  3.458208  0
N  N71  1  0.68940155  0.21591527  0.10813710  1  0  0.008687  0  3.163105  0  0  0.029596  0  3.461519  0  0  0.04552  0  3.464513  0  0  -0.096717  0.020164  0  3.45815  0
N  N72  1  0.64050718  0.37169759  0.65484901  1  0  -0.327737  0  3.008978  0  0  -0.308191  0  3.305526  0  0  -0.323074  0  3.314411  0  0  -0.205983  -0.2984  0  3.302013  0
N  N73  1  0.35949803  0.87170235  0.84515202  1  0  -0.327834  0  3.008857  0  0  -0.308207  0  3.305461  0  0  -0.323088  0  3.314345  0  0  -0.206021  -0.29842  0  3.301943  0
N  N74  1  0.35949553  0.62830494  0.34515167  1  0  -0.327672  0  3.008933  0  0  -0.308141  0  3.305465  0  0  -0.323023  0  3.314352  0  0  -0.205918  -0.298351  0  3.301944  0
N  N75  1  0.64049725  0.12829300  0.15484694  1  0  -0.327818  0  3.008847  0  0  -0.308178  0  3.305429  0  0  -0.323059  0  3.314314  0  0  -0.206018  -0.29839  0  3.301911  0
N  N76  1  0.76192656  0.45888991  0.76001971  1  0  0.022016  0  3.507428  0  0  0.113879  0  3.72657  0  0  0.100014  0  3.751843  0  0  -0.121001  0.152154  0  3.673161  0
N  N77  1  0.23807956  0.95889525  0.73998040  1  0  0.021985  0  3.507379  0  0  0.113954  0  3.726531  0  0  0.100093  0  3.751799  0  0  -0.120942  0.152174  0  3.6732  0
N  N78  1  0.23807911  0.54110903  0.23998110  1  0  0.02209  0  3.507263  0  0  0.113943  0  3.726378  0  0  0.100079  0  3.751648  0  0  -0.120971  0.152138  0  3.673066  0
N  N79  1  0.76191725  0.04110369  0.26002053  1  0  0.022104  0  3.507268  0  0  0.114033  0  3.726448  0  0  0.10017  0  3.751716  0  0  -0.120905  0.15226  0  3.6731  0
N  N80  1  0.55649875  0.28964037  0.55693921  1  0  -0.344671  0  3.068334  0  0  -0.307142  0  3.357996  0  0  -0.326258  0  3.368067  0  0  -0.207545  -0.294556  0  3.353574  0
N  N81  1  0.44349512  0.78964230  0.94306092  1  0  -0.344716  0  3.068461  0  0  -0.307175  0  3.358113  0  0  -0.326297  0  3.368191  0  0  -0.207596  -0.294582  0  3.353675  0
N  N82  1  0.44350101  0.71036097  0.44306184  1  0  -0.344751  0  3.068254  0  0  -0.307178  0  3.357933  0  0  -0.326297  0  3.368008  0  0  -0.207565  -0.294591  0  3.353508  0
N  N83  1  0.55649722  0.21035425  0.05693841  1  0  -0.344786  0  3.068347  0  0  -0.307271  0  3.35802  0  0  -0.326388  0  3.368092  0  0  -0.207609  -0.294681  0  3.353594  0
N  N84  1  0.95196422  0.28510643  0.71982682  1  0  -0.374029  0  2.949415  0  0  -0.356264  0  3.2466  0  0  -0.369961  0  3.258293  0  0  -0.239451  -0.347779  0  3.242411  0
N  N85  1  0.04804004  0.78511488  0.78017419  1  0  -0.374034  0  2.949511  0  0  -0.356197  0  3.246765  0  0  -0.369891  0  3.258455  0  0  -0.239439  -0.347712  0  3.242567  0
N  N86  1  0.04803700  0.71489252  0.28017333  1  0  -0.373911  0  2.949486  0  0  -0.356151  0  3.246643  0  0  -0.369846  0  3.258335  0  0  -0.239427  -0.347665  0  3.242444  0
N  N87  1  0.95195673  0.21488407  0.21982531  1  0  -0.373955  0  2.949515  0  0  -0.356119  0  3.246751  0  0  -0.369812  0  3.258441  0  0  -0.239451  -0.347632  0  3.242553  0
N  N88  1  0.58993298  0.09642618  0.41075351  1  0  -0.112263  0  2.900177  0  0  -0.116933  0  3.187864  0  0  -0.11654  0  3.199334  0  0  -0.078945  -0.126437  0  3.174774  0
N  N89  1  0.41007330  0.59642260  0.08924516  1  0  -0.112299  0  2.900269  0  0  -0.116974  0  3.187952  0  0  -0.116579  0  3.199419  0  0  -0.078919  -0.126486  0  3.174863  0
N  N90  1  0.41006972  0.90357875  0.58924669  1  0  -0.11225  0  2.900157  0  0  -0.116901  0  3.187825  0  0  -0.116507  0  3.199295  0  0  -0.078942  -0.126405  0  3.174732  0
N  N91  1  0.58993086  0.40357634  0.91075463  1  0  -0.112271  0  2.90018  0  0  -0.116943  0  3.187869  0  0  -0.116549  0  3.199339  0  0  -0.078933  -0.126453  0  3.174779  0
N  N92  1  0.03140847  0.32752906  0.77987093  1  0  -0.045077  0  2.997102  0  0  -0.039197  0  3.305642  0  0  -0.036184  0  3.31496  0  0  -0.080005  -0.040988  0  3.302375  0
N  N93  1  0.96859258  0.82753512  0.72012994  1  0  -0.045101  0  2.99706  0  0  -0.039224  0  3.305589  0  0  -0.036212  0  3.314908  0  0  -0.079981  -0.041015  0  3.302318  0
N  N94  1  0.96859129  0.67246749  0.22012963  1  0  -0.045194  0  2.997216  0  0  -0.039327  0  3.305776  0  0  -0.036314  0  3.315091  0  0  -0.080029  -0.041118  0  3.302502  0
N  N95  1  0.03140567  0.17246502  0.27986961  1  0  -0.045128  0  2.997054  0  0  -0.039256  0  3.305583  0  0  -0.036245  0  3.314901  0  0  -0.079983  -0.041046  0  3.302314  0
N  N96  1  0.74916735  0.04307271  0.44536212  1  0  -0.102194  0  3.076404  0  0  -0.0872  0  3.397436  0  0  -0.085357  0  3.406127  0  0  -0.140676  -0.088446  0  3.394732  0
N  N97  1  0.25083488  0.54307219  0.05463831  1  0  -0.102146  0  3.076433  0  0  -0.087152  0  3.397469  0  0  -0.085309  0  3.406158  0  0  -0.140657  -0.088396  0  3.394763  0
N  N98  1  0.25083239  0.95693102  0.55463797  1  0  -0.10223  0  3.076419  0  0  -0.087251  0  3.397463  0  0  -0.08541  0  3.406157  0  0  -0.14069  -0.088497  0  3.394758  0
N  N99  1  0.74916634  0.45692675  0.94536184  1  0  -0.102179  0  3.076428  0  0  -0.087188  0  3.397475  0  0  -0.085345  0  3.406165  0  0  -0.140679  -0.088433  0  3.394768  0
N  N100  1  0.91988097  0.43168752  0.80467030  1  0  -0.180075  0  2.957845  0  0  -0.173564  0  3.252614  0  0  -0.174509  0  3.262549  0  0  -0.142432  -0.182523  0  3.24061  0
N  N101  1  0.08012087  0.93169233  0.69532916  1  0  -0.179995  0  2.957655  0  0  -0.173483  0  3.252368  0  0  -0.174433  0  3.26231  0  0  -0.142405  -0.182426  0  3.24038  0
N  N102  1  0.08012026  0.56831142  0.19533033  1  0  -0.180015  0  2.95769  0  0  -0.173503  0  3.252453  0  0  -0.174449  0  3.262389  0  0  -0.142423  -0.182434  0  3.240464  0
N  N103  1  0.91987591  0.06831020  0.30467081  1  0  -0.180053  0  2.957687  0  0  -0.17353  0  3.252425  0  0  -0.174477  0  3.262364  0  0  -0.142444  -0.182477  0  3.240438  0
N  N104  1  0.76758064  0.10225043  0.50586165  1  0  -0.3937  0  2.977565  0  0  -0.368209  0  3.280801  0  0  -0.382059  0  3.290831  0  0  -0.283625  -0.359813  0  3.27805  0
N  N105  1  0.23241293  0.60225316  0.99413897  1  0  -0.393692  0  2.97749  0  0  -0.368209  0  3.280724  0  0  -0.382056  0  3.290751  0  0  -0.283619  -0.359807  0  3.277967  0
N  N106  1  0.23241615  0.89775210  0.49413880  1  0  -0.393709  0  2.977561  0  0  -0.368196  0  3.280821  0  0  -0.382043  0  3.290847  0  0  -0.283606  -0.359797  0  3.278067  0
N  N107  1  0.76758534  0.39774579  0.00586106  1  0  -0.393738  0  2.977466  0  0  -0.368259  0  3.280706  0  0  -0.382106  0  3.290731  0  0  -0.283611  -0.359859  0  3.27795  0
O  O108  1  0.17264198  0.35357702  0.57708656  1  0  -0.592168  0  2.162186  0  0  -0.528015  0  2.421208  0  0  -0.544263  0  2.407114  0  0  -0.502219  -0.516353  0  2.430306  0
O  O109  1  0.82735446  0.85357506  0.92291365  1  0  -0.592261  0  2.16225  0  0  -0.52811  0  2.421277  0  0  -0.544354  0  2.407181  0  0  -0.502242  -0.516441  0  2.430379  0
O  O110  1  0.82736076  0.64642791  0.42291508  1  0  -0.592241  0  2.162151  0  0  -0.528085  0  2.421182  0  0  -0.544327  0  2.40708  0  0  -0.50223  -0.51642  0  2.430284  0
O  O111  1  0.17264083  0.14642508  0.07708579  1  0  -0.592181  0  2.16218  0  0  -0.528029  0  2.421191  0  0  -0.544272  0  2.407089  0  0  -0.502202  -0.516368  0  2.430292  0
