# generated using pymatgen
data_ZnH15C27(NO2)3
_symmetry_space_group_name_H-M   'P 1'
_cell_length_a   10.08227820
_cell_length_b   13.65038399
_cell_length_c   20.26668074
_cell_angle_alpha   89.99994534
_cell_angle_beta   99.00394710
_cell_angle_gamma   89.99993189
_symmetry_Int_Tables_number   1
_chemical_formula_structural   ZnH15C27(NO2)3
_chemical_formula_sum   'Zn4 H60 C108 N12 O24'
_cell_volume   2754.87157805
_cell_formula_units_Z   4
loop_
 _symmetry_equiv_pos_site_id
 _symmetry_equiv_pos_as_xyz
  1  'x, y, z'
loop_
 _atom_site_type_symbol
 _atom_site_label
 _atom_site_symmetry_multiplicity
 _atom_site_fract_x
 _atom_site_fract_y
 _atom_site_fract_z
 _atom_site_occupancy
 _atom_site_pbe_bader_charge
 _atom_site_pbe_bader_spin_density
 _atom_site_pbe_cm5_charge
 _atom_site_pbe_ddec_charge
 _atom_site_pbe_ddec_spin_density
 _atom_site_pbe_ddec_sum_bond_order
 _atom_site_pbe_magmom
Zn  Zn0  1  0.63826576  0.78832137  0.68368408  1  1.326664  0  0.688269  0.820402  0  2.348058  0
Zn  Zn1  1  0.36173468  0.78832140  0.81632147  1  1.32655  0  0.688277  0.820404  0  2.348095  0
Zn  Zn2  1  0.36173710  0.21167864  0.31631686  1  1.326684  0  0.688261  0.820365  0  2.348136  0
Zn  Zn3  1  0.63826519  0.21168008  0.18368025  1  1.326544  0  0.688292  0.820411  0  2.348105  0
H  H4  1  0.10166376  0.78886665  0.68970928  1  0.111079  0  0.109418  0.127983  0  1.025852  0
H  H5  1  0.89833158  0.78886401  0.81029245  1  0.111165  0  0.109476  0.128095  0  1.025759  0
H  H6  1  0.89833609  0.21113337  0.31029145  1  0.111104  0  0.109433  0.128015  0  1.025816  0
H  H7  1  0.10166527  0.21113527  0.18970856  1  0.111138  0  0.109472  0.128105  0  1.025735  0
H  H8  1  0.86777781  0.79154110  0.49346873  1  0.099477  0  0.109451  0.12  0  0.989112  0
H  H9  1  0.13221952  0.79153738  0.00653308  1  0.099947  0  0.109459  0.120019  0  0.989089  0
H  H10  1  0.13222500  0.20845599  0.50653024  1  0.099448  0  0.109429  0.119991  0  0.989112  0
H  H11  1  0.86777932  0.20846044  0.99346757  1  0.099469  0  0.109463  0.120052  0  0.989109  0
H  H12  1  0.30079080  0.79204242  0.51622445  1  0.099225  0  0.10539  0.11395  0  1.0095  0
H  H13  1  0.69920557  0.79203971  0.98377883  1  0.099495  0  0.105383  0.113928  0  1.009599  0
H  H14  1  0.69921207  0.20795540  0.48377700  1  0.099259  0  0.105392  0.113981  0  1.009469  0
H  H15  1  0.30079228  0.20795811  0.01622225  1  0.09927  0  0.105383  0.113925  0  1.009567  0
H  H16  1  0.69807505  0.96424380  0.77596581  1  0.097851  0  0.121779  0.102034  0  0.99557  0
H  H17  1  0.30191903  0.96423889  0.72403867  1  0.097896  0  0.121786  0.102024  0  0.995618  0
H  H18  1  0.30191875  0.03576060  0.22403350  1  0.097692  0  0.121852  0.102103  0  0.995477  0
H  H19  1  0.69807587  0.03575893  0.27596516  1  0.097814  0  0.121781  0.102025  0  0.995583  0
H  H20  1  0.68741751  0.14581775  0.77084205  1  0.082181  0  0.10597  0.111906  0  1.002852  0
H  H21  1  0.31258395  0.14581428  0.72915757  1  0.082378  0  0.105987  0.111911  0  1.002876  0
H  H22  1  0.31258123  0.85418592  0.22915465  1  0.082306  0  0.105983  0.111894  0  1.002845  0
H  H23  1  0.68741290  0.85418500  0.27084394  1  0.082328  0  0.105991  0.111906  0  1.00286  0
H  H24  1  0.56004903  0.28010792  0.60522531  1  0.067176  0  0.109968  0.111375  0  0.989951  0
H  H25  1  0.43995312  0.28010997  0.89477131  1  0.067272  0  0.109973  0.111397  0  0.989857  0
H  H26  1  0.43994964  0.71989209  0.39476842  1  0.06736  0  0.109982  0.111415  0  0.989856  0
H  H27  1  0.56004368  0.71989371  0.10522772  1  0.067419  0  0.109988  0.11141  0  0.989886  0
H  H28  1  0.53071657  0.11820923  0.56002549  1  0.095548  0  0.114207  0.124918  0  0.987773  0
H  H29  1  0.46928895  0.11821484  0.93997395  1  0.095555  0  0.114165  0.124887  0  0.987858  0
H  H30  1  0.46928417  0.88178786  0.43997087  1  0.095621  0  0.114168  0.124883  0  0.987767  0
H  H31  1  0.53070991  0.88178810  0.06002769  1  0.095638  0  0.114178  0.124881  0  0.987844  0
H  H32  1  0.55099006  0.93572687  0.57532676  1  0.122194  0  0.123748  0.099781  0  0.984174  0
H  H33  1  0.44901209  0.93573179  0.92467783  1  0.121991  0  0.123782  0.099802  0  0.984162  0
H  H34  1  0.44900677  0.06427168  0.42467376  1  0.122226  0  0.123757  0.099809  0  0.984127  0
H  H35  1  0.55098881  0.06427262  0.07532495  1  0.122167  0  0.123771  0.099798  0  0.984144  0
H  H36  1  0.54958546  0.43812474  0.59279578  1  0.084802  0  0.113195  0.120421  0  0.987244  0
H  H37  1  0.45041044  0.43812089  0.90720325  1  0.084811  0  0.113187  0.120396  0  0.987273  0
H  H38  1  0.45040528  0.56187821  0.40720183  1  0.08482  0  0.113167  0.12036  0  0.987373  0
H  H39  1  0.54958638  0.56188059  0.09279677  1  0.084767  0  0.113181  0.120428  0  0.987223  0
H  H40  1  0.72877743  0.63142311  0.79139012  1  0.117495  0  0.12252  0.095725  0  1.002462  0
H  H41  1  0.27122122  0.63142776  0.70861244  1  0.117467  0  0.122525  0.095723  0  1.002446  0
H  H42  1  0.27122038  0.36857251  0.20860948  1  0.117416  0  0.122517  0.095646  0  1.002488  0
H  H43  1  0.72877955  0.36857445  0.29138490  1  0.117585  0  0.122543  0.095763  0  1.002488  0
H  H44  1  0.72783264  0.44910662  0.80145428  1  0.090211  0  0.110933  0.119029  0  0.988224  0
H  H45  1  0.27216727  0.44911129  0.69854503  1  0.092645  0  0.110929  0.119018  0  0.988248  0
H  H46  1  0.27216510  0.55088900  0.19854235  1  0.092579  0  0.11091  0.119003  0  0.98819  0
H  H47  1  0.72783053  0.55088946  0.30145407  1  0.092627  0  0.110932  0.119036  0  0.988237  0
H  H48  1  0.55451266  0.62090274  0.59302808  1  0.134663  0  0.124664  0.104939  0  0.981614  0
H  H49  1  0.44548401  0.62089890  0.90697484  1  0.134645  0  0.124657  0.104915  0  0.981559  0
H  H50  1  0.44547716  0.37910093  0.40697292  1  0.13471  0  0.124676  0.104946  0  0.981574  0
H  H51  1  0.55451279  0.37910331  0.09302419  1  0.134626  0  0.124683  0.10497  0  0.981565  0
H  H52  1  0.68051230  0.29432568  0.75443535  1  0.052572  0  0.10265  0.097785  0  1.010057  0
H  H53  1  0.31948781  0.29432731  0.74556062  1  0.052565  0  0.102609  0.097729  0  1.010078  0
H  H54  1  0.31948739  0.70567214  0.24555895  1  0.052533  0  0.10257  0.097669  0  1.010146  0
H  H55  1  0.68050699  0.70567344  0.25443876  1  0.052594  0  0.102618  0.097698  0  1.01013  0
H  H56  1  0.03090067  0.54829936  0.31304199  1  0.159412  0  0.117888  0.126916  0  0.975734  0
H  H57  1  0.96910127  0.54829610  0.18696623  1  0.159045  0  0.117941  0.127013  0  0.975699  0
H  H58  1  0.96910319  0.45169992  0.68695903  1  0.159264  0  0.117897  0.126949  0  0.975706  0
H  H59  1  0.03090158  0.45170318  0.81303472  1  0.159083  0  0.117915  0.126966  0  0.975615  0
H  H60  1  0.02995811  0.04288793  0.31193459  1  0.169601  0  0.116777  0.128381  0  1.013202  0
H  H61  1  0.97004055  0.04288614  0.18806584  1  0.169661  0  0.116771  0.128376  0  1.013246  0
H  H62  1  0.97005176  0.95710988  0.68806637  1  0.169922  0  0.11674  0.12836  0  1.013213  0
H  H63  1  0.02995633  0.95711387  0.81193666  1  0.17  0  0.116775  0.128408  0  1.013197  0
C  C64  1  0.60766428  0.14894964  0.66419684  1  0.013589  0  0.002412  0.136711  0  4.046965  0
C  C65  1  0.39233917  0.14895108  0.83580194  1  0.013699  0  0.002484  0.136825  0  4.046945  0
C  C66  1  0.39233444  0.85105037  0.33579888  1  0.013561  0  0.002411  0.136732  0  4.046953  0
C  C67  1  0.60765968  0.85105113  0.16419921  1  0.01361  0  0.002437  0.136692  0  4.046989  0
C  C68  1  0.09681798  0.78961831  0.63555102  1  -0.068405  0  -0.074231  -0.113627  0  3.903568  0
C  C69  1  0.90317838  0.78961560  0.86445177  1  -0.068591  0  -0.074271  -0.113786  0  3.903604  0
C  C70  1  0.90318287  0.21038097  0.36444978  1  -0.068419  0  -0.074267  -0.11371  0  3.903639  0
C  C71  1  0.09681845  0.21038149  0.13554875  1  -0.068648  0  -0.074307  -0.11389  0  3.903542  0
C  C72  1  0.63774533  0.42688977  0.69797570  1  -0.026176  0  0.005946  0.139895  0  4.044799  0
C  C73  1  0.36225460  0.42688982  0.80202314  1  -0.026209  0  0.005931  0.13987  0  4.04485  0
C  C74  1  0.36225341  0.57311097  0.30202100  1  -0.026208  0  0.005998  0.140012  0  4.04469  0
C  C75  1  0.63774423  0.57311166  0.19797703  1  -0.02613  0  0.005953  0.139902  0  4.044695  0
C  C76  1  0.97186165  0.78917108  0.59430541  1  0.043368  0  -0.010737  -0.002107  0  3.961914  0
C  C77  1  0.02813570  0.78916688  0.90569695  1  0.043537  0  -0.010735  -0.002092  0  3.96216  0
C  C78  1  0.02813917  0.21082893  0.40569440  1  0.043331  0  -0.010726  -0.00207  0  3.961922  0
C  C79  1  0.97186114  0.21083167  0.09430406  1  0.043342  0  -0.010661  -0.001876  0  3.961871  0
C  C80  1  0.08367185  0.79309158  0.49751957  1  0.324649  0  0.086437  0.188302  0  4.040286  0
C  C81  1  0.91632550  0.79308571  0.00248324  1  0.324823  0  0.086382  0.188152  0  4.040672  0
C  C82  1  0.91633202  0.20690330  0.50248195  1  0.324646  0  0.086496  0.188312  0  4.040478  0
C  C83  1  0.08367334  0.20691211  0.99751742  1  0.324839  0  0.086364  0.188162  0  4.040584  0
C  C84  1  0.96574683  0.79123701  0.52500637  1  -0.01801  0  -0.065025  -0.130035  0  3.889127  0
C  C85  1  0.03425250  0.79123124  0.97499514  1  -0.018543  0  -0.064971  -0.129981  0  3.889306  0
C  C86  1  0.03425599  0.20876007  0.47499309  1  -0.018035  0  -0.065044  -0.130094  0  3.889186  0
C  C87  1  0.96574635  0.20876584  0.02500601  1  -0.018062  0  -0.06504  -0.13015  0  3.889222  0
C  C88  1  0.20836961  0.79196625  0.53774388  1  -0.04131  0  -0.075383  -0.149352  0  3.929696  0
C  C89  1  0.79162976  0.79196056  0.96225912  1  -0.041854  0  -0.075402  -0.149344  0  3.929928  0
C  C90  1  0.79163324  0.20803229  0.46225657  1  -0.041275  0  -0.075389  -0.149384  0  3.929642  0
C  C91  1  0.20836909  0.20803725  0.03774203  1  -0.041577  0  -0.075386  -0.149285  0  3.929872  0
C  C92  1  0.01592461  0.79525800  0.28548684  1  0.039427  0  -0.00237  0.020354  0  4.018302  0
C  C93  1  0.98407679  0.79525689  0.21451774  1  0.021462  0  -0.002399  0.020348  0  4.018123  0
C  C94  1  0.98408123  0.20473908  0.71451334  1  0.039234  0  -0.002334  0.020382  0  4.018045  0
C  C95  1  0.01592408  0.20474092  0.78548405  1  0.021521  0  -0.00238  0.020304  0  4.018076  0
C  C96  1  0.21502115  0.79056478  0.60726809  1  0.023651  0  -0.023058  -0.037777  0  4.00108  0
C  C97  1  0.78497622  0.79055992  0.89273526  1  0.023979  0  -0.023062  -0.037621  0  4.000934  0
C  C98  1  0.78498169  0.20943377  0.39273236  1  0.023659  0  -0.023043  -0.037724  0  4.001043  0
C  C99  1  0.21502061  0.20943789  0.10726525  1  0.023964  0  -0.023071  -0.037728  0  4.001001  0
C  C100  1  0.03263361  0.70453305  0.31982392  1  0.00363  0  -0.009236  -0.069218  0  4.004047  0
C  C101  1  0.96737096  0.70453127  0.18018045  1  -0.055031  0  -0.009212  -0.06915  0  4.004129  0
C  C102  1  0.96737522  0.29546696  0.68017499  1  0.003662  0  -0.009238  -0.069167  0  4.004156  0
C  C103  1  0.03262890  0.29546874  0.81982127  1  -0.055302  0  -0.00923  -0.069158  0  4.004172  0
C  C104  1  0.34934864  0.79038374  0.65104035  1  1.563138  0  0.208255  0.574258  0  4.226907  0
C  C105  1  0.65064576  0.79038053  0.84896427  1  1.562996  0  0.20816  0.573933  0  4.226944  0
C  C106  1  0.65065225  0.20961774  0.34896194  1  1.563086  0  0.208323  0.574292  0  4.226791  0
C  C107  1  0.34935108  0.20961875  0.15103674  1  1.563228  0  0.208253  0.574219  0  4.226807  0
C  C108  1  0.03153993  0.88582246  0.32011768  1  -0.062374  0  -0.007801  -0.07214  0  3.993159  0
C  C109  1  0.96846327  0.88582068  0.17988548  1  -0.061955  0  -0.007767  -0.072111  0  3.993343  0
C  C110  1  0.96846995  0.11417389  0.67988377  1  -0.061753  0  -0.007908  -0.072138  0  3.993379  0
C  C111  1  0.03153558  0.11417787  0.82011567  1  -0.062015  0  -0.007793  -0.072042  0  3.993454  0
C  C112  1  0.84352168  0.78751769  0.62289331  1  1.547956  0  0.189921  0.552231  0  4.23173  0
C  C113  1  0.15647674  0.78751634  0.87711159  1  1.547769  0  0.189764  0.55211  0  4.231774  0
C  C114  1  0.15647918  0.21248379  0.37710798  1  1.547953  0  0.189946  0.552249  0  4.231683  0
C  C115  1  0.84352110  0.21248294  0.12288899  1  1.547999  0  0.189818  0.552117  0  4.231782  0
C  C116  1  0.66179736  0.00226432  0.72938490  1  0.529146  0  0.050217  0.1  0  3.94264  0
C  C117  1  0.33820145  0.00226224  0.77061857  1  0.529185  0  0.050179  0.099975  0  3.942697  0
C  C118  1  0.33820344  0.99773862  0.27061392  1  0.529386  0  0.050188  0.099945  0  3.942577  0
C  C119  1  0.66179645  0.99773704  0.22938498  1  0.529163  0  0.050237  0.100066  0  3.942594  0
C  C120  1  0.65509979  0.10340141  0.72568238  1  -0.055677  0  -0.085668  -0.181536  0  3.960086  0
C  C121  1  0.34490377  0.10339858  0.77431791  1  -0.056124  0  -0.085661  -0.181458  0  3.960015  0
C  C122  1  0.34490098  0.89660227  0.27431546  1  -0.055767  0  -0.085627  -0.181451  0  3.959931  0
C  C123  1  0.65509610  0.89659997  0.22568380  1  -0.056231  0  -0.085664  -0.181477  0  3.959961  0
C  C124  1  0.01667917  0.61661907  0.28493230  1  -0.002494  0  -0.069327  -0.081989  0  3.958358  0
C  C125  1  0.98332259  0.61661943  0.21507341  1  -0.078638  0  -0.06934  -0.082075  0  3.958495  0
C  C126  1  0.98332366  0.38337728  0.71506766  1  -0.002256  0  -0.0693  -0.08201  0  3.958332  0
C  C127  1  0.01668027  0.38337912  0.78492754  1  -0.078344  0  -0.069273  -0.081927  0  3.958205  0
C  C128  1  0.59968709  0.25487268  0.65567241  1  -0.086006  0  -0.080177  -0.123914  0  3.957267  0
C  C129  1  0.40031712  0.25487337  0.84432438  1  -0.085958  0  -0.080207  -0.124012  0  3.957255  0
C  C130  1  0.40031560  0.74512733  0.34432161  1  -0.085965  0  -0.080195  -0.123948  0  3.957104  0
C  C131  1  0.59967869  0.74513031  0.15567508  1  -0.086131  0  -0.080252  -0.124043  0  3.957309  0
C  C132  1  0.56860526  0.08718953  0.60897533  1  -0.028054  0  -0.080002  -0.180146  0  3.920031  0
C  C133  1  0.43139734  0.08719525  0.89102540  1  -0.028214  0  -0.080016  -0.180191  0  3.92009  0
C  C134  1  0.43139347  0.91280828  0.39102088  1  -0.02804  0  -0.079953  -0.180091  0  3.920068  0
C  C135  1  0.56860052  0.91280989  0.10897617  1  -0.028096  0  -0.07998  -0.18009  0  3.92004  0
C  C136  1  0.01585623  0.97357313  0.28502936  1  0.031498  0  -0.058556  -0.059743  0  3.893078  0
C  C137  1  0.98414179  0.97357056  0.21497288  1  -0.052293  0  -0.058544  -0.059697  0  3.89322  0
C  C138  1  0.98415067  0.02642541  0.71497287  1  -0.052782  0  -0.058381  -0.059545  0  3.893007  0
C  C139  1  0.01585710  0.02642726  0.78502975  1  0.031051  0  -0.058559  -0.059836  0  3.893207  0
C  C140  1  0.57879639  0.98613933  0.61690285  1  0.458679  0  0.059314  0.113203  0  3.922457  0
C  C141  1  0.42120566  0.98614433  0.88310121  1  0.458728  0  0.059337  0.113261  0  3.922245  0
C  C142  1  0.42120141  0.01385849  0.38309626  1  0.458739  0  0.059266  0.113105  0  3.922518  0
C  C143  1  0.57879427  0.01386008  0.11690298  1  0.458716  0  0.05925  0.113157  0  3.92253  0
C  C144  1  0.58926461  0.47726644  0.63848791  1  0.025753  0  -0.07726  -0.167831  0  3.92102  0
C  C145  1  0.41073225  0.47726490  0.86151215  1  0.025722  0  -0.077216  -0.167779  0  3.920917  0
C  C146  1  0.41072818  0.52273357  0.36151132  1  0.025825  0  -0.077249  -0.16782  0  3.920914  0
C  C147  1  0.58926657  0.52273805  0.13848752  1  0.025769  0  -0.077195  -0.167786  0  3.920879  0
C  C148  1  0.68867377  0.58540906  0.74902785  1  0.519152  0  0.055401  0.108106  0  3.929269  0
C  C149  1  0.31132294  0.58541216  0.75097410  1  0.519299  0  0.055318  0.108013  0  3.929394  0
C  C150  1  0.31132304  0.41458802  0.25097167  1  0.519227  0  0.055396  0.10821  0  3.929248  0
C  C151  1  0.68867583  0.41458932  0.24902359  1  0.519281  0  0.055261  0.107918  0  3.929482  0
C  C152  1  0.06613497  0.70264219  0.39360044  1  1.324543  0  0.23894  0.433788  0  4.118359  0
C  C153  1  0.93387063  0.70264055  0.10640499  1  1.324507  0  0.23889  0.433659  0  4.118143  0
C  C154  1  0.93387697  0.29734903  0.60640313  1  1.324047  0  0.238827  0.433509  0  4.117733  0
C  C155  1  0.06613018  0.29735507  0.89359433  1  1.32448  0  0.23884  0.433597  0  4.118124  0
C  C156  1  0.68831245  0.48401484  0.75405190  1  -0.045394  0  -0.081847  -0.181125  0  3.948042  0
C  C157  1  0.31168639  0.48401868  0.74594781  1  -0.047569  0  -0.081826  -0.181119  0  3.948052  0
C  C158  1  0.31168431  0.51598224  0.24594565  1  -0.04755  0  -0.08181  -0.181153  0  3.948003  0
C  C159  1  0.68831141  0.51598280  0.25405130  1  -0.047786  0  -0.081841  -0.181136  0  3.948021  0
C  C160  1  0.06481928  0.88693445  0.39399813  1  1.317665  0  0.242186  0.436391  0  4.098478  0
C  C161  1  0.93519000  0.88692694  0.10600745  1  1.318043  0  0.242145  0.436336  0  4.098115  0
C  C162  1  0.93520674  0.11307143  0.60600745  1  1.317565  0  0.242101  0.436219  0  4.097718  0
C  C163  1  0.06480481  0.11307380  0.89399243  1  1.317832  0  0.242135  0.436333  0  4.098077  0
C  C164  1  0.59188514  0.57886358  0.63780017  1  0.417539  0  0.055194  0.101318  0  3.932487  0
C  C165  1  0.40810855  0.57886131  0.86220108  1  0.41755  0  0.055179  0.101344  0  3.932402  0
C  C166  1  0.40810466  0.42113790  0.36219984  1  0.417528  0  0.055115  0.101243  0  3.93245  0
C  C167  1  0.59188724  0.42114017  0.13779788  1  0.417479  0  0.05508  0.101163  0  3.932419  0
C  C168  1  0.63984621  0.32084733  0.70446099  1  0.013541  0  -0.080586  -0.11676  0  3.984338  0
C  C169  1  0.36015487  0.32084885  0.79553603  1  0.013243  0  -0.080563  -0.116704  0  3.984363  0
C  C170  1  0.36015349  0.67915122  0.29553381  1  0.013319  0  -0.080518  -0.116689  0  3.984285  0
C  C171  1  0.63984295  0.67915482  0.20446407  1  0.013189  0  -0.080519  -0.116601  0  3.98424  0
N  N172  1  0.64024126  0.63243637  0.69214997  1  -1.238209  0  -0.312691  -0.213271  0  3.508313  0
N  N173  1  0.35975738  0.63243642  0.80785258  1  -1.238241  0  -0.312637  -0.213182  0  3.50848  0
N  N174  1  0.35975456  0.36756291  0.30785047  1  -1.238309  0  -0.312647  -0.213198  0  3.508306  0
N  N175  1  0.64024140  0.36756433  0.19214560  1  -1.23823  0  -0.312578  -0.213082  0  3.508433  0
N  N176  1  0.07253400  0.79430845  0.42565364  1  -1.189584  0  -0.233391  -0.229742  0  3.598781  0
N  N177  1  0.92746433  0.79430393  0.07434825  1  -1.190241  0  -0.233385  -0.229671  0  3.598905  0
N  N178  1  0.92747181  0.20569156  0.57434505  1  -1.190178  0  -0.23342  -0.229554  0  3.59921  0
N  N179  1  0.07253353  0.20569535  0.92565333  1  -1.19026  0  -0.233366  -0.229636  0  3.599153  0
N  N180  1  0.62397459  0.94416609  0.67611635  1  -1.2172  0  -0.311912  -0.207864  0  3.498054  0
N  N181  1  0.37602455  0.94416682  0.82388901  1  -1.21718  0  -0.311927  -0.207955  0  3.497856  0
N  N182  1  0.37602221  0.05583539  0.32388318  1  -1.21743  0  -0.311977  -0.207914  0  3.498235  0
N  N183  1  0.62397539  0.05583466  0.17611568  1  -1.217203  0  -0.311915  -0.207926  0  3.498149  0
O  O184  1  0.85071706  0.79551521  0.68652484  1  -1.149441  0  -0.329727  -0.557892  0  2.228803  0
O  O185  1  0.14928633  0.79551250  0.81347894  1  -1.14922  0  -0.329639  -0.557809  0  2.228693  0
O  O186  1  0.14928780  0.20448626  0.31347625  1  -1.149364  0  -0.3297  -0.557846  0  2.228728  0
O  O187  1  0.85071151  0.20448751  0.18652164  1  -1.149266  0  -0.329639  -0.55778  0  2.228696  0
O  O188  1  0.73228965  0.77888284  0.58418325  1  -1.190605  0  -0.343088  -0.574234  0  2.128447  0
O  O189  1  0.26770476  0.77888354  0.91582137  1  -1.190542  0  -0.343021  -0.574186  0  2.128543  0
O  O190  1  0.26771119  0.22112010  0.41581755  1  -1.190669  0  -0.343098  -0.574232  0  2.128458  0
O  O191  1  0.73229306  0.22111647  0.08417872  1  -1.190594  0  -0.343072  -0.574243  0  2.128525  0
O  O192  1  0.45255448  0.77844119  0.62252691  1  -1.17094  0  -0.317966  -0.55774  0  2.347682  0
O  O193  1  0.54744097  0.77844023  0.87747877  1  -1.171147  0  -0.317873  -0.557533  0  2.3477  0
O  O194  1  0.54744639  0.22155955  0.37747488  1  -1.170966  0  -0.317958  -0.557685  0  2.347721  0
O  O195  1  0.45255590  0.22156051  0.12252322  1  -1.171041  0  -0.317903  -0.557629  0  2.347736  0
O  O196  1  0.08382760  0.96240995  0.42697000  1  -1.098881  0  -0.258858  -0.409194  0  2.098264  0
O  O197  1  0.91618841  0.96241130  0.07302960  1  -1.098675  0  -0.258845  -0.409213  0  2.097747  0
O  O198  1  0.91621023  0.03757835  0.57302656  1  -1.098404  0  -0.258795  -0.409203  0  2.097194  0
O  O199  1  0.08380645  0.03758725  0.92697225  1  -1.098474  0  -0.258753  -0.409148  0  2.097564  0
O  O200  1  0.35323741  0.80314670  0.71319425  1  -1.200509  0  -0.323304  -0.581174  0  2.448758  0
O  O201  1  0.64675696  0.80314432  0.78680987  1  -1.200535  0  -0.323352  -0.581117  0  2.448715  0
O  O202  1  0.64676245  0.19685624  0.28680698  1  -1.200406  0  -0.323377  -0.581248  0  2.448664  0
O  O203  1  0.35323989  0.19685569  0.21319114  1  -1.200826  0  -0.323379  -0.581235  0  2.4487  0
O  O204  1  0.08569689  0.62624431  0.42579210  1  -1.099334  0  -0.278832  -0.431691  0  2.062325  0
O  O205  1  0.91431178  0.62623614  0.07421015  1  -1.099329  0  -0.278823  -0.431673  0  2.062012  0
O  O206  1  0.91431475  0.37377182  0.57419912  1  -1.098961  0  -0.278844  -0.43172  0  2.060922  0
O  O207  1  0.08569714  0.37376900  0.92579271  1  -1.099305  0  -0.278843  -0.431719  0  2.061544  0
