# generated using pymatgen
data_ZnH14C13NO4
_symmetry_space_group_name_H-M   'P 1'
_cell_length_a   9.72164306
_cell_length_b   11.08012117
_cell_length_c   11.02112762
_cell_angle_alpha   87.83289856
_cell_angle_beta   92.90615510
_cell_angle_gamma   110.74683969
_symmetry_Int_Tables_number   1
_chemical_formula_structural   ZnH14C13NO4
_chemical_formula_sum   'Zn2 H28 C26 N2 O8'
_cell_volume   1108.50242159
_cell_formula_units_Z   2
loop_
 _symmetry_equiv_pos_site_id
 _symmetry_equiv_pos_as_xyz
  1  'x, y, z'
loop_
 _atom_site_type_symbol
 _atom_site_label
 _atom_site_symmetry_multiplicity
 _atom_site_fract_x
 _atom_site_fract_y
 _atom_site_fract_z
 _atom_site_occupancy
 _atom_site_pbe_bader_charge
 _atom_site_pbe_bader_spin_density
 _atom_site_pbe_cm5_charge
 _atom_site_pbe_ddec_charge
 _atom_site_pbe_ddec_spin_density
 _atom_site_pbe_ddec_sum_bond_order
 _atom_site_pbe_magmom
Zn  Zn0  1  0.65336336  0.51826226  0.50275868  1  1.293524  0  0.671731  0.831755  0  2.393498  0
Zn  Zn1  1  0.34780698  0.48012963  0.48820488  1  1.290773  0  0.669974  0.826545  0  2.409957  0
H  H2  1  0.38494943  0.85738780  0.50040021  1  0.09194  0  0.099486  0.101022  0  1.032571  0
H  H3  1  0.83459981  0.92486877  0.46324306  1  0.06515  0  0.093702  0.09515  0  0.991725  0
H  H4  1  0.77733686  0.05605984  0.42110620  1  0.009872  0  0.088095  0.076778  0  0.994786  0
H  H5  1  0.27912186  0.98065942  0.70534497  1  0.028161  0  0.082826  0.108212  0  1.013218  0
H  H6  1  0.22370216  0.11694752  0.68379909  1  0.035649  0  0.088852  0.123922  0  1.001508  0
H  H7  1  0.09077073  0.95876997  0.67028965  1  0.046056  0  0.084482  0.110279  0  1.025511  0
H  H8  1  0.15737828  0.06129994  0.46459100  1  0.047907  0  0.094688  0.095361  0  0.985426  0
H  H9  1  0.21081614  0.92435471  0.48453719  1  0.019427  0  0.08982  0.082816  0  0.991536  0
H  H10  1  0.07287196  0.58213861  0.83975350  1  0.021062  0  0.088359  0.114241  0  1.007203  0
H  H11  1  0.16723227  0.73559633  0.77129036  1  0.029951  0  0.089289  0.114097  0  1.014189  0
H  H12  1  0.02247914  0.71665211  0.86993151  1  0.045667  0  0.096575  0.129645  0  0.98522  0
H  H13  1  0.61089538  0.13826295  0.46898339  1  0.083779  0  0.099457  0.099394  0  1.032775  0
H  H14  1  0.93080218  0.72422059  0.65370609  1  0.078755  0  0.10816  0.121414  0  0.966364  0
H  H15  1  0.83505752  0.57846420  0.72635306  1  0.129487  0  0.106268  0.124237  0  1.013126  0
H  H16  1  0.92371076  0.43717066  0.15934531  1  0.034259  0  0.085772  0.108131  0  1.032555  0
H  H17  1  0.11200130  0.53577240  0.17771194  1  0.060684  0  0.091594  0.121746  0  1.001915  0
H  H18  1  0.06163035  0.38851180  0.09854600  1  0.042961  0  0.09516  0.128681  0  0.988532  0
H  H19  1  0.15875204  0.35580059  0.30437353  1  0.113105  0  0.105811  0.125281  0  1.004143  0
H  H20  1  0.96773558  0.26487129  0.29366704  1  0.052859  0  0.103548  0.10668  0  0.963017  0
H  H21  1  0.31044702  0.55118924  0.87296964  1  0.094554  0  0.099245  0.098113  0  1.030216  0
H  H22  1  0.70051022  0.44929023  0.11798215  1  0.065873  0  0.097231  0.093837  0  1.0356  0
H  H23  1  0.20171576  0.58739756  0.64376657  1  0.15737  0  0.128414  0.115109  0  1.014505  0
H  H24  1  0.79622371  0.40329055  0.35300018  1  0.122667  0  0.131615  0.117344  0  0.992941  0
H  H25  1  0.32864609  0.57271745  0.09962446  1  0.101296  0  0.102322  0.103241  0  1.025031  0
H  H26  1  0.68275305  0.42764404  0.89126826  1  0.077775  0  0.103962  0.108039  0  0.99927  0
H  H27  1  0.76570820  0.10103195  0.64273160  1  0.017064  0  0.083845  0.112507  0  1.012468  0
H  H28  1  0.82533987  0.97074982  0.68465096  1  0.029988  0  0.085611  0.113653  0  1.004499  0
H  H29  1  0.94520428  0.10836674  0.60658026  1  0.049074  0  0.086922  0.119118  0  1.008344  0
C  C30  1  0.52050121  0.51880689  0.25789061  1  1.559906  0  0.214496  0.592639  0  4.172342  0
C  C31  1  0.61017661  0.89130463  0.49620526  1  -0.062358  0  -0.010412  -0.017445  0  3.845613  0
C  C32  1  0.50307908  0.06419283  0.48257417  1  -0.107162  0  -0.0878  -0.103728  0  4.009812  0
C  C33  1  0.49343169  0.93231535  0.49315849  1  -0.02205  0  -0.088291  -0.103667  0  4.005268  0
C  C34  1  0.40505392  0.54039201  0.05305704  1  -0.038218  0  -0.087274  -0.101845  0  3.989194  0
C  C35  1  0.60592607  0.45982010  0.93772921  1  -0.064127  0  -0.086558  -0.099317  0  3.986314  0
C  C36  1  0.39514020  0.52856937  0.92751484  1  -0.050549  0  -0.08735  -0.100678  0  3.99243  0
C  C37  1  0.61559378  0.47163112  0.06343335  1  -0.002702  0  -0.088033  -0.101297  0  3.993614  0
C  C38  1  0.49528520  0.48794777  0.86887845  1  -0.059778  0  -0.015859  -0.025996  0  3.967514  0
C  C39  1  0.51473959  0.51129921  0.12212962  1  -0.016257  0  -0.013076  -0.01813  0  3.957367  0
C  C40  1  0.76812289  0.98033168  0.49121833  1  -0.001278  0  -0.164664  -0.127758  0  3.993627  0
C  C41  1  0.48616617  0.47873235  0.73327178  1  1.588471  0  0.215875  0.593056  0  4.172812  0
C  C42  1  0.82992176  0.04406551  0.61340262  1  -0.086144  0  -0.243335  -0.354353  0  3.952621  0
C  C43  1  0.23346947  0.02286570  0.51571563  1  0.003232  0  -0.16354  -0.127463  0  3.993714  0
C  C44  1  0.20487982  0.01936052  0.65199069  1  -0.090565  0  -0.243238  -0.353581  0  3.948934  0
C  C45  1  0.94463851  0.63610981  0.69354303  1  -0.051398  0  -0.15783  -0.197869  0  3.970149  0
C  C46  1  0.05893394  0.66937926  0.79881334  1  -0.069473  0  -0.239568  -0.349703  0  3.976343  0
C  C47  1  0.04949671  0.36370171  0.29505627  1  -0.033143  0  -0.153927  -0.188947  0  3.952647  0
C  C48  1  0.03540523  0.43536257  0.17558646  1  -0.096793  0  -0.235373  -0.342925  0  3.939133  0
C  C49  1  0.42241932  0.24974925  0.48121862  1  1.526001  0  0.209892  0.578678  0  4.168961  0
C  C50  1  0.57732258  0.74885713  0.50735406  1  1.560675  0  0.209396  0.578387  0  4.172702  0
C  C51  1  0.10966050  0.54825805  0.57887176  1  0.45846  0  0.060808  0.010101  0  3.844757  0
C  C52  1  0.88888142  0.44512083  0.41698347  1  0.497018  0  0.069699  0.02219  0  3.844946  0
C  C53  1  0.97477857  0.56377994  0.59197168  1  0.518192  0  0.138416  0.226319  0  3.896754  0
C  C54  1  0.02495714  0.43129599  0.40276464  1  0.572676  0  0.141653  0.228892  0  3.901963  0
C  C55  1  0.38871437  0.10706595  0.48994682  1  0.033466  0  -0.009707  -0.017212  0  3.856178  0
N  N56  1  0.86495302  0.51026856  0.50826996  1  -1.210202  0  -0.295127  -0.200275  0  3.46577  0
N  N57  1  0.13430672  0.48414148  0.48587378  1  -1.232786  0  -0.294033  -0.200981  0  3.460869  0
O  O58  1  0.64379877  0.53714592  0.31364287  1  -1.172199  0  -0.318559  -0.551261  0  2.314582  0
O  O59  1  0.36544919  0.47194737  0.67854791  1  -1.171353  0  -0.315803  -0.550192  0  2.32702  0
O  O60  1  0.39933531  0.50450770  0.30668110  1  -1.171072  0  -0.314787  -0.551562  0  2.340144  0
O  O61  1  0.60197578  0.47988650  0.68273257  1  -1.175037  0  -0.316669  -0.556443  0  2.357945  0
O  O62  1  0.55636415  0.32313755  0.47210026  1  -1.177299  0  -0.323492  -0.568424  0  2.386043  0
O  O63  1  0.44230130  0.67554676  0.50592834  1  -1.179865  0  -0.324342  -0.565721  0  2.395372  0
O  O64  1  0.31324189  0.28852160  0.48465588  1  -1.157441  0  -0.316362  -0.538701  0  2.322109  0
O  O65  1  0.68664764  0.70967440  0.51648653  1  -1.155536  0  -0.318044  -0.541141  0  2.310628  0
