# generated using pymatgen
data_ZnH56C48(NO2)2
_symmetry_space_group_name_H-M   'P 1'
_cell_length_a   8.26359871
_cell_length_b   11.74443183
_cell_length_c   26.04766112
_cell_angle_alpha   89.99978880
_cell_angle_beta   93.54416189
_cell_angle_gamma   89.99948089
_symmetry_Int_Tables_number   1
_chemical_formula_structural   ZnH56C48(NO2)2
_chemical_formula_sum   'Zn2 H112 C96 N4 O8'
_cell_volume   2523.12378240
_cell_formula_units_Z   2
loop_
 _symmetry_equiv_pos_site_id
 _symmetry_equiv_pos_as_xyz
  1  'x, y, z'
loop_
 _atom_site_type_symbol
 _atom_site_label
 _atom_site_symmetry_multiplicity
 _atom_site_fract_x
 _atom_site_fract_y
 _atom_site_fract_z
 _atom_site_occupancy
 _atom_site_pbe_bader_charge
 _atom_site_pbe_bader_spin_density
 _atom_site_pbe_cm5_charge
 _atom_site_pbe_ddec_charge
 _atom_site_pbe_ddec_spin_density
 _atom_site_pbe_ddec_sum_bond_order
 _atom_site_pbe_magmom
Zn  Zn0  1  0.00000874  0.50000248  0.50000203  1  1.307938  0  0.661884  0.744183  0  2.4351  0
Zn  Zn1  1  0.50001795  0.99999566  0.00000256  1  1.307854  0  0.661923  0.74419  0  2.43514  0
H  H2  1  0.98547769  0.49921552  0.73783121  1  0.034057  0  0.095641  0.093396  0  1.056885  0
H  H3  1  0.51444545  0.99924931  0.76216813  1  0.034032  0  0.095551  0.093307  0  1.057078  0
H  H4  1  0.01448030  0.50075725  0.26217011  1  0.034157  0  0.095575  0.093293  0  1.057002  0
H  H5  1  0.48550768  0.00077540  0.23783307  1  0.034149  0  0.09559  0.093372  0  1.056822  0
H  H6  1  0.30396800  0.33374893  0.63607492  1  0.057106  0  0.099323  0.118531  0  1.024414  0
H  H7  1  0.19600904  0.83375294  0.86393532  1  0.056812  0  0.099338  0.118537  0  1.024419  0
H  H8  1  0.69602385  0.66625704  0.36392913  1  0.05685  0  0.099336  0.118507  0  1.024364  0
H  H9  1  0.80398751  0.16625388  0.13607230  1  0.056832  0  0.099326  0.118483  0  1.02438  0
H  H10  1  0.90689697  0.76498386  0.66627316  1  0.018233  0  0.077814  0.105036  0  1.041651  0
H  H11  1  0.59307223  0.26499854  0.83372652  1  0.017898  0  0.077786  0.10496  0  1.041651  0
H  H12  1  0.09306567  0.23501190  0.33373288  1  0.018538  0  0.077774  0.104976  0  1.041742  0
H  H13  1  0.40695122  0.73502362  0.16627637  1  0.018  0  0.077786  0.10499  0  1.041736  0
H  H14  1  0.69313903  0.77818455  0.65471238  1  -0.003472  0  0.080671  0.112483  0  1.012709  0
H  H15  1  0.80682633  0.27818907  0.84529031  1  -0.003237  0  0.080701  0.112453  0  1.01253  0
H  H16  1  0.30682118  0.22180014  0.34529359  1  -0.003327  0  0.08071  0.11245  0  1.01254  0
H  H17  1  0.19319458  0.72180839  0.15471520  1  -0.003264  0  0.080689  0.11244  0  1.012606  0
H  H18  1  0.81296808  0.72499614  0.60551697  1  0.083908  0  0.08364  0.122349  0  1.047219  0
H  H19  1  0.68699167  0.22499260  0.89448120  1  0.084231  0  0.083666  0.122373  0  1.047082  0
H  H20  1  0.18699832  0.27500558  0.39448609  1  0.084113  0  0.083753  0.122442  0  1.047141  0
H  H21  1  0.31301605  0.77500656  0.10552054  1  0.084169  0  0.083687  0.122362  0  1.047106  0
H  H22  1  0.63168305  0.55709124  0.59630326  1  0.044638  0  0.084532  0.120558  0  1.054649  0
H  H23  1  0.86828869  0.05709922  0.90368965  1  0.044404  0  0.084526  0.120486  0  1.054684  0
H  H24  1  0.36830540  0.44289175  0.40369533  1  0.044693  0  0.084536  0.120522  0  1.054752  0
H  H25  1  0.13170729  0.94288972  0.09630298  1  0.044542  0  0.084501  0.120503  0  1.054742  0
H  H26  1  0.51287253  0.59905982  0.64751381  1  0.022511  0  0.08369  0.119003  0  1.00717  0
H  H27  1  0.98709426  0.09906403  0.85247643  1  0.01533  0  0.083715  0.119041  0  1.007113  0
H  H28  1  0.48710871  0.40091550  0.35248307  1  0.022875  0  0.083693  0.119028  0  1.007143  0
H  H29  1  0.01289330  0.90092832  0.14751446  1  0.022975  0  0.083691  0.119004  0  1.007097  0
H  H30  1  0.60542993  0.46232477  0.64842938  1  -0.006146  0  0.080409  0.109571  0  1.027019  0
H  H31  1  0.89452764  0.96232721  0.85156375  1  -0.005998  0  0.080342  0.109515  0  1.026841  0
H  H32  1  0.39455852  0.53765907  0.35156883  1  -0.00583  0  0.08042  0.109605  0  1.02673  0
H  H33  1  0.10544430  0.03766940  0.14842369  1  -0.006016  0  0.080376  0.109586  0  1.026805  0
H  H34  1  0.71450117  0.52327078  0.73959277  1  -0.010881  0  0.084433  0.116469  0  1.009196  0
H  H35  1  0.78545249  0.02328082  0.76040114  1  -0.010625  0  0.084419  0.116508  0  1.009313  0
H  H36  1  0.28548847  0.47670794  0.26040623  1  -0.010433  0  0.084461  0.116528  0  1.009191  0
H  H37  1  0.21451433  0.97673197  0.23959233  1  -0.010858  0  0.08437  0.116368  0  1.009308  0
H  H38  1  0.63156171  0.66122866  0.72872786  1  0.025226  0  0.084753  0.116142  0  1.044488  0
H  H39  1  0.86839961  0.16123752  0.77126937  1  0.024378  0  0.084781  0.116204  0  1.044564  0
H  H40  1  0.36841687  0.33874155  0.27127433  1  0.023967  0  0.084741  0.116088  0  1.044487  0
H  H41  1  0.13157553  0.83877016  0.22872814  1  0.024871  0  0.084761  0.116106  0  1.044448  0
H  H42  1  0.83945958  0.64628662  0.74803309  1  0.009314  0  0.083339  0.116105  0  1.032173  0
H  H43  1  0.66050076  0.14630583  0.75196061  1  0.008965  0  0.083487  0.116274  0  1.032105  0
H  H44  1  0.16051418  0.35369466  0.25196822  1  0.009183  0  0.08345  0.11621  0  1.032206  0
H  H45  1  0.33947687  0.85371121  0.24803542  1  0.009085  0  0.083429  0.116162  0  1.032202  0
H  H46  1  0.21132867  0.25894950  0.80559095  1  0.007644  0  0.08724  0.121236  0  1.001533  0
H  H47  1  0.28860835  0.75892828  0.69442729  1  0.007562  0  0.087305  0.121313  0  1.001303  0
H  H48  1  0.78862287  0.74106243  0.19441904  1  0.007459  0  0.087328  0.12128  0  1.001376  0
H  H49  1  0.71139906  0.24107344  0.30558173  1  0.00728  0  0.087335  0.12133  0  1.001213  0
H  H50  1  0.10041236  0.22081207  0.74738218  1  0.019301  0  0.085996  0.116985  0  1.029374  0
H  H51  1  0.39951610  0.72080234  0.75264188  1  0.019442  0  0.086048  0.116947  0  1.029354  0
H  H52  1  0.89953785  0.77919390  0.25263047  1  0.019706  0  0.086049  0.116949  0  1.029418  0
H  H53  1  0.60047661  0.27920875  0.24737025  1  0.019572  0  0.086007  0.116929  0  1.029457  0
H  H54  1  0.03798350  0.33947313  0.78356958  1  0.028219  0  0.083762  0.111972  0  1.024968  0
H  H55  1  0.46196660  0.83945458  0.71644541  1  0.028508  0  0.083663  0.111804  0  1.024553  0
H  H56  1  0.96198272  0.66054136  0.21643769  1  0.028226  0  0.083703  0.111792  0  1.024721  0
H  H57  1  0.53803104  0.16055480  0.28356492  1  0.028333  0  0.083716  0.111809  0  1.024739  0
H  H58  1  0.21286790  0.52369826  0.78570866  1  -0.00491  0  0.083179  0.112342  0  1.0285  0
H  H59  1  0.28706846  0.02369359  0.71429575  1  -0.004647  0  0.08316  0.112308  0  1.028543  0
H  H60  1  0.78712763  0.47630431  0.21429433  1  -0.004842  0  0.083189  0.112398  0  1.028509  0
H  H61  1  0.71289067  0.97631324  0.28570713  1  -0.004606  0  0.083146  0.112311  0  1.028684  0
H  H62  1  0.39550096  0.52557621  0.75314440  1  0.01566  0  0.086987  0.120674  0  1.026062  0
H  H63  1  0.10444742  0.02558082  0.74686261  1  0.01522  0  0.086952  0.120583  0  1.025983  0
H  H64  1  0.60449223  0.47440592  0.24685661  1  0.015377  0  0.087032  0.120708  0  1.025948  0
H  H65  1  0.89552253  0.97441749  0.25314283  1  0.015472  0  0.087021  0.120744  0  1.026026  0
H  H66  1  0.38100967  0.44017576  0.80920805  1  0.008798  0  0.084988  0.117204  0  1.005977  0
H  H67  1  0.11892316  0.94017506  0.69080186  1  0.008608  0  0.08491  0.117105  0  1.006042  0
H  H68  1  0.61897379  0.55981403  0.19079349  1  0.008905  0  0.08496  0.117169  0  1.006022  0
H  H69  1  0.88104306  0.05982665  0.30920542  1  0.008791  0  0.084945  0.117261  0  1.00592  0
H  H70  1  0.48856767  0.35050462  0.70593007  1  0.020727  0  0.085769  0.116581  0  1.025876  0
H  H71  1  0.01137142  0.85053060  0.79408584  1  0.020464  0  0.085874  0.116826  0  1.025492  0
H  H72  1  0.51140080  0.64946389  0.29408148  1  0.020576  0  0.085777  0.116651  0  1.025625  0
H  H73  1  0.98861069  0.14946686  0.20591874  1  0.020503  0  0.085832  0.116767  0  1.025498  0
H  H74  1  0.36749738  0.22474609  0.70339310  1  0.049306  0  0.084581  0.113103  0  1.018906  0
H  H75  1  0.13242188  0.72476227  0.79661885  1  0.049258  0  0.08461  0.113219  0  1.018994  0
H  H76  1  0.63244106  0.77523775  0.29661120  1  0.049639  0  0.084635  0.113239  0  1.018908  0
H  H77  1  0.86756510  0.27524030  0.20338547  1  0.049541  0  0.084605  0.113215  0  1.018944  0
H  H78  1  0.46623353  0.26878935  0.76237383  1  0.019218  0  0.085251  0.115858  0  1.043849  0
H  H79  1  0.03368901  0.76881948  0.73764142  1  0.01959  0  0.085267  0.116112  0  1.043456  0
H  H80  1  0.53370112  0.73117661  0.23763384  1  0.02088  0  0.085242  0.11602  0  1.043561  0
H  H81  1  0.96630032  0.23118394  0.26236487  1  0.019377  0  0.085279  0.116073  0  1.043563  0
H  H82  1  0.33644077  0.52539461  0.46985236  1  0.10848  0  0.113123  0.080075  0  1.050884  0
H  H83  1  0.16356790  0.02539712  0.03014678  1  0.108422  0  0.113133  0.080054  0  1.050945  0
H  H84  1  0.66355614  0.47461562  0.53014681  1  0.108246  0  0.113147  0.080128  0  1.050965  0
H  H85  1  0.83646791  0.97460970  0.96985102  1  0.108358  0  0.113163  0.080149  0  1.050984  0
H  H86  1  0.57938828  0.64925453  0.47791331  1  0.119213  0  0.108654  0.122095  0  1.024549  0
H  H87  1  0.92063320  0.14926156  0.02208062  1  0.119738  0  0.108713  0.121993  0  1.024604  0
H  H88  1  0.42061219  0.35075144  0.52208787  1  0.119224  0  0.108623  0.122049  0  1.024478  0
H  H89  1  0.07942206  0.85074952  0.97791650  1  0.119162  0  0.108598  0.122046  0  1.02442  0
H  H90  1  0.30073385  0.87871042  0.56849235  1  0.047413  0  0.1039  0.110046  0  1.004537  0
H  H91  1  0.19930548  0.37870045  0.93150340  1  0.047416  0  0.104002  0.110155  0  1.004368  0
H  H92  1  0.69926914  0.12130152  0.43150659  1  0.0476  0  0.103899  0.11005  0  1.004535  0
H  H93  1  0.80074660  0.62128424  0.06848289  1  0.048056  0  0.103903  0.110025  0  1.004591  0
H  H94  1  0.06994932  0.74162466  0.55668689  1  0.112891  0  0.115043  0.086152  0  1.004089  0
H  H95  1  0.43009523  0.24161287  0.94331622  1  0.112489  0  0.115054  0.086209  0  1.004083  0
H  H96  1  0.93006190  0.25838046  0.44331801  1  0.112099  0  0.115034  0.086159  0  1.004187  0
H  H97  1  0.56996032  0.75837011  0.05667400  1  0.112518  0  0.115035  0.086107  0  1.004268  0
H  H98  1  0.58112045  0.93020517  0.55327422  1  0.069834  0  0.100217  0.09654  0  1.009314  0
H  H99  1  0.91890928  0.43020104  0.94670978  1  0.069049  0  0.100272  0.096654  0  1.009059  0
H  H100  1  0.41889237  0.06980336  0.44672188  1  0.070048  0  0.100264  0.096647  0  1.00917  0
H  H101  1  0.08114534  0.56979471  0.05327388  1  0.069952  0  0.1002  0.096576  0  1.009179  0
H  H102  1  0.73585746  0.77874159  0.47250611  1  0.09944  0  0.103763  0.107724  0  1.032507  0
H  H103  1  0.76419750  0.27874744  0.02748444  1  0.099117  0  0.103793  0.107731  0  1.032495  0
H  H104  1  0.26415417  0.22126609  0.52748958  1  0.099121  0  0.103832  0.107795  0  1.032421  0
H  H105  1  0.23587144  0.72126194  0.97250494  1  0.099279  0  0.103774  0.107732  0  1.032423  0
H  H106  1  0.81333958  0.01611353  0.57111955  1  0.04985  0  0.103559  0.10506  0  0.993904  0
H  H107  1  0.68666086  0.51608233  0.92885971  1  0.072038  0  0.103513  0.104892  0  0.99396  0
H  H108  1  0.18667314  0.98389755  0.42887885  1  0.049763  0  0.103516  0.104926  0  0.993918  0
H  H109  1  0.31342985  0.48392620  0.07113135  1  0.049087  0  0.103436  0.104861  0  0.993988  0
H  H110  1  0.04664837  0.14723143  0.56776170  1  0.067696  0  0.105423  0.110661  0  0.993712  0
H  H111  1  0.45335496  0.64720855  0.93222322  1  0.067986  0  0.105403  0.110605  0  0.993758  0
H  H112  1  0.95336441  0.85277965  0.43223517  1  0.067973  0  0.105461  0.110663  0  0.993733  0
H  H113  1  0.54673566  0.35280083  0.06776976  1  0.067852  0  0.10537  0.110571  0  0.993704  0
C  C114  1  0.10760021  0.42886450  0.59955244  1  0.711486  0  0.088541  0.25988  0  4.104271  0
C  C115  1  0.39238639  0.92886965  0.90045028  1  0.71132  0  0.088491  0.260037  0  4.103717  0
C  C116  1  0.89239793  0.57113466  0.40044639  1  0.711046  0  0.08852  0.260041  0  4.104008  0
C  C117  1  0.60760913  0.07113548  0.09955309  1  0.711632  0  0.088532  0.260098  0  4.104  0
C  C118  1  0.97039742  0.50782944  0.60709046  1  0.705599  0  0.099263  0.210226  0  4.00152  0
C  C119  1  0.52958884  0.00782666  0.89290916  1  0.705603  0  0.099247  0.210211  0  4.001576  0
C  C120  1  0.02958976  0.49217483  0.39290925  1  0.70539  0  0.099117  0.21011  0  4.001863  0
C  C121  1  0.47041528  0.99217505  0.10709172  1  0.705519  0  0.099212  0.210291  0  4.001656  0
C  C122  1  0.92333214  0.52972944  0.65843209  1  -0.037408  0  -0.022006  -0.048728  0  3.875862  0
C  C123  1  0.57663097  0.02973977  0.84156705  1  -0.037224  0  -0.02204  -0.049131  0  3.875669  0
C  C124  1  0.07663667  0.47026632  0.34157140  1  -0.037122  0  -0.021945  -0.049027  0  3.875938  0
C  C125  1  0.42335743  0.97028068  0.15843269  1  -0.037613  0  -0.022006  -0.049096  0  3.875957  0
C  C126  1  0.01822805  0.48270588  0.69866988  1  -0.046742  0  -0.098834  -0.181917  0  3.966992  0
C  C127  1  0.48169771  0.98272612  0.80133040  1  -0.046763  0  -0.098761  -0.181837  0  3.966752  0
C  C128  1  0.98172763  0.51727881  0.30132869  1  -0.046974  0  -0.098663  -0.181637  0  3.966857  0
C  C129  1  0.51826146  0.01729008  0.19867171  1  -0.046909  0  -0.098711  -0.181679  0  3.966682  0
C  C130  1  0.15826612  0.41344183  0.69238368  1  -0.031193  0  -0.006651  0.086466  0  3.908152  0
C  C131  1  0.34168023  0.91345303  0.80762532  1  -0.03039  0  -0.006593  0.086336  0  3.908128  0
C  C132  1  0.84170858  0.58654541  0.30762380  1  -0.030041  0  -0.006845  0.086091  0  3.908519  0
C  C133  1  0.65828863  0.08655720  0.19237703  1  -0.029849  0  -0.006729  0.086244  0  3.908485  0
C  C134  1  0.19986886  0.38698562  0.64326563  1  -0.052505  0  -0.123492  -0.282499  0  4.000094  0
C  C135  1  0.30011042  0.88699650  0.85674291  1  -0.052179  0  -0.123469  -0.282461  0  4.000364  0
C  C136  1  0.80012412  0.61301013  0.35674036  1  -0.052467  0  -0.123388  -0.282292  0  4.00036  0
C  C137  1  0.69988020  0.11301033  0.14326149  1  -0.052332  0  -0.123411  -0.282405  0  4.000449  0
C  C138  1  0.77369759  0.60298433  0.66706447  1  0.08067  0  -0.010231  0.263365  0  3.771055  0
C  C139  1  0.72625925  0.10299601  0.83293093  1  0.080729  0  -0.010276  0.26382  0  3.770713  0
C  C140  1  0.22627373  0.39700121  0.33293717  1  0.080376  0  -0.010417  0.263573  0  3.770747  0
C  C141  1  0.27372937  0.89701337  0.16706345  1  0.080676  0  -0.01032  0.263475  0  3.770808  0
C  C142  1  0.79895758  0.72526120  0.64707791  1  -0.103097  0  -0.247726  -0.41585  0  3.885996  0
C  C143  1  0.70100581  0.22526652  0.85292035  1  -0.103449  0  -0.247678  -0.41576  0  3.885636  0
C  C144  1  0.20100760  0.27472945  0.35292550  1  -0.103639  0  -0.247794  -0.415827  0  3.885873  0
C  C145  1  0.29900560  0.77473519  0.14708033  1  -0.103273  0  -0.24773  -0.415711  0  3.885728  0
C  C146  1  0.62202325  0.55197414  0.63792074  1  -0.050966  0  -0.246516  -0.413005  0  3.878713  0
C  C147  1  0.87793883  0.05198168  0.86207154  1  -0.043528  0  -0.246565  -0.413065  0  3.878165  0
C  C148  1  0.37795790  0.44800543  0.36207806  1  -0.051766  0  -0.246546  -0.413111  0  3.878579  0
C  C149  1  0.12204753  0.94801408  0.13791894  1  -0.051289  0  -0.246458  -0.412996  0  3.878527  0
C  C150  1  0.73916601  0.60837933  0.72425417  1  -0.041057  0  -0.247338  -0.42373  0  3.915399  0
C  C151  1  0.76078839  0.10838996  0.77574080  1  -0.040245  0  -0.247422  -0.424065  0  3.915646  0
C  C152  1  0.26081140  0.39160025  0.27574684  1  -0.040045  0  -0.247348  -0.423842  0  3.915342  0
C  C153  1  0.23918560  0.89162027  0.22425514  1  -0.040479  0  -0.247334  -0.423669  0  3.915339  0
C  C154  1  0.25455944  0.36965472  0.74035675  1  0.074442  0  -0.013103  0.238063  0  3.800307  0
C  C155  1  0.24537253  0.86966076  0.75965330  1  0.074647  0  -0.013057  0.238468  0  3.799639  0
C  C156  1  0.74541168  0.63033337  0.25964949  1  0.073975  0  -0.01306  0.23832  0  3.799843  0
C  C157  1  0.75459504  0.13034436  0.24035094  1  0.073401  0  -0.013068  0.238248  0  3.799805  0
C  C158  1  0.14413768  0.29300398  0.77114419  1  -0.052216  0  -0.241055  -0.412586  0  3.897865  0
C  C159  1  0.35580286  0.79299034  0.72887272  1  -0.05377  0  -0.240993  -0.412447  0  3.896912  0
C  C160  1  0.85581874  0.70700625  0.22886515  1  -0.052929  0  -0.241086  -0.412386  0  3.897309  0
C  C161  1  0.64419123  0.20701904  0.27113560  1  -0.052748  0  -0.24106  -0.41241  0  3.897129  0
C  C162  1  0.31412889  0.47101255  0.77407031  1  -0.024104  0  -0.241541  -0.40989  0  3.889835  0
C  C163  1  0.18581240  0.97101176  0.72593683  1  -0.023332  0  -0.241384  -0.409653  0  3.889799  0
C  C164  1  0.68585578  0.52897810  0.22593126  1  -0.023632  0  -0.241583  -0.410017  0  3.889841  0
C  C165  1  0.81415872  0.02898740  0.27406941  1  -0.023661  0  -0.241478  -0.409987  0  3.889985  0
C  C166  1  0.40256671  0.29958355  0.72686189  1  -0.095784  0  -0.243785  -0.417175  0  3.914406  0
C  C167  1  0.09735932  0.79960340  0.77315316  1  -0.096241  0  -0.244092  -0.418066  0  3.914155  0
C  C168  1  0.59738247  0.70039177  0.27314651  1  -0.097852  0  -0.243911  -0.417636  0  3.913853  0
C  C169  1  0.90262157  0.20039747  0.22685178  1  -0.096187  0  -0.244037  -0.417889  0  3.913994  0
C  C170  1  0.33441960  0.60504990  0.49115044  1  0.46959  0  0.039527  0.088662  0  3.970368  0
C  C171  1  0.16560079  0.10504456  0.00884887  1  0.469325  0  0.039598  0.088784  0  3.969946  0
C  C172  1  0.66558330  0.39496203  0.50885042  1  0.470027  0  0.039425  0.088362  0  3.97053  0
C  C173  1  0.83444237  0.89495205  0.99114719  1  0.470435  0  0.039529  0.088459  0  3.97058  0
C  C174  1  0.46889909  0.67510875  0.49559403  1  -0.060453  0  -0.084494  -0.178333  0  3.919015  0
C  C175  1  0.03111879  0.17511510  0.00439930  1  -0.059899  0  -0.084577  -0.178205  0  3.918891  0
C  C176  1  0.53110626  0.32489638  0.50440650  1  -0.060644  0  -0.084428  -0.178117  0  3.918925  0
C  C177  1  0.96892575  0.82489173  0.99559295  1  -0.061052  0  -0.084463  -0.178136  0  3.918807  0
C  C178  1  0.46057717  0.77796900  0.52320621  1  -0.023529  0  0.006135  0.152485  0  4.028197  0
C  C179  1  0.03945793  0.27796767  0.97678681  1  -0.023895  0  0.006191  0.152473  0  4.028368  0
C  C180  1  0.53942948  0.22204293  0.47679244  1  -0.023457  0  0.006231  0.152523  0  4.028059  0
C  C181  1  0.96060004  0.72202894  0.02320346  1  -0.022995  0  0.006036  0.152099  0  4.028436  0
C  C182  1  0.31456951  0.80077164  0.54640245  1  -0.005222  0  -0.087597  -0.186972  0  3.945681  0
C  C183  1  0.18546536  0.30076280  0.95359332  1  -0.00558  0  -0.087856  -0.187152  0  3.945647  0
C  C184  1  0.68543946  0.19923774  0.45359855  1  -0.005814  0  -0.087641  -0.186962  0  3.945596  0
C  C185  1  0.81458184  0.69922018  0.04639362  1  -0.00613  0  -0.087527  -0.186769  0  3.945283  0
C  C186  1  0.18524779  0.72527704  0.53976789  1  0.472007  0  0.045028  0.095285  0  3.972249  0
C  C187  1  0.31479089  0.22526415  0.96023272  1  0.47211  0  0.045164  0.095344  0  3.971951  0
C  C188  1  0.81476238  0.27473489  0.46023352  1  0.47294  0  0.045125  0.095309  0  3.97249  0
C  C189  1  0.68526455  0.77472054  0.03976018  1  0.472362  0  0.045077  0.095358  0  3.972305  0
C  C190  1  0.59455100  0.85816372  0.52727450  1  -0.057325  0  -0.089994  -0.138104  0  3.983117  0
C  C191  1  0.90547779  0.35816570  0.97271155  1  -0.057286  0  -0.089984  -0.138194  0  3.983059  0
C  C192  1  0.40544965  0.14184225  0.47272247  1  -0.057446  0  -0.090064  -0.138238  0  3.98306  0
C  C193  1  0.09457675  0.64183772  0.02727403  1  -0.057182  0  -0.089996  -0.137995  0  3.983253  0
C  C194  1  0.72756124  0.84938403  0.49960935  1  -0.040077  0  -0.080073  -0.11159  0  3.969087  0
C  C195  1  0.77248737  0.34938727  0.00037936  1  -0.039155  0  -0.080145  -0.111604  0  3.969614  0
C  C196  1  0.27245271  0.15062109  0.50038870  1  -0.039755  0  -0.08026  -0.111826  0  3.969363  0
C  C197  1  0.22758167  0.65061530  0.99960772  1  -0.040422  0  -0.080047  -0.11167  0  3.969183  0
C  C198  1  0.86475386  0.92626572  0.50116996  1  -0.022916  0  -0.010883  0.09892  0  4.057981  0
C  C199  1  0.63528542  0.42626016  0.99881810  1  -0.022625  0  -0.010964  0.098873  0  4.058864  0
C  C200  1  0.13525768  0.07374111  0.49882765  1  -0.022815  0  -0.01079  0.099034  0  4.058413  0
C  C201  1  0.36478248  0.57374496  0.00116703  1  -0.023331  0  -0.010922  0.098971  0  4.057896  0
C  C202  1  0.89428040  0.00923038  0.53973063  1  -0.047154  0  -0.086031  -0.123316  0  3.980098  0
C  C203  1  0.60573072  0.50921003  0.96025501  1  -0.069683  0  -0.08577  -0.122693  0  3.980208  0
C  C204  1  0.10572988  0.99078156  0.46026810  1  -0.047491  0  -0.085827  -0.122847  0  3.980134  0
C  C205  1  0.39433939  0.49079680  0.03973517  1  -0.045369  0  -0.085821  -0.122889  0  3.979633  0
C  C206  1  0.02586688  0.08188360  0.53827489  1  -0.031152  0  -0.084976  -0.126131  0  3.977676  0
C  C207  1  0.47416333  0.58186637  0.96171352  1  -0.032391  0  -0.085035  -0.126341  0  3.978025  0
C  C208  1  0.97415556  0.91812408  0.46172336  1  -0.031603  0  -0.085109  -0.126274  0  3.977868  0
C  C209  1  0.52592745  0.41813791  0.03827600  1  -0.031185  0  -0.085033  -0.126326  0  3.977418  0
N  N210  1  0.19326473  0.62934263  0.51199523  1  -1.241301  0  -0.322613  -0.235667  0  3.504714  0
N  N211  1  0.30676462  0.12933487  0.98800753  1  -1.241063  0  -0.322698  -0.235835  0  3.50441  0
N  N212  1  0.80674174  0.37066761  0.48800725  1  -1.241242  0  -0.322648  -0.235616  0  3.504747  0
N  N213  1  0.69328341  0.87065577  0.01198826  1  -1.241365  0  -0.322624  -0.235564  0  3.504782  0
O  O214  1  0.14012957  0.40140357  0.55336938  1  -1.107368  0  -0.296677  -0.449878  0  2.28588  0
O  O215  1  0.35988483  0.90139817  0.94663890  1  -1.107399  0  -0.296821  -0.450059  0  2.285362  0
O  O216  1  0.85988411  0.59860326  0.44663481  1  -1.107187  0  -0.296823  -0.450125  0  2.285432  0
O  O217  1  0.64013843  0.09859503  0.05336820  1  -1.107798  0  -0.296779  -0.450052  0  2.285577  0
O  O218  1  0.89916300  0.55417666  0.56693591  1  -1.109066  0  -0.283442  -0.424015  0  2.341566  0
O  O219  1  0.60083878  0.05417103  0.93306424  1  -1.109004  0  -0.283421  -0.423982  0  2.34149  0
O  O220  1  0.10083503  0.44583101  0.43306560  1  -1.108983  0  -0.283388  -0.423969  0  2.341444  0
O  O221  1  0.39918590  0.94582899  0.06693829  1  -1.108816  0  -0.283392  -0.424022  0  2.341767  0
