# generated using pymatgen
data_GdH8C10NO9
_symmetry_space_group_name_H-M   'P 1'
_cell_length_a   9.48286028
_cell_length_b   11.06404850
_cell_length_c   13.39435720
_cell_angle_alpha   65.87354857
_cell_angle_beta   69.27123247
_cell_angle_gamma   64.62707769
_symmetry_Int_Tables_number   1
_chemical_formula_structural   GdH8C10NO9
_chemical_formula_sum   'Gd4 H32 C40 N4 O36'
_cell_volume   1131.27424869
_cell_formula_units_Z   4
loop_
 _symmetry_equiv_pos_site_id
 _symmetry_equiv_pos_as_xyz
  1  'x, y, z'
loop_
 _atom_site_type_symbol
 _atom_site_label
 _atom_site_symmetry_multiplicity
 _atom_site_fract_x
 _atom_site_fract_y
 _atom_site_fract_z
 _atom_site_occupancy
 _atom_site_hle17_bader_spin_density
 _atom_site_hle17_ddec_charge
 _atom_site_hle17_ddec_spin_density
 _atom_site_hle17_ddec_sum_bond_order
 _atom_site_hle17_magmom
 _atom_site_hse06_10hf_bader_spin_density
 _atom_site_hse06_10hf_ddec_charge
 _atom_site_hse06_10hf_ddec_spin_density
 _atom_site_hse06_10hf_ddec_sum_bond_order
 _atom_site_hse06_10hf_magmom
 _atom_site_hse06_bader_spin_density
 _atom_site_hse06_ddec_charge
 _atom_site_hse06_ddec_spin_density
 _atom_site_hse06_ddec_sum_bond_order
 _atom_site_hse06_magmom
 _atom_site_pbe_bader_spin_density
 _atom_site_pbe_cm5_charge
 _atom_site_pbe_ddec_charge
 _atom_site_pbe_ddec_spin_density
 _atom_site_pbe_ddec_sum_bond_order
 _atom_site_pbe_magmom
Gd  Gd0  1  0.69866608  0.92654490  0.81117048  1  0  2.15877  0  1.741041  0  0  2.06239  0  2.096574  0  0  2.118611  0  2.041105  0  0  1.422539  2.019717  0  2.140256  0
Gd  Gd1  1  0.43638806  0.57347823  0.68878884  1  0  2.158221  0  1.743503  0  0  2.062203  0  2.09834  0  0  2.118618  0  2.042538  0  0  1.4224  2.019642  0  2.141879  0
Gd  Gd2  1  0.30133646  0.07345540  0.18882722  1  0  2.158785  0  1.741113  0  0  2.062399  0  2.096639  0  0  2.118617  0  2.041171  0  0  1.422561  2.019739  0  2.140294  0
Gd  Gd3  1  0.56361167  0.42651990  0.31121414  1  0  2.158311  0  1.743338  0  0  2.062199  0  2.098315  0  0  2.118609  0  2.042524  0  0  1.422464  2.019693  0  2.141761  0
H  H4  1  0.79170922  0.45086210  0.04810713  1  0  0.349721  0  0.88146  0  0  0.328624  0  0.943916  0  0  0.33758  0  0.936684  0  0  0.317583  0.322354  0  0.949001  0
H  H5  1  0.29053306  0.04918283  0.45196155  1  0  0.349588  0  0.881879  0  0  0.329117  0  0.943431  0  0  0.338077  0  0.936157  0  0  0.317885  0.322852  0  0.948565  0
H  H6  1  0.20828822  0.54913712  0.95189297  1  0  0.349786  0  0.881365  0  0  0.328631  0  0.943919  0  0  0.337587  0  0.936687  0  0  0.317591  0.322361  0  0.949004  0
H  H7  1  0.70946556  0.95081745  0.54803784  1  0  0.349575  0  0.881854  0  0  0.329104  0  0.943404  0  0  0.338065  0  0.936128  0  0  0.317869  0.322839  0  0.948536  0
H  H8  1  0.66441271  0.49318712  0.96799808  1  0  0.360432  0  0.815967  0  0  0.337282  0  0.880684  0  0  0.346019  0  0.872243  0  0  0.331119  0.331016  0  0.886879  0
H  H9  1  0.12547229  0.00678930  0.53207233  1  0  0.360597  0  0.8155  0  0  0.337588  0  0.880172  0  0  0.34627  0  0.871745  0  0  0.330955  0.331382  0  0.886336  0
H  H10  1  0.33559034  0.50681211  0.03200090  1  0  0.360384  0  0.816014  0  0  0.337243  0  0.880716  0  0  0.345978  0  0.872278  0  0  0.331103  0.330976  0  0.88691  0
H  H11  1  0.87452519  0.99321202  0.46792755  1  0  0.360606  0  0.815521  0  0  0.337597  0  0.880186  0  0  0.346281  0  0.871759  0  0  0.330959  0.331393  0  0.886348  0
H  H12  1  0.82068189  0.55411711  0.91476647  1  0  0.354681  0  0.869095  0  0  0.334425  0  0.929803  0  0  0.34277  0  0.922899  0  0  0.31927  0.328573  0  0.934747  0
H  H13  1  0.28947060  0.94585768  0.58526038  1  0  0.353741  0  0.868802  0  0  0.333481  0  0.929498  0  0  0.341792  0  0.922675  0  0  0.318859  0.327654  0  0.934433  0
H  H14  1  0.17931499  0.44588628  0.08523499  1  0  0.354678  0  0.869064  0  0  0.334465  0  0.929719  0  0  0.342811  0  0.922812  0  0  0.319266  0.328612  0  0.934665  0
H  H15  1  0.71052723  0.05414049  0.41473997  1  0  0.353765  0  0.868748  0  0  0.333522  0  0.929424  0  0  0.341836  0  0.922597  0  0  0.318875  0.327695  0  0.934359  0
H  H16  1  0.69253743  0.30423795  0.91519771  1  0  0.131236  0  0.9554  0  0  0.138755  0  1.019997  0  0  0.143191  0  1.016033  0  0  0.120405  0.13558  0  1.022861  0
H  H17  1  0.91184828  0.19569345  0.58492987  1  0  0.131662  0  0.956217  0  0  0.139981  0  1.019748  0  0  0.144339  0  1.015888  0  0  0.120815  0.136862  0  1.022542  0
H  H18  1  0.30746525  0.69576443  0.08480082  1  0  0.13121  0  0.955332  0  0  0.138722  0  1.019952  0  0  0.14316  0  1.015984  0  0  0.120389  0.135545  0  1.022818  0
H  H19  1  0.08815104  0.80430474  0.41506898  1  0  0.131695  0  0.956195  0  0  0.139999  0  1.019739  0  0  0.144356  0  1.01588  0  0  0.120806  0.136877  0  1.022543  0
H  H20  1  0.16496567  0.00576981  0.85047618  1  0  0.116497  0  0.925716  0  0  0.125194  0  0.987902  0  0  0.12902  0  0.98505  0  0  0.111386  0.122149  0  0.990461  0
H  H21  1  0.02116655  0.49420521  0.64954626  1  0  0.117398  0  0.924734  0  0  0.125888  0  0.986988  0  0  0.129777  0  0.98409  0  0  0.111697  0.122792  0  0.989617  0
H  H22  1  0.83503464  0.99423046  0.14952377  1  0  0.116522  0  0.925818  0  0  0.125225  0  0.987988  0  0  0.129053  0  0.985136  0  0  0.111402  0.12218  0  0.990546  0
H  H23  1  0.97883041  0.50579717  0.35045235  1  0  0.117399  0  0.924726  0  0  0.125898  0  0.986974  0  0  0.129785  0  0.984079  0  0  0.111706  0.122802  0  0.989602  0
H  H24  1  0.09413409  0.34925402  0.95742089  1  0  0.123441  0  0.950684  0  0  0.130019  0  1.016429  0  0  0.134464  0  1.012397  0  0  0.115882  0.12683  0  1.019593  0
H  H25  1  0.40068531  0.15078439  0.54256248  1  0  0.122007  0  0.953003  0  0  0.128609  0  1.019101  0  0  0.133066  0  1.015057  0  0  0.115489  0.1254  0  1.022304  0
H  H26  1  0.90586896  0.65074522  0.04257809  1  0  0.123441  0  0.950672  0  0  0.130006  0  1.016425  0  0  0.134451  0  1.012395  0  0  0.115885  0.126821  0  1.019584  0
H  H27  1  0.59931392  0.84921481  0.45743922  1  0  0.122  0  0.952992  0  0  0.128605  0  1.019103  0  0  0.133062  0  1.01506  0  0  0.115473  0.125395  0  1.022305  0
H  H28  1  0.62162292  0.18044179  0.59009150  1  0  0.44614  0  0.828677  0  0  0.423846  0  0.885939  0  0  0.433008  0  0.87261  0  0  0.315987  0.417271  0  0.895586  0
H  H29  1  0.39217542  0.31950314  0.90990272  1  0  0.446737  0  0.827781  0  0  0.423887  0  0.886058  0  0  0.433046  0  0.872718  0  0  0.315613  0.417324  0  0.895693  0
H  H30  1  0.37837371  0.81955954  0.40990810  1  0  0.446244  0  0.82858  0  0  0.423959  0  0.885786  0  0  0.433119  0  0.872461  0  0  0.31605  0.417385  0  0.895432  0
H  H31  1  0.60782375  0.68049818  0.09009774  1  0  0.446718  0  0.827818  0  0  0.423867  0  0.88609  0  0  0.433026  0  0.872753  0  0  0.31561  0.417303  0  0.895727  0
H  H32  1  0.68022163  0.22285407  0.65960906  1  0  0.446063  0  0.854935  0  0  0.414892  0  0.919571  0  0  0.42623  0  0.90298  0  0  0.305083  0.406747  0  0.931464  0
H  H33  1  0.56269715  0.27715161  0.84038328  1  0  0.44578  0  0.85525  0  0  0.414525  0  0.919903  0  0  0.425782  0  0.903427  0  0  0.30466  0.406431  0  0.931728  0
H  H34  1  0.31977729  0.77714517  0.34038954  1  0  0.446031  0  0.854978  0  0  0.414863  0  0.919608  0  0  0.426199  0  0.903018  0  0  0.305054  0.406719  0  0.931499  0
H  H35  1  0.43730465  0.72284868  0.15961518  1  0  0.445764  0  0.855269  0  0  0.414498  0  0.919942  0  0  0.425755  0  0.903466  0  0  0.304651  0.406405  0  0.931766  0
C  C36  1  0.51784540  0.82323497  0.70665598  1  0  0.593129  0  3.857518  0  0  0.546493  0  4.15743  0  0  0.5774  0  4.146343  0  0  0.232805  0.52508  0  4.164777  0
C  C37  1  0.04775772  0.67677274  0.79316459  1  0  0.594407  0  3.860434  0  0  0.548072  0  4.159687  0  0  0.579008  0  4.148542  0  0  0.232273  0.526671  0  4.167042  0
C  C38  1  0.48215281  0.17677156  0.29334559  1  0  0.593122  0  3.857493  0  0  0.546463  0  4.157411  0  0  0.577368  0  4.14633  0  0  0.232781  0.525053  0  4.164758  0
C  C39  1  0.95223897  0.32322647  0.20683626  1  0  0.594422  0  3.860329  0  0  0.548126  0  4.159501  0  0  0.579059  0  4.148359  0  0  0.232298  0.526722  0  4.166858  0
C  C40  1  0.92304234  0.14801932  0.87741281  1  0  -0.056438  0  3.770822  0  0  -0.029147  0  4.006269  0  0  -0.038528  0  4.03066  0  0  -0.012817  -0.023318  0  3.990134  0
C  C41  1  0.94835462  0.35191504  0.62269038  1  0  -0.053306  0  3.768106  0  0  -0.02657  0  4.003821  0  0  -0.035839  0  4.028066  0  0  -0.012715  -0.02085  0  3.987829  0
C  C42  1  0.07695990  0.85198202  0.12258568  1  0  -0.056479  0  3.770868  0  0  -0.029185  0  4.006345  0  0  -0.038565  0  4.030736  0  0  -0.012827  -0.023363  0  3.990212  0
C  C43  1  0.05164620  0.64808417  0.37731085  1  0  -0.053258  0  3.768156  0  0  -0.026532  0  4.003852  0  0  -0.035798  0  4.028094  0  0  -0.012719  -0.020812  0  3.987861  0
C  C44  1  0.85375363  0.06990946  0.85030175  1  0  0.635145  0  3.929697  0  0  0.58637  0  4.226253  0  0  0.619529  0  4.221157  0  0  0.195514  0.564491  0  4.227618  0
C  C45  1  0.77385132  0.43002818  0.64977447  1  0  0.633841  0  3.928081  0  0  0.585699  0  4.224199  0  0  0.618855  0  4.219084  0  0  0.196493  0.563835  0  4.225586  0
C  C46  1  0.14624429  0.93009291  0.14969818  1  0  0.635107  0  3.929692  0  0  0.586312  0  4.226264  0  0  0.61947  0  4.221171  0  0  0.19551  0.564436  0  4.227628  0
C  C47  1  0.22614965  0.56996791  0.35022515  1  0  0.633827  0  3.928155  0  0  0.585703  0  4.22424  0  0  0.61886  0  4.219122  0  0  0.196527  0.563839  0  4.225634  0
C  C48  1  0.08687961  0.10081386  0.87352583  1  0  -0.056056  0  3.672619  0  0  -0.097461  0  3.926226  0  0  -0.094682  0  3.945345  0  0  -0.066987  -0.098787  0  3.913571  0
C  C49  1  0.06112566  0.39915208  0.62651014  1  0  -0.058024  0  3.672366  0  0  -0.099252  0  3.925842  0  0  -0.096601  0  3.944933  0  0  -0.066769  -0.100507  0  3.913255  0
C  C50  1  0.91312199  0.89918745  0.12647444  1  0  -0.056087  0  3.672714  0  0  -0.097471  0  3.926379  0  0  -0.094692  0  3.945497  0  0  -0.066978  -0.098792  0  3.913716  0
C  C51  1  0.93887624  0.60084820  0.37348934  1  0  -0.058056  0  3.672288  0  0  -0.099289  0  3.925794  0  0  -0.096639  0  3.94488  0  0  -0.066781  -0.100541  0  3.913202  0
C  C52  1  0.14784922  0.17228661  0.90406901  1  0  -0.052641  0  3.742618  0  0  -0.027848  0  3.97736  0  0  -0.036275  0  3.999223  0  0  -0.00503  -0.022414  0  3.962266  0
C  C53  1  0.22411472  0.32774783  0.59592804  1  0  -0.054574  0  3.743134  0  0  -0.028896  0  3.976819  0  0  -0.037332  0  3.998679  0  0  -0.006183  -0.02343  0  3.961661  0
C  C54  1  0.85215496  0.82771579  0.09592801  1  0  -0.052539  0  3.742491  0  0  -0.027843  0  3.977482  0  0  -0.036273  0  3.999345  0  0  -0.004997  -0.022408  0  3.962383  0
C  C55  1  0.77588252  0.67225242  0.40407387  1  0  -0.054466  0  3.743061  0  0  -0.028819  0  3.976813  0  0  -0.03725  0  3.998666  0  0  -0.006188  -0.023359  0  3.961651  0
C  C56  1  0.88533045  0.34180863  0.93353862  1  0  0.254738  0  3.700868  0  0  0.254186  0  3.954742  0  0  0.256524  0  3.976317  0  0  0.089537  0.252413  0  3.940308  0
C  C57  1  0.16055700  0.15816067  0.56654481  1  0  0.252894  0  3.700545  0  0  0.252387  0  3.954599  0  0  0.254663  0  3.976178  0  0  0.087383  0.250684  0  3.940216  0
C  C58  1  0.11467314  0.65819164  0.06646143  1  0  0.254468  0  3.701068  0  0  0.254027  0  3.95482  0  0  0.256365  0  3.976395  0  0  0.089448  0.25225  0  3.940391  0
C  C59  1  0.83944361  0.84183856  0.43345435  1  0  0.252923  0  3.700567  0  0  0.252369  0  3.954673  0  0  0.254647  0  3.976254  0  0  0.087389  0.250668  0  3.940291  0
C  C60  1  0.82071412  0.26858470  0.90923402  1  0  -0.131447  0  3.649681  0  0  -0.168228  0  3.900059  0  0  -0.167075  0  3.917108  0  0  -0.073604  -0.169059  0  3.888884  0
C  C61  1  0.99842384  0.23134040  0.59088162  1  0  -0.130918  0  3.650271  0  0  -0.16807  0  3.900062  0  0  -0.166889  0  3.91717  0  0  -0.07261  -0.168929  0  3.888836  0
C  C62  1  0.17928579  0.73141662  0.09076568  1  0  -0.131212  0  3.649654  0  0  -0.168019  0  3.900008  0  0  -0.166865  0  3.917056  0  0  -0.073499  -0.168847  0  3.888831  0
C  C63  1  0.00157632  0.76865779  0.40911751  1  0  -0.131015  0  3.650365  0  0  -0.168129  0  3.900152  0  0  -0.166948  0  3.917258  0  0  -0.072588  -0.168984  0  3.888933  0
C  C64  1  0.04666831  0.29478368  0.93246161  1  0  -0.121006  0  3.659191  0  0  -0.160191  0  3.916008  0  0  -0.158168  0  3.93163  0  0  -0.070869  -0.161357  0  3.905422  0
C  C65  1  0.27381578  0.20525219  0.56753214  1  0  -0.118087  0  3.658991  0  0  -0.157781  0  3.915577  0  0  -0.155762  0  3.931245  0  0  -0.069428  -0.159022  0  3.905053  0
C  C66  1  0.95333353  0.70521871  0.06753663  1  0  -0.120998  0  3.659253  0  0  -0.160166  0  3.916087  0  0  -0.158143  0  3.93171  0  0  -0.070834  -0.161328  0  3.9055  0
C  C67  1  0.72618359  0.79474810  0.43246649  1  0  -0.118115  0  3.659089  0  0  -0.157793  0  3.915697  0  0  -0.155778  0  3.931367  0  0  -0.069436  -0.159033  0  3.905173  0
C  C68  1  0.51658313  0.72182483  0.82721116  1  0  0.554439  0  3.948334  0  0  0.515461  0  4.244751  0  0  0.5452  0  4.23578  0  0  0.21403  0.495115  0  4.250445  0
C  C69  1  0.06581338  0.77830758  0.67269540  1  0  0.554758  0  3.944051  0  0  0.514691  0  4.241979  0  0  0.544433  0  4.232962  0  0  0.214254  0.494316  0  4.247744  0
C  C70  1  0.48342379  0.27817753  0.17278878  1  0  0.55425  0  3.948451  0  0  0.515311  0  4.244813  0  0  0.545052  0  4.23584  0  0  0.214036  0.494966  0  4.250506  0
C  C71  1  0.93418494  0.22169374  0.32730477  1  0  0.554747  0  3.944134  0  0  0.514685  0  4.242027  0  0  0.544427  0  4.23301  0  0  0.21426  0.494322  0  4.247772  0
C  C72  1  0.31779136  0.11653617  0.91579202  1  0  0.729802  0  3.833174  0  0  0.682562  0  4.124292  0  0  0.718324  0  4.112894  0  0  0.244875  0.658482  0  4.130775  0
C  C73  1  0.35002038  0.38352752  0.58420097  1  0  0.730696  0  3.833222  0  0  0.683165  0  4.124535  0  0  0.718936  0  4.11308  0  0  0.246222  0.659154  0  4.131024  0
C  C74  1  0.68221213  0.88346411  0.08420700  1  0  0.729935  0  3.832813  0  0  0.682594  0  4.124157  0  0  0.718359  0  4.112749  0  0  0.244885  0.658518  0  4.130636  0
C  C75  1  0.64998099  0.61646752  0.41579890  1  0  0.730599  0  3.833124  0  0  0.683075  0  4.124455  0  0  0.718845  0  4.113003  0  0  0.246213  0.659067  0  4.130941  0
N  N76  1  0.78292540  0.46778153  0.96655757  1  0  -0.536436  0  3.203563  0  0  -0.484482  0  3.398378  0  0  -0.499263  0  3.393655  0  0  -0.590395  -0.474488  0  3.401886  0
N  N77  1  0.21713863  0.03220616  0.53351304  1  0  -0.536012  0  3.202542  0  0  -0.484494  0  3.397391  0  0  -0.49911  0  3.392578  0  0  -0.58992  -0.474725  0  3.401082  0
N  N78  1  0.21707680  0.53221771  0.03344113  1  0  -0.536376  0  3.203427  0  0  -0.484455  0  3.398221  0  0  -0.499237  0  3.393499  0  0  -0.590426  -0.474457  0  3.401733  0
N  N79  1  0.78286164  0.96779202  0.46648713  1  0  -0.536043  0  3.202578  0  0  -0.484509  0  3.397409  0  0  -0.499137  0  3.392606  0  0  -0.58991  -0.474742  0  3.401098  0
O  O80  1  0.70254431  0.11843025  0.85414581  1  0  -0.697444  0  2.086434  0  0  -0.637141  0  2.31757  0  0  -0.663874  0  2.309953  0  0  -0.36608  -0.618441  0  2.322146  0
O  O81  1  0.67503363  0.38150424  0.64590779  1  0  -0.697457  0  2.087528  0  0  -0.637533  0  2.318636  0  0  -0.664357  0  2.311018  0  0  -0.36638  -0.618827  0  2.323198  0
O  O82  1  0.29745543  0.88157320  0.14585162  1  0  -0.697468  0  2.086477  0  0  -0.63712  0  2.317617  0  0  -0.663852  0  2.309999  0  0  -0.366088  -0.618411  0  2.322162  0
O  O83  1  0.32496499  0.61849603  0.35409160  1  0  -0.697513  0  2.087506  0  0  -0.637582  0  2.318609  0  0  -0.664407  0  2.310991  0  0  -0.366407  -0.618881  0  2.323169  0
O  O84  1  0.93966181  0.95680048  0.82570087  1  0  -0.672446  0  1.964724  0  0  -0.632549  0  2.199751  0  0  -0.658842  0  2.19553  0  0  -0.35806  -0.613319  0  2.201588  0
O  O85  1  0.72203286  0.54312749  0.67440377  1  0  -0.672352  0  1.963999  0  0  -0.632728  0  2.198818  0  0  -0.659009  0  2.194512  0  0  -0.358898  -0.613555  0  2.200738  0
O  O86  1  0.06033644  0.04319764  0.17430361  1  0  -0.672406  0  1.964737  0  0  -0.632514  0  2.199757  0  0  -0.658811  0  2.195548  0  0  -0.358072  -0.613293  0  2.201597  0
O  O87  1  0.27796372  0.45687173  0.32559605  1  0  -0.672314  0  1.964191  0  0  -0.632675  0  2.198979  0  0  -0.658953  0  2.194672  0  0  -0.358876  -0.613505  0  2.2009  0
O  O88  1  0.59410870  0.90789174  0.67450402  1  0  -0.648221  0  2.094348  0  0  -0.600463  0  2.336491  0  0  -0.625736  0  2.327771  0  0  -0.341985  -0.582947  0  2.342837  0
O  O89  1  0.17642109  0.59200587  0.82538582  1  0  -0.6493  0  2.097241  0  0  -0.600622  0  2.338337  0  0  -0.625962  0  2.3297  0  0  -0.341799  -0.583114  0  2.344609  0
O  O90  1  0.40589116  0.09210649  0.32549201  1  0  -0.648263  0  2.09405  0  0  -0.60048  0  2.336161  0  0  -0.625755  0  2.327446  0  0  -0.34202  -0.582963  0  2.342506  0
O  O91  1  0.82357512  0.40799120  0.17461909  1  0  -0.649257  0  2.097375  0  0  -0.600604  0  2.338432  0  0  -0.625942  0  2.329795  0  0  -0.341788  -0.583102  0  2.344705  0
O  O92  1  0.57515723  0.74356654  0.88730161  1  0  -0.648354  0  2.067218  0  0  -0.610021  0  2.31224  0  0  -0.633562  0  2.303429  0  0  -0.360235  -0.593289  0  2.317946  0
O  O93  1  0.20628565  0.75653084  0.61269071  1  0  -0.647759  0  2.067592  0  0  -0.608611  0  2.312397  0  0  -0.632267  0  2.30374  0  0  -0.35927  -0.591836  0  2.318055  0
O  O94  1  0.42484622  0.25643165  0.11269762  1  0  -0.648363  0  2.067067  0  0  -0.61004  0  2.312074  0  0  -0.63358  0  2.303252  0  0  -0.360274  -0.593309  0  2.317778  0
O  O95  1  0.79371418  0.24346629  0.38730941  1  0  -0.647774  0  2.067678  0  0  -0.608616  0  2.312493  0  0  -0.63227  0  2.303833  0  0  -0.359282  -0.591854  0  2.318147  0
O  O96  1  0.46114259  0.62437855  0.85447714  1  0  -0.648462  0  2.019208  0  0  -0.612961  0  2.262689  0  0  -0.63682  0  2.254098  0  0  -0.338091  -0.59614  0  2.268302  0
O  O97  1  0.94030567  0.87588478  0.64540644  1  0  -0.649359  0  2.016497  0  0  -0.613689  0  2.260572  0  0  -0.637532  0  2.251996  0  0  -0.338833  -0.596848  0  2.266169  0
O  O98  1  0.53886128  0.37561958  0.14552622  1  0  -0.648362  0  2.019381  0  0  -0.612866  0  2.262842  0  0  -0.636723  0  2.254251  0  0  -0.338092  -0.596052  0  2.268455  0
O  O99  1  0.05969335  0.12411445  0.35459319  1  0  -0.649341  0  2.016434  0  0  -0.613688  0  2.260504  0  0  -0.63753  0  2.251929  0  0  -0.338837  -0.596854  0  2.266095  0
O  O100  1  0.34228541  0.14548452  0.99043369  1  0  -0.739199  0  2.051751  0  0  -0.694316  0  2.305407  0  0  -0.719767  0  2.292657  0  0  -0.387335  -0.676195  0  2.313531  0
O  O101  1  0.47812597  0.35454302  0.50960239  1  0  -0.739209  0  2.052973  0  0  -0.695165  0  2.307766  0  0  -0.720619  0  2.294925  0  0  -0.387532  -0.677033  0  2.315744  0
O  O102  1  0.65771394  0.85451046  0.00957049  1  0  -0.739268  0  2.051628  0  0  -0.694346  0  2.305378  0  0  -0.719798  0  2.292625  0  0  -0.387369  -0.676228  0  2.313506  0
O  O103  1  0.52186590  0.64545928  0.49040249  1  0  -0.739271  0  2.052733  0  0  -0.695242  0  2.307535  0  0  -0.720674  0  2.29464  0  0  -0.387579  -0.677098  0  2.315511  0
O  O104  1  0.42324508  0.04694462  0.85227009  1  0  -0.685693  0  2.03522  0  0  -0.647495  0  2.286148  0  0  -0.673888  0  2.276346  0  0  -0.380561  -0.628663  0  2.292615  0
O  O105  1  0.32231480  0.45323421  0.64764677  1  0  -0.686175  0  2.034426  0  0  -0.647856  0  2.285238  0  0  -0.674267  0  2.275452  0  0  -0.38222  -0.629134  0  2.291736  0
O  O106  1  0.57675314  0.95305671  0.14772905  1  0  -0.685761  0  2.035074  0  0  -0.647523  0  2.286069  0  0  -0.673918  0  2.276267  0  0  -0.380589  -0.628695  0  2.292537  0
O  O107  1  0.67768049  0.54677438  0.35235758  1  0  -0.68606  0  2.034694  0  0  -0.647731  0  2.2855  0  0  -0.674138  0  2.275716  0  0  -0.382131  -0.62902  0  2.291993  0
O  O108  1  0.44465428  0.81312939  0.64907283  1  0  -0.663469  0  2.104977  0  0  -0.61916  0  2.347745  0  0  -0.643392  0  2.338303  0  0  -0.34142  -0.602288  0  2.354289  0
O  O109  1  0.90681980  0.68692161  0.85066707  1  0  -0.665062  0  2.105928  0  0  -0.620946  0  2.348697  0  0  -0.64515  0  2.339195  0  0  -0.341194  -0.604045  0  2.355223  0
O  O110  1  0.55534415  0.18686671  0.35092595  1  0  -0.663352  0  2.105197  0  0  -0.619046  0  2.347981  0  0  -0.643273  0  2.33854  0  0  -0.341354  -0.60218  0  2.354523  0
O  O111  1  0.09317905  0.31307974  0.14933029  1  0  -0.665127  0  2.105657  0  0  -0.621045  0  2.348418  0  0  -0.645246  0  2.338911  0  0  -0.341239  -0.604142  0  2.354942  0
O  O112  1  0.67588968  0.13795250  0.65259201  1  0  -0.895569  0  1.868533  0  0  -0.85803  0  2.069376  0  0  -0.876986  0  2.037449  0  0  -0.642525  -0.844078  0  2.092395  0
O  O113  1  0.46643003  0.36202247  0.84740110  1  0  -0.896132  0  1.868301  0  0  -0.858085  0  2.069771  0  0  -0.876988  0  2.037967  0  0  -0.6413  -0.844195  0  2.092689  0
O  O114  1  0.32411218  0.86204568  0.34740769  1  0  -0.895622  0  1.868434  0  0  -0.858097  0  2.069264  0  0  -0.877053  0  2.037338  0  0  -0.642567  -0.844148  0  2.092286  0
O  O115  1  0.53356954  0.63797779  0.15259960  1  0  -0.896106  0  1.868334  0  0  -0.858042  0  2.069802  0  0  -0.876942  0  2.038004  0  0  -0.641287  -0.844161  0  2.092716  0
