# generated using pymatgen
data_CuH6C3SBrN2
_symmetry_space_group_name_H-M   'P 1'
_cell_length_a   7.53234531
_cell_length_b   11.89311740
_cell_length_c   12.12689951
_cell_angle_alpha   66.70251318
_cell_angle_beta   75.10761071
_cell_angle_gamma   87.57890494
_symmetry_Int_Tables_number   1
_chemical_formula_structural   CuH6C3SBrN2
_chemical_formula_sum   'Cu6 H36 C18 S6 Br6 N12'
_cell_volume   962.10942579
_cell_formula_units_Z   6
loop_
 _symmetry_equiv_pos_site_id
 _symmetry_equiv_pos_as_xyz
  1  'x, y, z'
loop_
 _atom_site_type_symbol
 _atom_site_label
 _atom_site_symmetry_multiplicity
 _atom_site_fract_x
 _atom_site_fract_y
 _atom_site_fract_z
 _atom_site_occupancy
 _atom_site_hle17_bader_spin_density
 _atom_site_hle17_ddec_charge
 _atom_site_hle17_ddec_spin_density
 _atom_site_hle17_ddec_sum_bond_order
 _atom_site_hle17_magmom
 _atom_site_hse06_10hf_bader_spin_density
 _atom_site_hse06_10hf_ddec_charge
 _atom_site_hse06_10hf_ddec_spin_density
 _atom_site_hse06_10hf_ddec_sum_bond_order
 _atom_site_hse06_10hf_magmom
 _atom_site_hse06_bader_spin_density
 _atom_site_hse06_ddec_charge
 _atom_site_hse06_ddec_spin_density
 _atom_site_hse06_ddec_sum_bond_order
 _atom_site_hse06_magmom
 _atom_site_pbe_bader_spin_density
 _atom_site_pbe_cm5_charge
 _atom_site_pbe_ddec_charge
 _atom_site_pbe_ddec_spin_density
 _atom_site_pbe_ddec_sum_bond_order
 _atom_site_pbe_magmom
Cu  Cu0  1  0.54190775  0.00770044  0.09538041  1  0  0.264068  0  2.276195  0  0  0.208981  0  2.768462  0  0  0.212478  0  2.717263  0  0  0.277356  0.208277  0  2.802028  0
Cu  Cu1  1  0.45810154  0.99230630  0.90460912  1  0  0.264074  0  2.276213  0  0  0.208978  0  2.768491  0  0  0.212482  0  2.717285  0  0  0.277323  0.208272  0  2.802076  0
Cu  Cu2  1  0.35782162  0.79479835  0.26349075  1  0  0.28863  0  2.218276  0  0  0.223242  0  2.715502  0  0  0.229025  0  2.663751  0  0  0.247303  0.220949  0  2.749626  0
Cu  Cu3  1  0.64215559  0.20520272  0.73651602  1  0  0.288643  0  2.218219  0  0  0.223234  0  2.715466  0  0  0.229023  0  2.663705  0  0  0.247289  0.220941  0  2.749591  0
Cu  Cu4  1  0.54927225  0.38021268  0.95228182  1  0  0.317069  0  2.178898  0  0  0.254236  0  2.667005  0  0  0.258301  0  2.61966  0  0  0.268337  0.253203  0  2.6982  0
Cu  Cu5  1  0.45070950  0.61979306  0.04771668  1  0  0.317064  0  2.178806  0  0  0.254225  0  2.666915  0  0  0.258292  0  2.619563  0  0  0.268297  0.253189  0  2.698113  0
H  H6  1  0.86401708  0.85466920  0.06146695  1  0  0.287688  0  0.938171  0  0  0.269595  0  1.005873  0  0  0.277262  0  1.000457  0  0  0.280737  0.264155  0  1.009782  0
H  H7  1  0.13598852  0.14534104  0.93853259  1  0  0.28765  0  0.938301  0  0  0.269657  0  1.005895  0  0  0.277294  0  1.000491  0  0  0.280787  0.264219  0  1.009804  0
H  H8  1  0.95482033  0.03560456  0.68733861  1  0  0.283737  0  0.937822  0  0  0.263493  0  1.010222  0  0  0.271433  0  1.00392  0  0  0.285137  0.257788  0  1.01491  0
H  H9  1  0.04519165  0.96440117  0.31265663  1  0  0.283836  0  0.937641  0  0  0.263612  0  1.010038  0  0  0.271553  0  1.003736  0  0  0.285177  0.257903  0  1.014727  0
H  H10  1  0.02408838  0.65737070  0.41182045  1  0  0.284389  0  0.943477  0  0  0.263697  0  1.017916  0  0  0.272225  0  1.010478  0  0  0.281006  0.257625  0  1.02332  0
H  H11  1  0.97589686  0.34262861  0.58818073  1  0  0.284394  0  0.94342  0  0  0.263706  0  1.01784  0  0  0.272234  0  1.010407  0  0  0.281001  0.257639  0  1.023242  0
H  H12  1  0.07633328  0.50207588  0.16115519  1  0  0.290478  0  0.939362  0  0  0.269778  0  1.013113  0  0  0.278225  0  1.006032  0  0  0.280386  0.263709  0  1.018378  0
H  H13  1  0.92364828  0.49792805  0.83884238  1  0  0.290422  0  0.939481  0  0  0.269747  0  1.01323  0  0  0.278195  0  1.006147  0  0  0.280379  0.263677  0  1.018495  0
H  H14  1  0.44240401  0.37299111  0.20811336  1  0  0.279637  0  0.94331  0  0  0.255434  0  1.02497  0  0  0.264518  0  1.016785  0  0  0.282576  0.248864  0  1.030965  0
H  H15  1  0.55758911  0.62700452  0.79188875  1  0  0.279552  0  0.943392  0  0  0.255385  0  1.025056  0  0  0.264469  0  1.016873  0  0  0.282551  0.248816  0  1.031049  0
H  H16  1  0.35901684  0.00209168  0.35432018  1  0  0.278745  0  0.941492  0  0  0.255784  0  1.022884  0  0  0.264658  0  1.01447  0  0  0.282023  0.249392  0  1.029019  0
H  H17  1  0.64100915  0.99790311  0.64567360  1  0  0.27883  0  0.941439  0  0  0.255803  0  1.022858  0  0  0.264673  0  1.014449  0  0  0.282021  0.24941  0  1.028992  0
H  H18  1  0.94602929  0.70418672  0.95049099  1  0  0.070423  0  0.95976  0  0  0.079777  0  1.02907  0  0  0.08099  0  1.029109  0  0  0.085023  0.078665  0  1.029386  0
H  H19  1  0.05397781  0.29582435  0.04951376  1  0  0.070394  0  0.959657  0  0  0.079773  0  1.028987  0  0  0.080984  0  1.029027  0  0  0.085027  0.078661  0  1.029291  0
H  H20  1  0.15422587  0.76442457  0.95861666  1  0  0.065298  0  0.97633  0  0  0.072987  0  1.053604  0  0  0.074279  0  1.052717  0  0  0.08588  0.071807  0  1.054489  0
H  H21  1  0.84578480  0.23558103  0.04138792  1  0  0.06523  0  0.976408  0  0  0.073006  0  1.053607  0  0  0.074294  0  1.05273  0  0  0.085932  0.071826  0  1.054491  0
H  H22  1  0.22720695  0.90154016  0.74539542  1  0  0.061408  0  0.956022  0  0  0.069449  0  1.031925  0  0  0.0703  0  1.031743  0  0  0.09142  0.068625  0  1.032239  0
H  H23  1  0.77279217  0.09845996  0.25461062  1  0  0.061457  0  0.956011  0  0  0.069475  0  1.031936  0  0  0.070326  0  1.031755  0  0  0.091437  0.06865  0  1.032252  0
H  H24  1  0.06070488  0.81049856  0.72840958  1  0  0.07959  0  0.916901  0  0  0.09448  0  0.973586  0  0  0.095961  0  0.972728  0  0  0.100275  0.093273  0  0.974331  0
H  H25  1  0.93930402  0.18950341  0.27159335  1  0  0.07956  0  0.916956  0  0  0.09447  0  0.973612  0  0  0.095946  0  0.972757  0  0  0.100231  0.093265  0  0.974356  0
H  H26  1  0.76481913  0.47257241  0.48626896  1  0  0.056579  0  0.968859  0  0  0.065366  0  1.043969  0  0  0.06595  0  1.044244  0  0  0.086643  0.064753  0  1.043954  0
H  H27  1  0.23516666  0.52743238  0.51373089  1  0  0.056685  0  0.968732  0  0  0.065463  0  1.043846  0  0  0.066046  0  1.044122  0  0  0.086717  0.064851  0  1.043828  0
H  H28  1  0.69556725  0.62095479  0.40006172  1  0  0.07289  0  0.960138  0  0  0.089118  0  1.021954  0  0  0.090236  0  1.021455  0  0  0.094316  0.088173  0  1.022405  0
H  H29  1  0.30441110  0.37904455  0.59993809  1  0  0.072939  0  0.960018  0  0  0.089143  0  1.021854  0  0  0.090259  0  1.021357  0  0  0.094321  0.088198  0  1.022306  0
H  H30  1  0.75738551  0.58583134  0.21365724  1  0  0.065521  0  0.937345  0  0  0.079724  0  1.002076  0  0  0.080592  0  1.001533  0  0  0.089752  0.078872  0  1.002724  0
H  H31  1  0.24259239  0.41416340  0.78634519  1  0  0.065597  0  0.937262  0  0  0.079773  0  1.001982  0  0  0.080631  0  1.001437  0  0  0.089776  0.07892  0  1.002635  0
H  H32  1  0.74641273  0.42721173  0.31422091  1  0  0.073599  0  0.93632  0  0  0.087003  0  0.999817  0  0  0.088046  0  0.999557  0  0  0.097462  0.086127  0  1.000127  0
H  H33  1  0.25358077  0.57278753  0.68578224  1  0  0.073602  0  0.936306  0  0  0.087003  0  0.999785  0  0  0.088038  0  0.999525  0  0  0.097489  0.086129  0  1.000095  0
H  H34  1  0.25801625  0.30445432  0.44352639  1  0  0.072288  0  0.935963  0  0  0.086127  0  1.000307  0  0  0.086685  0  1.000782  0  0  0.099055  0.085618  0  1.000074  0
H  H35  1  0.74198569  0.69553299  0.55648153  1  0  0.072306  0  0.936022  0  0  0.086127  0  1.000338  0  0  0.086685  0  1.000815  0  0  0.099106  0.08562  0  1.000097  0
H  H36  1  0.49632458  0.27280684  0.42672057  1  0  0.0647  0  0.93952  0  0  0.075787  0  1.008452  0  0  0.077166  0  1.007593  0  0  0.092849  0.074603  0  1.009272  0
H  H37  1  0.50367945  0.72718786  0.57328093  1  0  0.064738  0  0.939517  0  0  0.075829  0  1.008405  0  0  0.077212  0  1.007543  0  0  0.092836  0.074643  0  1.009227  0
H  H38  1  0.37529143  0.06321968  0.53837770  1  0  0.074157  0  0.952438  0  0  0.086448  0  1.019289  0  0  0.0874  0  1.019377  0  0  0.098683  0.08566  0  1.019346  0
H  H39  1  0.62473557  0.93677141  0.46161896  1  0  0.074251  0  0.952324  0  0  0.086566  0  1.019172  0  0  0.087516  0  1.019265  0  0  0.098686  0.085779  0  1.019235  0
H  H40  1  0.16425737  0.09767774  0.49285452  1  0  0.06101  0  0.951479  0  0  0.072178  0  1.019473  0  0  0.073707  0  1.018481  0  0  0.086934  0.070932  0  1.020351  0
H  H41  1  0.83576874  0.90230414  0.50714822  1  0  0.060869  0  0.951495  0  0  0.072161  0  1.019417  0  0  0.073695  0  1.018417  0  0  0.086888  0.070916  0  1.020295  0
C  C42  1  0.88242930  0.96828504  0.87869985  1  0  0.450195  0  3.820082  0  0  0.407056  0  4.110364  0  0  0.432584  0  4.118148  0  0  0.239625  0.389822  0  4.104785  0
C  C43  1  0.11757819  0.03171702  0.12129751  1  0  0.45019  0  3.820147  0  0  0.407212  0  4.110322  0  0  0.432702  0  4.118098  0  0  0.239652  0.389978  0  4.104739  0
C  C44  1  0.03196101  0.78832466  0.92284329  1  0  0.032598  0  3.564401  0  0  -0.018534  0  3.807536  0  0  -0.015507  0  3.81912  0  0  -0.061259  -0.020344  0  3.799934  0
C  C45  1  0.96804710  0.21168273  0.07716351  1  0  0.032861  0  3.563994  0  0  -0.018383  0  3.807338  0  0  -0.015393  0  3.818908  0  0  -0.061284  -0.020182  0  3.79973  0
C  C46  1  0.08332991  0.86357167  0.78041340  1  0  0.047832  0  3.544428  0  0  -0.005751  0  3.795708  0  0  -0.001813  0  3.805943  0  0  -0.053548  -0.00817  0  3.788772  0
C  C47  1  0.91666972  0.13643401  0.21958717  1  0  0.047757  0  3.544399  0  0  -0.005735  0  3.795626  0  0  -0.001795  0  3.805868  0  0  -0.053517  -0.008159  0  3.78869  0
C  C48  1  0.10338057  0.57775819  0.28375773  1  0  0.454995  0  3.788344  0  0  0.413522  0  4.080146  0  0  0.43996  0  4.08623  0  0  0.241263  0.395735  0  4.075457  0
C  C49  1  0.89660595  0.42224020  0.71624359  1  0  0.454905  0  3.78845  0  0  0.413418  0  4.080325  0  0  0.439857  0  4.086413  0  0  0.241195  0.395629  0  4.075642  0
C  C50  1  0.79793754  0.55323256  0.39712247  1  0  0.029009  0  3.589539  0  0  -0.025381  0  3.838085  0  0  -0.022256  0  3.849862  0  0  -0.061817  -0.027186  0  3.830038  0
C  C51  1  0.20204952  0.44677133  0.60287669  1  0  0.028961  0  3.589384  0  0  -0.025395  0  3.837864  0  0  -0.022276  0  3.849629  0  0  -0.061844  -0.027193  0  3.82982  0
C  C52  1  0.81391817  0.51763467  0.28616701  1  0  0.041042  0  3.584967  0  0  -0.013711  0  3.837696  0  0  -0.010096  0  3.848963  0  0  -0.059736  -0.01603  0  3.830117  0
C  C53  1  0.18606991  0.48236554  0.71383419  1  0  0.040944  0  3.58482  0  0  -0.013719  0  3.837504  0  0  -0.010071  0  3.848729  0  0  -0.059743  -0.016047  0  3.829937  0
C  C54  1  0.41468775  0.18857416  0.24715442  1  0  0.453754  0  3.786302  0  0  0.413752  0  4.075255  0  0  0.44079  0  4.080816  0  0  0.240123  0.395651  0  4.0708  0
C  C55  1  0.58532340  0.81142334  0.75284240  1  0  0.453733  0  3.786414  0  0  0.41387  0  4.075219  0  0  0.440906  0  4.080779  0  0  0.240185  0.395768  0  4.070766  0
C  C56  1  0.36740492  0.25428354  0.40790947  1  0  0.03791  0  3.591094  0  0  -0.017714  0  3.84883  0  0  -0.014018  0  3.85967  0  0  -0.056175  -0.020021  0  3.841465  0
C  C57  1  0.63260030  0.74570933  0.59209253  1  0  0.037624  0  3.591196  0  0  -0.017861  0  3.848907  0  0  -0.014173  0  3.859754  0  0  -0.056278  -0.020164  0  3.841545  0
C  C58  1  0.31499759  0.11569167  0.46148979  1  0  0.033236  0  3.582637  0  0  -0.021572  0  3.83737  0  0  -0.018096  0  3.847731  0  0  -0.061263  -0.023774  0  3.830373  0
C  C59  1  0.68502364  0.88429667  0.53850884  1  0  0.033289  0  3.582491  0  0  -0.021702  0  3.837314  0  0  -0.018228  0  3.847681  0  0  -0.061239  -0.023917  0  3.830334  0
S  S60  1  0.74977697  0.08281691  0.90135574  1  0  -0.353426  0  2.870869  0  0  -0.33387  0  3.375279  0  0  -0.336113  0  3.337151  0  0  -0.238276  -0.333282  0  3.400959  0
S  S61  1  0.25022825  0.91718970  0.09864274  1  0  -0.353396  0  2.870902  0  0  -0.333877  0  3.375291  0  0  -0.336123  0  3.337173  0  0  -0.238272  -0.333292  0  3.400974  0
S  S62  1  0.33774038  0.61016491  0.24222473  1  0  -0.381227  0  2.636288  0  0  -0.360607  0  3.115407  0  0  -0.365716  0  3.080435  0  0  -0.22754  -0.357806  0  3.138697  0
S  S63  1  0.66224815  0.38983991  0.75777302  1  0  -0.381171  0  2.636352  0  0  -0.360515  0  3.115454  0  0  -0.365625  0  3.080483  0  0  -0.227481  -0.357713  0  3.138744  0
S  S64  1  0.46526615  0.19117194  0.10128295  1  0  -0.353685  0  2.817449  0  0  -0.341294  0  3.323742  0  0  -0.346542  0  3.289366  0  0  -0.226411  -0.338516  0  3.346644  0
S  S65  1  0.53474022  0.80883293  0.89870941  1  0  -0.353769  0  2.81758  0  0  -0.341387  0  3.323798  0  0  -0.346631  0  3.289416  0  0  -0.226421  -0.338608  0  3.346706  0
Br  Br66  1  0.67766745  0.85287913  0.25035383  1  0  -0.438517  0  1.361027  0  0  -0.380355  0  1.732146  0  0  -0.395022  0  1.700196  0  0  -0.22977  -0.37008  0  1.753656  0
Br  Br67  1  0.32232572  0.14711752  0.74964129  1  0  -0.438539  0  1.361107  0  0  -0.38038  0  1.732213  0  0  -0.395056  0  1.700264  0  0  -0.229783  -0.370105  0  1.753729  0
Br  Br68  1  0.17388768  0.79664590  0.46576429  1  0  -0.554046  0  1.033852  0  0  -0.495871  0  1.329966  0  0  -0.511105  0  1.303019  0  0  -0.272525  -0.484701  0  1.348278  0
Br  Br69  1  0.82612481  0.20335055  0.53424178  1  0  -0.554079  0  1.033778  0  0  -0.495885  0  1.329865  0  0  -0.511107  0  1.302894  0  0  -0.272511  -0.484716  0  1.348177  0
Br  Br70  1  0.73054175  0.49211233  0.02988806  1  0  -0.511607  0  1.343004  0  0  -0.446106  0  1.69967  0  0  -0.461993  0  1.668851  0  0  -0.244916  -0.434781  0  1.720974  0
Br  Br71  1  0.26944716  0.50788238  0.97011508  1  0  -0.511609  0  1.343098  0  0  -0.446092  0  1.699757  0  0  -0.46196  0  1.668907  0  0  -0.244889  -0.434767  0  1.721059  0
N  N72  1  0.92635409  0.87373826  0.96970148  1  0  -0.384477  0  3.324805  0  0  -0.315836  0  3.554784  0  0  -0.336833  0  3.568037  0  0  -0.416213  -0.302  0  3.545921  0
N  N73  1  0.07365655  0.12626739  0.03029979  1  0  -0.384599  0  3.324843  0  0  -0.316155  0  3.554935  0  0  -0.336996  0  3.568023  0  0  -0.416341  -0.302328  0  3.546083  0
N  N74  1  0.95864633  0.96363541  0.76826736  1  0  -0.400933  0  3.314272  0  0  -0.336248  0  3.551394  0  0  -0.356792  0  3.563182  0  0  -0.421077  -0.322529  0  3.543463  0
N  N75  1  0.04136136  0.03636846  0.23173093  1  0  -0.401063  0  3.314187  0  0  -0.336502  0  3.55137  0  0  -0.357059  0  3.563166  0  0  -0.421092  -0.322769  0  3.543425  0
N  N76  1  0.98407191  0.60652048  0.37004104  1  0  -0.398168  0  3.310683  0  0  -0.334457  0  3.552633  0  0  -0.353861  0  3.561648  0  0  -0.421607  -0.321631  0  3.546587  0
N  N77  1  0.01591257  0.39348530  0.62995454  1  0  -0.398253  0  3.310609  0  0  -0.334523  0  3.552586  0  0  -0.353931  0  3.561604  0  0  -0.421659  -0.321708  0  3.546555  0
N  N78  1  0.01405650  0.51680999  0.23964434  1  0  -0.393348  0  3.265293  0  0  -0.330637  0  3.505653  0  0  -0.3497  0  3.513834  0  0  -0.418042  -0.31798  0  3.500112  0
N  N79  1  0.98592891  0.48319116  0.76035529  1  0  -0.393232  0  3.265266  0  0  -0.330631  0  3.505695  0  0  -0.349703  0  3.513866  0  0  -0.418041  -0.317967  0  3.500156  0
N  N80  1  0.39221487  0.28805750  0.27453984  1  0  -0.392517  0  3.279487  0  0  -0.329733  0  3.519683  0  0  -0.349144  0  3.528007  0  0  -0.419037  -0.316716  0  3.513893  0
N  N81  1  0.60778375  0.71193813  0.72546137  1  0  -0.392149  0  3.279374  0  0  -0.329602  0  3.519675  0  0  -0.349015  0  3.528018  0  0  -0.419009  -0.316585  0  3.513883  0
N  N82  1  0.38982288  0.08589130  0.35260836  1  0  -0.410478  0  3.276351  0  0  -0.349336  0  3.520526  0  0  -0.368193  0  3.52752  0  0  -0.424953  -0.336731  0  3.515809  0
N  N83  1  0.61019082  0.91410442  0.64738542  1  0  -0.41054  0  3.276335  0  0  -0.349293  0  3.520556  0  0  -0.368142  0  3.527543  0  0  -0.424894  -0.336684  0  3.515846  0
