# generated using pymatgen
data_CuH18C12(N2O3)2
_symmetry_space_group_name_H-M   'P 1'
_cell_length_a   9.10492887
_cell_length_b   10.22116595
_cell_length_c   18.39518042
_cell_angle_alpha   89.99961767
_cell_angle_beta   90.00065734
_cell_angle_gamma   90.00224652
_symmetry_Int_Tables_number   1
_chemical_formula_structural   CuH18C12(N2O3)2
_chemical_formula_sum   'Cu4 H72 C48 N16 O24'
_cell_volume   1711.91047117
_cell_formula_units_Z   4
loop_
 _symmetry_equiv_pos_site_id
 _symmetry_equiv_pos_as_xyz
  1  'x, y, z'
loop_
 _atom_site_type_symbol
 _atom_site_label
 _atom_site_symmetry_multiplicity
 _atom_site_fract_x
 _atom_site_fract_y
 _atom_site_fract_z
 _atom_site_occupancy
 _atom_site_pbe_bader_charge
 _atom_site_pbe_bader_spin_density
 _atom_site_pbe_cm5_charge
 _atom_site_pbe_ddec_charge
 _atom_site_pbe_ddec_spin_density
 _atom_site_pbe_ddec_sum_bond_order
 _atom_site_pbe_magmom
Cu  Cu0  1  0.57025713  0.48955487  0.23518122  1  1.082876  -0.587282  0.713868  0.786551  -0.763844  2.189364  -0.587
Cu  Cu1  1  0.42975730  0.98956945  0.26481434  1  1.082754  -0.587269  0.713879  0.78659  -0.76381  2.189217  -0.587
Cu  Cu2  1  0.92978340  0.51044444  0.73516471  1  1.082716  0.587258  0.713825  0.786631  0.763822  2.189145  0.587
Cu  Cu3  1  0.07018938  0.01044060  0.76483746  1  1.082655  0.587256  0.713887  0.786665  0.763796  2.189218  0.587
H  H4  1  0.95048034  0.57441084  0.13917267  1  0.028351  -0.005029  0.104891  0.089084  -0.002587  0.965122  -0.003
H  H5  1  0.04954739  0.07440801  0.36083255  1  0.028424  -0.005028  0.104842  0.089082  -0.002587  0.965147  -0.003
H  H6  1  0.54952373  0.42555443  0.63916699  1  0.027877  0.005028  0.104831  0.089076  0.002586  0.965064  0.003
H  H7  1  0.45043685  0.92557836  0.86083911  1  0.028003  0.005029  0.104878  0.089074  0.002587  0.965107  0.003
H  H8  1  0.85112980  0.42825358  0.12489339  1  0.079726  -0.00033  0.114849  0.101303  -9.7e-05  1.000258  0.0
H  H9  1  0.14890183  0.92824579  0.37511489  1  0.083413  -0.000329  0.11488  0.101386  -9.7e-05  1.000203  0.0
H  H10  1  0.64883328  0.57173730  0.62487737  1  0.080117  0.00033  0.114893  0.101322  9.7e-05  1.000393  0.0
H  H11  1  0.35114428  0.07175704  0.87512621  1  0.082899  0.000329  0.114844  0.101249  9.8e-05  1.000483  0.0
H  H12  1  0.02160886  0.42086778  0.23275102  1  0.049881  -2.3e-05  0.104737  0.094895  -2.8e-05  0.95693  0.0
H  H13  1  0.97841256  0.92086321  0.26725566  1  0.05016  -2.2e-05  0.104688  0.09491  -2.8e-05  0.956838  0.0
H  H14  1  0.47842488  0.57906244  0.73278018  1  0.049555  2.2e-05  0.104824  0.095058  2.8e-05  0.956808  0.0
H  H15  1  0.52154529  0.07908679  0.76722011  1  0.049626  2.2e-05  0.104761  0.095129  2.8e-05  0.956745  0.0
H  H16  1  0.91600777  0.54396177  0.27551433  1  0.064555  5.7e-05  0.107717  0.090685  5.7e-05  1.023219  0.0
H  H17  1  0.08403735  0.04395894  0.22449209  1  0.064231  5.7e-05  0.107755  0.090676  5.7e-05  1.023356  0.0
H  H18  1  0.58409527  0.45596758  0.77550165  1  0.064258  -5.7e-05  0.107835  0.09079  -5.7e-05  1.023242  0.0
H  H19  1  0.41586879  0.95598410  0.72450651  1  0.064227  -5.7e-05  0.107826  0.090784  -5.7e-05  1.023252  0.0
H  H20  1  0.79615403  0.77925937  0.14555346  1  0.069615  -0.00561  0.108666  0.109412  -0.002926  0.963884  -0.003
H  H21  1  0.20387243  0.27926323  0.35447276  1  0.069325  -0.005612  0.108616  0.109305  -0.002927  0.963656  -0.003
H  H22  1  0.70391610  0.22075572  0.64544224  1  0.068611  0.005613  0.108542  0.109377  0.002927  0.963787  0.003
H  H23  1  0.29604576  0.72078388  0.85457331  1  0.06849  0.005615  0.108492  0.10932  0.002928  0.963945  0.003
H  H24  1  0.80711396  0.72174111  0.23686936  1  0.090858  -0.000244  0.12128  0.126943  2.3e-05  0.988934  0.0
H  H25  1  0.19289360  0.22175058  0.26314620  1  0.091323  -0.000243  0.121141  0.126952  2.3e-05  0.989016  0.0
H  H26  1  0.69282006  0.27817697  0.73677472  1  0.091493  0.000242  0.121138  0.127031  -2.4e-05  0.989151  0.0
H  H27  1  0.30714970  0.77819003  0.76323844  1  0.091726  0.000242  0.121109  0.127099  -2.4e-05  0.989126  0.0
H  H28  1  0.90044130  0.37265460  0.37305971  1  0.033576  -0.000337  0.097898  0.091215  -0.000218  0.981592  0.0
H  H29  1  0.09955943  0.87263240  0.12695041  1  0.033805  -0.000337  0.097886  0.091233  -0.000218  0.98154  0.0
H  H30  1  0.59967847  0.62732345  0.87305954  1  0.034826  0.000336  0.098034  0.091501  0.000218  0.981639  0.0
H  H31  1  0.40030472  0.12733629  0.62694710  1  0.0351  0.000336  0.098046  0.091546  0.000218  0.98175  0.0
H  H32  1  0.72902790  0.29036150  0.36442509  1  0.07133  4.6e-05  0.115278  0.12098  -0.0  0.980474  0.0
H  H33  1  0.27098694  0.79036991  0.13557663  1  0.071193  4.6e-05  0.115269  0.121024  -0.0  0.980421  0.0
H  H34  1  0.77111690  0.70957557  0.86439235  1  0.070783  -4.6e-05  0.115289  0.120987  0.0  0.980502  0.0
H  H35  1  0.22884777  0.20955660  0.63560257  1  0.070983  -4.6e-05  0.115216  0.120978  0.0  0.980359  0.0
H  H36  1  0.72561886  0.58921677  0.04654453  1  0.108833  -0.002647  0.111579  0.119573  -0.001281  0.999672  -0.002
H  H37  1  0.27441827  0.08918775  0.45346770  1  0.108967  -0.002647  0.111523  0.119525  -0.001281  0.99949  -0.002
H  H38  1  0.77444439  0.41082203  0.54651616  1  0.10926  0.002643  0.111537  0.119617  0.001279  0.999656  0.002
H  H39  1  0.22553534  0.91085717  0.95348945  1  0.109155  0.002644  0.11153  0.119529  0.00128  0.999879  0.002
H  H40  1  0.56217733  0.64955889  0.08990155  1  0.073653  -0.000441  0.122819  0.133586  -0.000117  0.956858  0.0
H  H41  1  0.43785356  0.14956571  0.41011155  1  0.073686  -0.00044  0.122918  0.133784  -0.000117  0.956919  0.0
H  H42  1  0.93787053  0.35049699  0.58988730  1  0.074326  0.000441  0.122966  0.133839  0.000117  0.957062  0.0
H  H43  1  0.06210666  0.85050126  0.91012940  1  0.074134  0.000441  0.122954  0.13376  0.000118  0.957121  0.0
H  H44  1  0.76594924  0.16597867  0.27649912  1  0.095511  -2.5e-05  0.118119  0.124453  -2.9e-05  0.985541  0.0
H  H45  1  0.23405378  0.66597585  0.22349925  1  0.095363  -2.5e-05  0.118178  0.124483  -2.9e-05  0.985495  0.0
H  H46  1  0.73408353  0.83397220  0.77649999  1  0.095416  2.5e-05  0.118157  0.12436  2.9e-05  0.985639  0.0
H  H47  1  0.26588748  0.33397699  0.72349068  1  0.094997  2.5e-05  0.118268  0.124573  2.9e-05  0.985516  0.0
H  H48  1  0.95513648  0.20729451  0.26285085  1  0.034369  -9.6e-05  0.09355  0.068158  -5.2e-05  1.047246  0.0
H  H49  1  0.04486828  0.70728658  0.23716367  1  0.034518  -9.5e-05  0.093507  0.068149  -5.1e-05  1.047111  0.0
H  H50  1  0.54489925  0.79264575  0.76286393  1  0.035163  9.5e-05  0.093597  0.068346  5.1e-05  1.046783  0.0
H  H51  1  0.45506783  0.29266315  0.73713504  1  0.035075  9.5e-05  0.093633  0.068445  5.1e-05  1.046638  0.0
H  H52  1  0.52223253  0.20127216  0.97631162  1  0.11472  -0.000188  0.112069  0.103277  -5.2e-05  0.988999  0.0
H  H53  1  0.47788337  0.70125427  0.52366105  1  0.115147  -0.000188  0.111894  0.103163  -5.2e-05  0.988963  0.0
H  H54  1  0.97771849  0.79879463  0.47630249  1  0.113773  0.000188  0.11199  0.103178  5.2e-05  0.98867  0.0
H  H55  1  0.02218578  0.29882429  0.02367202  1  0.114533  0.000188  0.111956  0.103043  5.2e-05  0.988862  0.0
H  H56  1  0.43969041  0.22309275  0.06303790  1  0.108132  -0.000443  0.111237  0.100958  -0.000415  1.003022  0.0
H  H57  1  0.56037432  0.72309824  0.43692274  1  0.107684  -0.000444  0.111178  0.100666  -0.000415  1.003036  0.0
H  H58  1  0.06029954  0.77697750  0.56301959  1  0.108226  0.000442  0.111234  0.101242  0.000415  1.002887  0.0
H  H59  1  0.93964601  0.27696904  0.93694845  1  0.107973  0.000443  0.111134  0.100883  0.000415  1.002907  0.0
H  H60  1  0.61055998  0.03891235  0.06744147  1  0.076288  -9.5e-05  0.105997  0.086067  -3.6e-05  0.972352  0.0
H  H61  1  0.38949371  0.53889992  0.43254160  1  0.076531  -9.5e-05  0.106056  0.086152  -3.6e-05  0.972214  0.0
H  H62  1  0.88941483  0.96114282  0.56744921  1  0.076647  9.5e-05  0.105986  0.086123  3.6e-05  0.972171  0.0
H  H63  1  0.11053956  0.46116286  0.93252958  1  0.076356  9.6e-05  0.105951  0.085951  3.6e-05  0.972467  0.0
H  H64  1  0.76003016  0.13791180  0.03649444  1  0.077129  -2.2e-05  0.11082  0.090659  -1.5e-05  0.985518  0.0
H  H65  1  0.24004417  0.63789941  0.46350022  1  0.077534  -2.2e-05  0.110833  0.090781  -1.5e-05  0.985758  0.0
H  H66  1  0.73994607  0.86214571  0.53650611  1  0.076957  2.2e-05  0.110801  0.090605  1.5e-05  0.98552  0.0
H  H67  1  0.25999098  0.36215908  0.96348228  1  0.077036  2.2e-05  0.110817  0.090719  1.5e-05  0.985978  0.0
H  H68  1  0.65914954  0.39969127  0.99070016  1  0.529927  -0.000648  0.307606  0.28871  -0.000483  1.004486  -0.001
H  H69  1  0.34093077  0.89965486  0.50929788  1  0.530467  -0.000647  0.307505  0.288353  -0.000484  1.004392  -0.001
H  H70  1  0.84083150  0.60036067  0.49070626  1  0.530502  0.000647  0.307603  0.28863  0.000483  1.004519  0.001
H  H71  1  0.15910836  0.10040431  0.00929778  1  0.530728  0.000647  0.307548  0.288451  0.000483  1.004195  0.001
H  H72  1  0.60903777  0.18413481  0.17799298  1  0.502851  9e-05  0.313322  0.283151  0.000113  0.965236  0.0
H  H73  1  0.39100336  0.68412574  0.32199064  1  0.502549  9e-05  0.313323  0.283202  0.000113  0.965549  0.0
H  H74  1  0.89097496  0.81594445  0.67799528  1  0.502918  -9.1e-05  0.313276  0.28294  -0.000113  0.965498  0.0
H  H75  1  0.10898431  0.31595797  0.82198458  1  0.502561  -9.1e-05  0.313308  0.28308  -0.000113  0.96573  0.0
C  C76  1  0.86370212  0.51122552  0.16221120  1  0.242878  -0.000821  -0.069493  -0.09859  -0.001242  3.88539  0.001
C  C77  1  0.13633942  0.01122125  0.33779914  1  0.239136  -0.000823  -0.069477  -0.098597  -0.001242  3.885336  0.001
C  C78  1  0.63630801  0.48875805  0.66219324  1  0.243655  0.000821  -0.069515  -0.098488  0.001243  3.885551  -0.001
C  C79  1  0.36366292  0.98877812  0.83781154  1  0.2402  0.000823  -0.069541  -0.098334  0.001244  3.885701  -0.001
C  C80  1  0.90943110  0.46191645  0.23703155  1  0.283431  -0.001351  -0.072574  -0.097889  -0.000811  3.911888  -0.001
C  C81  1  0.09060413  0.96191378  0.26297498  1  0.28334  -0.001351  -0.072458  -0.097968  -0.000811  3.911763  -0.001
C  C82  1  0.59061715  0.53803294  0.73702568  1  0.2842  0.001351  -0.072718  -0.098413  0.000811  3.912419  0.001
C  C83  1  0.40935239  0.03805031  0.76297856  1  0.284448  0.001351  -0.072665  -0.098649  0.000812  3.912318  0.001
C  C84  1  0.73990135  0.71990869  0.18725565  1  0.216053  -0.008136  -0.071089  -0.23077  -0.00665  3.904314  -0.005
C  C85  1  0.26012261  0.21992392  0.31275883  1  0.215845  -0.00813  -0.070825  -0.230507  -0.006646  3.903866  -0.005
C  C86  1  0.76011161  0.28006772  0.68718636  1  0.215789  0.008131  -0.070804  -0.23081  0.006648  3.904423  0.005
C  C87  1  0.23985824  0.78007967  0.81282570  1  0.215838  0.008137  -0.070644  -0.230727  0.006654  3.904537  0.005
C  C88  1  0.59303194  0.78313840  0.20732889  1  1.598565  0.000317  0.20516  0.609305  -0.000602  4.172861  0.002
C  C89  1  0.40697931  0.28315630  0.29267558  1  1.597925  0.00032  0.204983  0.609069  -0.0006  4.172929  0.002
C  C90  1  0.90695517  0.21684853  0.70730354  1  1.598854  -0.000316  0.20511  0.609243  0.000601  4.172365  -0.002
C  C91  1  0.09301201  0.71684754  0.79271147  1  1.598551  -0.000312  0.20508  0.609336  0.000604  4.172949  -0.002
C  C92  1  0.79247530  0.37514860  0.34525269  1  0.313416  -0.001097  -0.075381  -0.237984  -0.0006  3.981256  -0.001
C  C93  1  0.20753432  0.87514957  0.15474546  1  0.313032  -0.001098  -0.075425  -0.238153  -0.000601  3.981152  -0.001
C  C94  1  0.70762839  0.62480240  0.84524004  1  0.312945  0.001099  -0.075588  -0.238569  0.000601  3.981521  0.001
C  C95  1  0.29235030  0.12479726  0.65476226  1  0.312645  0.001101  -0.075657  -0.238716  0.000602  3.981692  0.001
C  C96  1  0.71078178  0.49612825  0.37247786  1  1.618085  0.001188  0.209384  0.612554  -0.000423  4.163282  0.002
C  C97  1  0.28920547  0.99614134  0.12752365  1  1.618582  0.001189  0.20949  0.612877  -0.00042  4.163161  0.002
C  C98  1  0.78929624  0.50381361  0.87245793  1  1.61567  -0.001188  0.209311  0.612681  0.000417  4.163249  -0.002
C  C99  1  0.21070812  0.00377745  0.62754698  1  1.592044  -0.001165  0.209688  0.612903  0.000416  4.163077  -0.002
C  C100  1  0.64854439  0.57464141  0.09194864  1  0.238468  -0.00195  -0.068465  -0.228446  -0.001842  3.88447  0.0
C  C101  1  0.35150312  0.07463630  0.40805821  1  0.237325  -0.00195  -0.068539  -0.228572  -0.001842  3.884117  0.0
C  C102  1  0.85149694  0.42539684  0.59193095  1  0.236958  0.001946  -0.068829  -0.229076  0.00184  3.88492  0.0
C  C103  1  0.14847352  0.92541798  0.90807950  1  0.237013  0.001947  -0.068783  -0.228843  0.00184  3.884941  0.0
C  C104  1  0.57408080  0.44225693  0.08947793  1  1.382877  -0.001004  0.239581  0.484726  -0.00234  4.088587  -0.001
C  C105  1  0.42597996  0.94226468  0.41051562  1  1.383338  -0.001006  0.239525  0.484503  -0.00234  4.088642  -0.001
C  C106  1  0.92595387  0.55778037  0.58947156  1  1.382468  0.001004  0.239579  0.484741  0.002339  4.088897  0.001
C  C107  1  0.07400663  0.05779446  0.91052880  1  1.383437  0.001007  0.239579  0.484782  0.002341  4.089031  0.001
C  C108  1  0.84130610  0.23001304  0.24656853  1  0.262235  -0.0001  -0.069287  -0.200419  -0.000113  3.910055  0.0
C  C109  1  0.15871169  0.73001493  0.25343178  1  0.262276  -0.0001  -0.069414  -0.20051  -0.000113  3.909844  0.0
C  C110  1  0.65872702  0.76994504  0.74656598  1  0.261704  0.0001  -0.069441  -0.200548  0.000113  3.909922  0.0
C  C111  1  0.34124239  0.26995417  0.75342818  1  0.262083  0.0001  -0.069678  -0.201033  0.000113  3.910062  0.0
C  C112  1  0.83071889  0.19586264  0.16575229  1  1.397987  -1e-05  0.229151  0.491777  -1.8e-05  4.117719  0.0
C  C113  1  0.16932273  0.69582772  0.33424869  1  1.398681  -1.1e-05  0.229099  0.491666  -1.8e-05  4.117405  0.0
C  C114  1  0.66929463  0.80413948  0.66575347  1  1.398128  1e-05  0.229121  0.491722  1.8e-05  4.117828  0.0
C  C115  1  0.33066305  0.30416289  0.83423785  1  1.398769  1e-05  0.229216  0.491779  1.8e-05  4.117423  0.0
C  C116  1  0.54299686  0.22991988  0.03278404  1  0.277276  -0.000281  -0.06042  -0.046157  -0.000348  3.881116  0.0
C  C117  1  0.45708573  0.72991340  0.46719398  1  0.276851  -0.000281  -0.060285  -0.045675  -0.000348  3.880755  0.0
C  C118  1  0.95698038  0.77013670  0.53277978  1  0.277975  0.000281  -0.060585  -0.046528  0.000347  3.881292  0.0
C  C119  1  0.04294731  0.27014994  0.96720188  1  0.277531  0.000282  -0.060531  -0.045958  0.000347  3.881139  0.0
C  C120  1  0.65699516  0.13848305  0.06750392  1  0.311014  -0.00024  -0.054097  -0.020595  -0.000166  3.89619  0.0
C  C121  1  0.34307699  0.63847382  0.43248748  1  0.310153  -0.00024  -0.054096  -0.020792  -0.000167  3.896526  0.0
C  C122  1  0.84298953  0.86156821  0.56750798  1  0.310042  0.000241  -0.053985  -0.020532  0.000167  3.896087  0.0
C  C123  1  0.15695078  0.36158212  0.93247715  1  0.310122  0.000241  -0.05398  -0.020525  0.000167  3.896669  0.0
N  N124  1  0.72220777  0.58343680  0.16387309  1  -0.983989  -0.091287  -0.341643  -0.071676  -0.061142  3.546487  -0.078
N  N125  1  0.27784450  0.08344065  0.33612938  1  -0.983082  -0.091296  -0.34157  -0.071725  -0.061152  3.546398  -0.079
N  N126  1  0.77782327  0.41656827  0.66385124  1  -0.983623  0.091259  -0.341277  -0.071424  0.061124  3.546917  0.078
N  N127  1  0.22215011  0.91657537  0.83616141  1  -0.98276  0.091301  -0.341442  -0.071759  0.061151  3.547186  0.079
N  N128  1  0.80481797  0.36557996  0.26622062  1  -1.038242  0.001314  -0.342614  -0.120549  0.000819  3.550449  0.0
N  N129  1  0.19522529  0.86558342  0.23377974  1  -1.038356  0.001317  -0.342592  -0.120467  0.000821  3.550153  0.0
N  N130  1  0.69524200  0.63437495  0.76620842  1  -1.038297  -0.001316  -0.342682  -0.120198  -0.000821  3.550555  0.0
N  N131  1  0.30472281  0.13437810  0.73379384  1  -1.037951  -0.001317  -0.342596  -0.119985  -0.000822  3.550447  0.0
N  N132  1  0.59357999  0.36511183  0.03268988  1  -1.257689  -0.00755  -0.397463  -0.305484  -0.004775  3.542173  -0.005
N  N133  1  0.40649840  0.86509568  0.46729961  1  -1.258003  -0.007561  -0.397305  -0.305166  -0.00478  3.541933  -0.005
N  N134  1  0.90641042  0.63495160  0.53269237  1  -1.257275  0.007558  -0.397401  -0.30548  0.004781  3.542764  0.005
N  N135  1  0.09353135  0.13497842  0.96730772  1  -1.258539  0.00756  -0.397118  -0.305198  0.004782  3.542736  0.005
N  N136  1  0.69295653  0.17641435  0.14134068  1  -1.237228  -6e-06  -0.420808  -0.344034  1.5e-05  3.564727  0.0
N  N137  1  0.30709635  0.67640764  0.35865330  1  -1.237683  -6e-06  -0.420902  -0.344236  1.4e-05  3.565103  0.0
N  N138  1  0.80704759  0.82362720  0.64134414  1  -1.237259  6e-06  -0.420634  -0.34365  -1.4e-05  3.564979  0.0
N  N139  1  0.19290761  0.32363746  0.85864167  1  -1.237678  6e-06  -0.420819  -0.344028  -1.4e-05  3.565112  0.0
O  O140  1  0.59893254  0.90756556  0.21433921  1  -1.089121  -0.094515  -0.329085  -0.520106  -0.061715  2.300344  -0.085
O  O141  1  0.40104549  0.40759507  0.28564686  1  -1.089253  -0.09457  -0.328985  -0.519987  -0.06175  2.300035  -0.085
O  O142  1  0.90102618  0.09240269  0.71432733  1  -1.089184  0.094556  -0.329149  -0.520195  0.061745  2.299773  0.085
O  O143  1  0.09895774  0.59241864  0.78567400  1  -1.089924  0.094566  -0.329067  -0.520156  0.061751  2.300119  0.085
O  O144  1  0.48236411  0.71163862  0.21619083  1  -1.191205  -0.00054  -0.314437  -0.577202  -7.2e-05  2.290411  -0.002
O  O145  1  0.51766060  0.21168121  0.28382096  1  -1.190527  -0.000535  -0.314406  -0.577157  -6.8e-05  2.29039  -0.002
O  O146  1  0.01763298  0.28834072  0.71616483  1  -1.191349  0.000541  -0.314379  -0.577105  7.3e-05  2.290459  0.002
O  O147  1  0.98233721  0.78832338  0.78385971  1  -1.190647  0.000545  -0.314442  -0.577176  7.4e-05  2.290611  0.002
O  O148  1  0.63935875  0.56706923  0.32700749  1  -1.134249  -0.093285  -0.322822  -0.519904  -0.061103  2.335061  -0.083
O  O149  1  0.36061376  0.06709669  0.17298906  1  -1.134194  -0.09331  -0.322802  -0.519957  -0.061114  2.334827  -0.083
O  O150  1  0.86072472  0.43287221  0.82698492  1  -1.13244  0.093366  -0.322553  -0.519686  0.061159  2.335228  0.083
O  O151  1  0.13926363  0.93285285  0.67301898  1  -1.109188  0.093327  -0.322745  -0.51991  0.061148  2.335323  0.083
O  O152  1  0.71460740  0.51869285  0.43958400  1  -1.210299  -0.018927  -0.32585  -0.561457  -0.01213  2.183885  -0.016
O  O153  1  0.28536527  0.01870720  0.06042143  1  -1.210117  -0.018942  -0.325941  -0.561569  -0.012139  2.183767  -0.016
O  O154  1  0.78545363  0.48122373  0.93956249  1  -1.20995  0.01893  -0.325978  -0.561739  0.012134  2.183756  0.016
O  O155  1  0.21458727  0.98116838  0.56044612  1  -1.209858  0.018925  -0.326121  -0.561667  0.01213  2.183478  0.016
O  O156  1  0.49758376  0.40890577  0.14434108  1  -1.114231  -0.072647  -0.314776  -0.494371  -0.047795  2.346343  -0.064
O  O157  1  0.50246462  0.90893949  0.35564662  1  -1.113991  -0.072637  -0.314768  -0.494207  -0.0478  2.34639  -0.064
O  O158  1  0.00246314  0.59111750  0.64432858  1  -1.114106  0.072598  -0.314725  -0.494226  0.047766  2.346323  0.064
O  O159  1  0.99750424  0.09110334  0.85567004  1  -1.114335  0.072585  -0.314758  -0.49424  0.04776  2.346664  0.064
O  O160  1  0.94387447  0.18440832  0.12790900  1  -1.178128  -2.5e-05  -0.329245  -0.532374  -4e-06  2.094772  0.0
O  O161  1  0.05617326  0.68435609  0.37210181  1  -1.178358  -2.5e-05  -0.329111  -0.532153  -4e-06  2.094308  0.0
O  O162  1  0.55612382  0.81557861  0.62791498  1  -1.178129  2.5e-05  -0.329221  -0.532386  5e-06  2.094667  0.0
O  O163  1  0.44382555  0.31561254  0.87208390  1  -1.178335  2.5e-05  -0.329251  -0.53231  5e-06  2.094282  0.0
