# generated using pymatgen
data_HgH3C5Br2NCl2
_symmetry_space_group_name_H-M   'P 1'
_cell_length_a   4.09784507
_cell_length_b   13.47694060
_cell_length_c   17.71070247
_cell_angle_alpha   90.00023578
_cell_angle_beta   89.99918762
_cell_angle_gamma   91.69603605
_symmetry_Int_Tables_number   1
_chemical_formula_structural   HgH3C5Br2NCl2
_chemical_formula_sum   'Hg4 H12 C20 Br8 N4 Cl8'
_cell_volume   977.67010285
_cell_formula_units_Z   4
loop_
 _symmetry_equiv_pos_site_id
 _symmetry_equiv_pos_as_xyz
  1  'x, y, z'
loop_
 _atom_site_type_symbol
 _atom_site_label
 _atom_site_symmetry_multiplicity
 _atom_site_fract_x
 _atom_site_fract_y
 _atom_site_fract_z
 _atom_site_occupancy
 _atom_site_pbe_bader_charge
 _atom_site_pbe_bader_spin_density
 _atom_site_pbe_cm5_charge
 _atom_site_pbe_ddec_charge
 _atom_site_pbe_ddec_spin_density
 _atom_site_pbe_ddec_sum_bond_order
 _atom_site_pbe_magmom
Hg  Hg0  1  0.88401906  0.55210652  0.26573523  1  0.666075  0  0.401197  0.450626  0  2.671292  0
Hg  Hg1  1  0.11602061  0.94789878  0.76573426  1  0.666204  0  0.401247  0.45062  0  2.671222  0
Hg  Hg2  1  0.11601907  0.44789280  0.73426298  1  0.666177  0  0.401233  0.450622  0  2.671182  0
Hg  Hg3  1  0.88400281  0.05209980  0.23426112  1  0.666069  0  0.401252  0.450636  0  2.671173  0
H  H4  1  0.67943533  0.77468770  0.18773178  1  0.131465  0  0.098256  0.098002  0  1.035701  0
H  H5  1  0.32053472  0.72531833  0.68772470  1  0.131703  0  0.098277  0.098061  0  1.035633  0
H  H6  1  0.32056576  0.22530717  0.81226643  1  0.131595  0  0.098148  0.097936  0  1.035388  0
H  H7  1  0.67945403  0.27467506  0.31227294  1  0.131741  0  0.098239  0.098053  0  1.035655  0
H  H8  1  0.04605229  0.80205913  0.95871311  1  0.140405  0  0.098244  0.138105  0  1.014403  0
H  H9  1  0.95392127  0.69793431  0.45871172  1  0.140572  0  0.098189  0.137986  0  1.014392  0
H  H10  1  0.95388128  0.19794390  0.04129075  1  0.140486  0  0.098235  0.138084  0  1.014237  0
H  H11  1  0.04609661  0.30205758  0.54128593  1  0.140652  0  0.098197  0.138028  0  1.014442  0
H  H12  1  0.19048563  0.54142684  0.09605571  1  0.123775  0  0.093599  0.081643  0  1.066378  0
H  H13  1  0.80954201  0.95858557  0.59604328  1  0.1246  0  0.093632  0.081641  0  1.066315  0
H  H14  1  0.80955433  0.45859104  0.90394249  1  0.12458  0  0.093608  0.081594  0  1.066031  0
H  H15  1  0.19046375  0.04140707  0.40395324  1  0.124474  0  0.093586  0.081553  0  1.066132  0
C  C16  1  0.81033864  0.74577877  0.13922905  1  0.542568  0  0.030354  0.011758  0  3.929693  0
C  C17  1  0.18963254  0.75422260  0.63922281  1  0.542251  0  0.030256  0.011521  0  3.929616  0
C  C18  1  0.18963405  0.25422500  0.86078158  1  0.542542  0  0.030379  0.011754  0  3.929643  0
C  C19  1  0.81036101  0.24577004  0.36077370  1  0.542071  0  0.030391  0.011583  0  3.929835  0
C  C20  1  0.84857137  0.80069644  0.07257585  1  0.115677  0  0.015871  0.12199  0  4.039959  0
C  C21  1  0.15139378  0.69930513  0.57257413  1  0.115731  0  0.015994  0.122277  0  4.039758  0
C  C22  1  0.15138453  0.19931031  0.92742405  1  0.116  0  0.016065  0.122268  0  4.040067  0
C  C23  1  0.84860229  0.30068825  0.42742408  1  0.116052  0  0.015967  0.122198  0  4.039819  0
C  C24  1  0.01403712  0.76096753  0.01128620  1  -0.03381  0  -0.085295  -0.171423  0  3.934253  0
C  C25  1  0.98591665  0.73902840  0.51128592  1  -0.03439  0  -0.085279  -0.171377  0  3.934207  0
C  C26  1  0.98592086  0.23903550  0.98870637  1  -0.033942  0  -0.085346  -0.171469  0  3.934294  0
C  C27  1  0.01407742  0.26096944  0.48871624  1  -0.034466  0  -0.0854  -0.171539  0  3.93416  0
C  C28  1  0.13778334  0.66626251  0.01960522  1  0.048099  0  0.013042  0.115861  0  4.059597  0
C  C29  1  0.86220519  0.83373803  0.51959864  1  0.048081  0  0.013042  0.115855  0  4.059608  0
C  C30  1  0.86220702  0.33374720  0.98039524  1  0.047628  0  0.01306  0.115764  0  4.059817  0
C  C31  1  0.13781299  0.16625683  0.48040295  1  0.048131  0  0.0132  0.115958  0  4.059356  0
C  C32  1  0.09500476  0.61521810  0.08762370  1  0.582045  0  0.024533  -0.002836  0  3.968974  0
C  C33  1  0.90501266  0.88479118  0.58761994  1  0.581803  0  0.024649  -0.002505  0  3.96899  0
C  C34  1  0.90505304  0.38478270  0.91237225  1  0.581724  0  0.024558  -0.002594  0  3.96887  0
C  C35  1  0.09497675  0.11520888  0.41237262  1  0.581772  0  0.024558  -0.002534  0  3.96892  0
Br  Br36  1  0.23649503  0.41143679  0.22671527  1  -0.364927  0  -0.203665  -0.299758  0  1.558665  0
Br  Br37  1  0.76354947  0.08856382  0.72672134  1  -0.3651  0  -0.203636  -0.29971  0  1.558742  0
Br  Br38  1  0.76353852  0.58856549  0.77327221  1  -0.365034  0  -0.203649  -0.299712  0  1.558597  0
Br  Br39  1  0.23648163  0.91143847  0.27328364  1  -0.364888  0  -0.20363  -0.299728  0  1.5587  0
Br  Br40  1  0.49686668  0.66255869  0.33455469  1  -0.368815  0  -0.197455  -0.277801  0  1.54787  0
Br  Br41  1  0.50311779  0.83741899  0.83454119  1  -0.368769  0  -0.197527  -0.277859  0  1.547798  0
Br  Br42  1  0.50314774  0.33742281  0.66545142  1  -0.368794  0  -0.197455  -0.277786  0  1.547828  0
Br  Br43  1  0.49692359  0.16258849  0.16546266  1  -0.368822  0  -0.197505  -0.277821  0  1.547825  0
N  N44  1  0.93323623  0.65507280  0.14532738  1  -1.217743  0  -0.309571  -0.167566  0  3.500587  0
N  N45  1  0.06675540  0.84493685  0.64531993  1  -1.217948  0  -0.309712  -0.167802  0  3.500701  0
N  N46  1  0.06678038  0.34493097  0.85467422  1  -1.218126  0  -0.309646  -0.167723  0  3.501011  0
N  N47  1  0.93323379  0.15506098  0.35468110  1  -1.218177  0  -0.309659  -0.167692  0  3.501255  0
Cl  Cl48  1  0.69003453  0.91738263  0.06616817  1  -0.180749  0  0.005468  -0.060808  0  1.689856  0
Cl  Cl49  1  0.30990573  0.58261511  0.56616921  1  -0.180667  0  0.005447  -0.060896  0  1.689847  0
Cl  Cl50  1  0.30987391  0.08261299  0.93383399  1  -0.180919  0  0.00538  -0.060955  0  1.68967  0
Cl  Cl51  1  0.69008560  0.41737976  0.43383125  1  -0.180557  0  0.005421  -0.060869  0  1.689838  0
Cl  Cl52  1  0.33893244  0.61181293  0.94580445  1  -0.184012  0  0.015425  -0.037783  0  1.725606  0
Cl  Cl53  1  0.66106601  0.88818769  0.44579756  1  -0.18408  0  0.015402  -0.037836  0  1.725618  0
Cl  Cl54  1  0.66107293  0.38820050  0.05419319  1  -0.184008  0  0.015431  -0.037768  0  1.725754  0
Cl  Cl55  1  0.33894722  0.11180643  0.55420008  1  -0.184007  0  0.015397  -0.037827  0  1.72572  0
