# generated using pymatgen
data_GdH14C24(NO3)2
_symmetry_space_group_name_H-M   'P 1'
_cell_length_a   12.55728897
_cell_length_b   14.20536817
_cell_length_c   14.83408216
_cell_angle_alpha   68.66532578
_cell_angle_beta   67.47369076
_cell_angle_gamma   78.08775958
_symmetry_Int_Tables_number   1
_chemical_formula_structural   GdH14C24(NO3)2
_chemical_formula_sum   'Gd4 H56 C96 N8 O24'
_cell_volume   2269.80812073
_cell_formula_units_Z   4
loop_
 _symmetry_equiv_pos_site_id
 _symmetry_equiv_pos_as_xyz
  1  'x, y, z'
loop_
 _atom_site_type_symbol
 _atom_site_label
 _atom_site_symmetry_multiplicity
 _atom_site_fract_x
 _atom_site_fract_y
 _atom_site_fract_z
 _atom_site_occupancy
 _atom_site_pbe_bader_charge
 _atom_site_pbe_bader_spin_density
 _atom_site_pbe_cm5_charge
 _atom_site_pbe_ddec_charge
 _atom_site_pbe_ddec_spin_density
 _atom_site_pbe_ddec_sum_bond_order
 _atom_site_pbe_magmom
Gd  Gd0  1  0.06394839  0.51869444  0.59656832  1  2.157655  0  1.466334  1.915585  0  2.290195  0
Gd  Gd1  1  0.93604929  0.48130488  0.40343213  1  2.157729  0  1.466359  1.915608  0  2.290175  0
Gd  Gd2  1  0.44767699  0.94616512  0.90524659  1  2.163202  0  1.497127  1.930068  0  2.355664  0
Gd  Gd3  1  0.55232408  0.05383494  0.09475386  1  2.163161  0  1.497126  1.930095  0  2.355745  0
H  H4  1  0.80097241  0.21594864  0.81056120  1  0.078728  0  0.106563  0.109771  0  1.025207  0
H  H5  1  0.19902654  0.78405599  0.18943499  1  0.078702  0  0.106557  0.109749  0  1.025199  0
H  H6  1  0.30577197  0.28906910  0.77453821  1  0.110816  0  0.110646  0.115593  0  1.007247  0
H  H7  1  0.69422816  0.71093172  0.22546296  1  0.110813  0  0.110645  0.115599  0  1.007238  0
H  H8  1  0.05732808  0.21353529  0.51765633  1  0.078944  0  0.106304  0.103813  0  1.021538  0
H  H9  1  0.94266935  0.78646708  0.48233978  1  0.078938  0  0.106302  0.103836  0  1.02155  0
H  H10  1  0.82022225  0.97832279  0.68851090  1  0.080488  0  0.106123  0.109362  0  1.000553  0
H  H11  1  0.17977995  0.02167423  0.31149225  1  0.08052  0  0.106112  0.109374  0  1.000561  0
H  H12  1  0.70461890  0.70476274  0.72693078  1  0.064591  0  0.105679  0.110774  0  1.015099  0
H  H13  1  0.29538395  0.29523657  0.27306800  1  0.064561  0  0.105641  0.110718  0  1.015167  0
H  H14  1  0.99297588  0.05092134  0.53801196  1  0.031076  0  0.097154  0.09314  0  1.020611  0
H  H15  1  0.00702552  0.94907494  0.46198901  1  0.031115  0  0.097158  0.093161  0  1.020586  0
H  H16  1  0.33579495  0.27238826  0.05997254  1  0.156819  0  0.110068  0.122721  0  1.034366  0
H  H17  1  0.66420691  0.72761257  0.94002671  1  0.156808  0  0.11006  0.122705  0  1.034361  0
H  H18  1  0.11213604  0.50915262  0.92460256  1  0.097454  0  0.107271  0.110293  0  0.995307  0
H  H19  1  0.88786244  0.49084745  0.07539805  1  0.097472  0  0.107286  0.110326  0  0.995302  0
H  H20  1  0.51604008  0.94568136  0.56132868  1  0.104562  0  0.103663  0.101666  0  1.036655  0
H  H21  1  0.48396086  0.05432022  0.43867197  1  0.10462  0  0.103675  0.101679  0  1.036639  0
H  H22  1  0.72763047  0.71762495  0.42569848  1  0.114942  0  0.112706  0.118925  0  1.000337  0
H  H23  1  0.27236788  0.28237665  0.57430098  1  0.114943  0  0.11269  0.118921  0  1.00035  0
H  H24  1  0.31981436  0.54843651  0.39014306  1  0.124951  0  0.123198  0.095514  0  1.008511  0
H  H25  1  0.68018684  0.45156203  0.60985990  1  0.124862  0  0.123213  0.09552  0  1.008533  0
H  H26  1  0.19888640  0.42748972  0.06348881  1  0.07746  0  0.100782  0.097533  0  1.021072  0
H  H27  1  0.80111367  0.57251186  0.93651144  1  0.077494  0  0.100792  0.097549  0  1.021076  0
H  H28  1  0.89534814  0.65464551  0.75137788  1  0.101362  0  0.122313  0.085868  0  1.011143  0
H  H29  1  0.10465035  0.34535456  0.24862206  1  0.10138  0  0.122306  0.085862  0  1.011198  0
H  H30  1  0.45947792  0.69400104  0.03036278  1  0.11286  0  0.121249  0.084328  0  1.014175  0
H  H31  1  0.54052050  0.30599980  0.96963692  1  0.112845  0  0.121251  0.084339  0  1.014133  0
H  H32  1  0.38852498  0.93151534  0.42309562  1  0.116592  0  0.106599  0.114331  0  1.036403  0
H  H33  1  0.61147529  0.06848396  0.57690602  1  0.116564  0  0.106595  0.114314  0  1.036413  0
H  H34  1  0.33684603  0.54602029  0.13230807  1  0.096539  0  0.112159  0.120388  0  0.980623  0
H  H35  1  0.66315238  0.45398054  0.86769230  1  0.096513  0  0.112146  0.120392  0  0.980637  0
H  H36  1  0.48140857  0.82121207  0.31176973  1  0.119677  0  0.116987  0.121007  0  1.0103  0
H  H37  1  0.51858997  0.17878724  0.68823315  1  0.119606  0  0.116986  0.121045  0  1.010316  0
H  H38  1  0.47974459  0.66236106  0.27548069  1  0.085324  0  0.106202  0.110502  0  1.013076  0
H  H39  1  0.52025568  0.33763824  0.72452163  1  0.0853  0  0.106194  0.110495  0  1.013073  0
H  H40  1  0.23323625  0.96387213  0.57690088  1  0.073185  0  0.103553  0.109265  0  1.000722  0
H  H41  1  0.76676316  0.03612717  0.42310104  1  0.073143  0  0.103551  0.109261  0  1.000705  0
H  H42  1  0.27457110  0.12458045  0.78579937  1  0.111728  0  0.121997  0.088125  0  1.014445  0
H  H43  1  0.72543089  0.87541886  0.21420036  1  0.111745  0  0.121984  0.088107  0  1.014452  0
H  H44  1  0.59930050  0.87982624  0.41054419  1  0.080411  0  0.102275  0.10371  0  1.019714  0
H  H45  1  0.40069764  0.12017762  0.58945455  1  0.080422  0  0.102286  0.103756  0  1.019686  0
H  H46  1  0.13221797  0.56686805  0.13189714  1  0.116348  0  0.118356  0.125819  0  1.010725  0
H  H47  1  0.86778137  0.43313203  0.86810184  1  0.116347  0  0.11836  0.125827  0  1.010716  0
H  H48  1  0.97931873  0.67443705  0.06695860  1  0.099105  0  0.103957  0.107731  0  1.051922  0
H  H49  1  0.02068068  0.32556228  0.93304062  1  0.099101  0  0.10395  0.107737  0  1.051949  0
H  H50  1  0.88822901  0.79599880  0.81695358  1  0.08759  0  0.108846  0.1154  0  1.007738  0
H  H51  1  0.11177020  0.20400279  0.18304560  1  0.087663  0  0.108855  0.115403  0  1.007755  0
H  H52  1  0.05124128  0.91109226  0.72651398  1  0.073514  0  0.103905  0.100896  0  1.024933  0
H  H53  1  0.94875807  0.08890781  0.27348567  1  0.073505  0  0.103915  0.100872  0  1.024925  0
H  H54  1  0.93991499  0.02321152  0.86466105  1  0.096869  0  0.106238  0.10922  0  1.027185  0
H  H55  1  0.06008528  0.97678781  0.13533586  1  0.096888  0  0.106228  0.109211  0  1.027247  0
H  H56  1  0.07576661  0.16241713  0.77397413  1  0.124398  0  0.106515  0.117523  0  1.031771  0
H  H57  1  0.92423539  0.83758220  0.22602358  1  0.124381  0  0.10651  0.117536  0  1.031789  0
H  H58  1  0.90614274  0.84216587  0.97169705  1  0.09271  0  0.107344  0.114721  0  0.992126  0
H  H59  1  0.09385747  0.15783422  0.02830030  1  0.092717  0  0.107366  0.114758  0  0.992137  0
C  C60  1  0.84194657  0.18071402  0.75001551  1  -0.04077  0  -0.074978  -0.113135  0  3.914346  0
C  C61  1  0.15805198  0.81928532  0.24998196  1  -0.04078  0  -0.074987  -0.113143  0  3.914281  0
C  C62  1  0.70091255  0.04553439  0.85030981  1  1.608205  0  0.232503  0.648815  0  4.161957  0
C  C63  1  0.29908421  0.95446571  0.14968730  1  1.608429  0  0.232447  0.648805  0  4.161877  0
C  C64  1  0.80143358  0.09196230  0.75871648  1  0.068863  0  -0.013575  -0.03371  0  3.964298  0
C  C65  1  0.19856490  0.90803778  0.24128345  1  0.068838  0  -0.01354  -0.03364  0  3.964279  0
C  C66  1  0.96756045  0.32674935  0.64450902  1  1.568145  0  0.22002  0.619109  0  4.166196  0
C  C67  1  0.03243810  0.67324998  0.35548980  1  1.567817  0  0.220016  0.619156  0  4.166218  0
C  C68  1  0.93148866  0.22605003  0.66163338  1  -0.073114  0  -0.009557  -0.023429  0  3.967888  0
C  C69  1  0.06850989  0.77394930  0.33836612  1  -0.073257  0  -0.009557  -0.023355  0  3.967936  0
C  C70  1  0.40473398  0.17397731  0.91770073  1  1.574386  0  0.23456  0.639026  0  4.169648  0
C  C71  1  0.59526530  0.82602355  0.08229463  1  1.574535  0  0.234673  0.639266  0  4.169691  0
C  C72  1  0.60602441  0.82992878  0.65160562  1  -0.005248  0  -0.018568  -0.030747  0  3.976866  0
C  C73  1  0.39397819  0.17007358  0.34839153  1  -0.005272  0  -0.018516  -0.030785  0  3.976986  0
C  C74  1  0.28295727  0.31873406  0.83823364  1  -0.086352  0  -0.073635  -0.107789  0  3.931889  0
C  C75  1  0.71704459  0.68126678  0.16176426  1  -0.086362  0  -0.073628  -0.107781  0  3.932041  0
C  C76  1  0.32886969  0.27034524  0.91741644  1  -0.029138  0  -0.019066  -0.052077  0  3.98798  0
C  C77  1  0.67113224  0.72965483  0.08258373  1  -0.029119  0  -0.019038  -0.052119  0  3.988108  0
C  C78  1  0.98640428  0.17855336  0.58568876  1  -0.033357  0  -0.08096  -0.099803  0  3.963601  0
C  C79  1  0.01359705  0.82144368  0.41431129  1  -0.033292  0  -0.08095  -0.099909  0  3.963656  0
C  C80  1  0.14177706  0.74558901  0.58807079  1  0.491778  0  0.126625  0.142691  0  3.972944  0
C  C81  1  0.85822400  0.25441105  0.41193034  1  0.492725  0  0.126658  0.142745  0  3.972925  0
C  C82  1  0.23634391  0.72298048  0.50369883  1  0.551934  0  0.124637  0.132286  0  3.972928  0
C  C83  1  0.76365543  0.27701958  0.49630353  1  0.55123  0  0.124632  0.132292  0  3.972973  0
C  C84  1  0.85416928  0.04642657  0.68117536  1  -0.098456  0  -0.083066  -0.101769  0  3.981453  0
C  C85  1  0.14582927  0.95357275  0.31882414  1  -0.098447  0  -0.083018  -0.101769  0  3.981604  0
C  C86  1  0.15342904  0.44976377  0.75756201  1  1.559022  0  0.188741  0.569536  0  4.231225  0
C  C87  1  0.84656950  0.55023555  0.24243816  1  1.559067  0  0.188758  0.5696  0  4.231101  0
C  C88  1  0.68171876  0.74225229  0.65769413  1  -0.00325  0  -0.075036  -0.100417  0  3.930463  0
C  C89  1  0.31828230  0.25774779  0.34230430  1  -0.003246  0  -0.074921  -0.100213  0  3.930444  0
C  C90  1  0.94919864  0.08780575  0.59693049  1  -0.011244  0  -0.092431  -0.087283  0  4.040506  0
C  C91  1  0.05080256  0.91219280  0.40306976  1  -0.011214  0  -0.092474  -0.087298  0  4.040542  0
C  C92  1  0.20571094  0.40467133  0.84060315  1  -0.008234  0  -0.013485  -0.01962  0  3.974009  0
C  C93  1  0.79429000  0.59533025  0.15939682  1  -0.008279  0  -0.013547  -0.019692  0  3.974062  0
C  C94  1  0.80335283  0.60631869  0.58029398  1  1.563245  0  0.228693  0.632619  0  4.162016  0
C  C95  1  0.19664638  0.39368291  0.41970385  1  1.56326  0  0.22868  0.6326  0  4.161897  0
C  C96  1  0.55384377  0.87079218  0.73999203  1  1.537377  0  0.188958  0.56908  0  4.225183  0
C  C97  1  0.44615809  0.12920864  0.26000790  1  1.537358  0  0.188878  0.568961  0  4.2254  0
C  C98  1  0.29966766  0.31051258  0.99829613  1  -0.111435  0  -0.080836  -0.101707  0  3.946968  0
C  C99  1  0.70033420  0.68948825  0.00170177  1  -0.111059  0  -0.080842  -0.101674  0  3.946952  0
C  C100  1  0.18133673  0.89883703  0.92147358  1  0.503184  0  0.125244  0.137359  0  3.961266  0
C  C101  1  0.81866527  0.10116230  0.07852277  1  0.503158  0  0.125278  0.13731  0  3.961166  0
C  C102  1  0.72473996  0.70194039  0.57634050  1  0.005446  0  -0.020201  -0.054763  0  3.975078  0
C  C103  1  0.27525839  0.29806120  0.42365896  1  0.005455  0  -0.020209  -0.054821  0  3.975172  0
C  C104  1  0.17436553  0.44322292  0.92259616  1  -0.073873  0  -0.076522  -0.087801  0  3.954645  0
C  C105  1  0.82563381  0.55677715  0.07740417  1  -0.073881  0  -0.076536  -0.087868  0  3.954703  0
C  C106  1  0.22327901  0.80116819  0.97731505  1  0.469145  0  0.125336  0.138004  0  3.966322  0
C  C107  1  0.77672133  0.19883037  0.02268413  1  0.469134  0  0.125346  0.138012  0  3.966369  0
C  C108  1  0.32498134  0.79109464  0.44524191  1  -0.077613  0  0.002876  0.050241  0  3.986325  0
C  C109  1  0.67501979  0.20890466  0.55475945  1  -0.077611  0  0.002888  0.050262  0  3.986297  0
C  C110  1  0.57654768  0.87867986  0.56271128  1  -0.102212  0  -0.07871  -0.083358  0  3.960843  0
C  C111  1  0.42345252  0.12132022  0.43728742  1  -0.102172  0  -0.07875  -0.083356  0  3.960851  0
C  C112  1  0.69409630  0.75134546  0.48753116  1  -0.110793  0  -0.07314  -0.073053  0  3.927147  0
C  C113  1  0.30590284  0.24865690  0.51246711  1  -0.110814  0  -0.07318  -0.07307  0  3.927194  0
C  C114  1  0.32262886  0.61829730  0.40328470  1  0.563815  0  0.065474  0.128445  0  3.935352  0
C  C115  1  0.67737233  0.38170123  0.59671893  1  0.564296  0  0.06542  0.128399  0  3.935455  0
C  C116  1  0.22269343  0.39678798  0.00027650  1  -0.031702  0  -0.090782  -0.087417  0  4.024389  0
C  C117  1  0.77730677  0.60321209  0.99972423  1  -0.032126  0  -0.090786  -0.087412  0  4.024397  0
C  C118  1  0.96520117  0.70484885  0.71556846  1  0.517839  0  0.061995  0.127471  0  3.956464  0
C  C119  1  0.03479818  0.29515123  0.28443119  1  0.517793  0  0.06194  0.127375  0  3.956473  0
C  C120  1  0.14373730  0.83081194  0.61622515  1  0.007938  0  -0.002958  0.041425  0  4.005341  0
C  C121  1  0.85626303  0.16918660  0.38377741  1  0.008131  0  -0.002965  0.041339  0  4.005537  0
C  C122  1  0.06675704  0.91239148  0.91932420  1  -0.053004  0  -0.002544  0.038695  0  4.013408  0
C  C123  1  0.93324409  0.08760785  0.08067311  1  -0.052995  0  -0.002547  0.038835  0  4.013203  0
C  C124  1  0.14871130  0.72098263  0.02988028  1  0.012024  0  0.003141  0.049705  0  3.981642  0
C  C125  1  0.85128811  0.27901671  0.97011759  1  0.012059  0  0.003119  0.049668  0  3.981683  0
C  C126  1  0.37091830  0.69957424  0.03182371  1  0.515664  0  0.063462  0.12157  0  3.95989  0
C  C127  1  0.62908098  0.30042659  0.96817638  1  0.515651  0  0.063468  0.121576  0  3.959877  0
C  C128  1  0.32119119  0.87915286  0.47220591  1  -0.025844  0  -0.078595  -0.111768  0  3.97137  0
C  C129  1  0.67880828  0.12084569  0.52779692  1  -0.025846  0  -0.078597  -0.11172  0  3.97124  0
C  C130  1  0.30214012  0.61676040  0.08811020  1  -0.042765  0  -0.082425  -0.136676  0  3.983566  0
C  C131  1  0.69785922  0.38323969  0.91188878  1  -0.04278  0  -0.08241  -0.136705  0  3.983586  0
C  C132  1  0.41401541  0.76912628  0.36056965  1  -0.007979  0  -0.055133  -0.058626  0  3.898457  0
C  C133  1  0.58598493  0.23087227  0.63943290  1  -0.007593  0  -0.055096  -0.058646  0  3.898436  0
C  C134  1  0.41250608  0.68231394  0.33985093  1  -0.07439  0  -0.081116  -0.123356  0  3.968775  0
C  C135  1  0.58749426  0.31768461  0.66015028  1  -0.075147  0  -0.081074  -0.123307  0  3.96882  0
C  C136  1  0.23514491  0.89718854  0.55598191  1  -0.095741  0  -0.085979  -0.125573  0  3.985939  0
C  C137  1  0.76485616  0.10281152  0.44401921  1  -0.096079  0  -0.086037  -0.125662  0  3.986062  0
C  C138  1  0.21443822  0.06548005  0.82158998  1  0.527148  0  0.062824  0.122293  0  3.943354  0
C  C139  1  0.78556285  0.93452002  0.17840979  1  0.527111  0  0.062853  0.122317  0  3.943331  0
C  C140  1  0.62173098  0.84053652  0.48000875  1  -0.027815  0  -0.093287  -0.099359  0  4.024018  0
C  C141  1  0.37826830  0.15946432  0.51998999  1  -0.027754  0  -0.093277  -0.099417  0  4.023967  0
C  C142  1  0.19049076  0.62750858  0.08742202  1  -0.042983  0  -0.053296  -0.055858  0  3.900085  0
C  C143  1  0.80950858  0.37249150  0.91257764  1  -0.042962  0  -0.053322  -0.055862  0  3.900079  0
C  C144  1  0.03420700  0.73732522  0.02563441  1  -0.025331  0  -0.080059  -0.10505  0  3.959451  0
C  C145  1  0.96579327  0.26267412  0.97436250  1  -0.025918  0  -0.080078  -0.105066  0  3.959537  0
C  C146  1  0.96162514  0.78469345  0.75142267  1  -0.055376  0  -0.08426  -0.132837  0  3.978915  0
C  C147  1  0.03837347  0.21530511  0.24857841  1  -0.055347  0  -0.084246  -0.132827  0  3.978965  0
C  C148  1  0.05134876  0.84761628  0.70177751  1  0.02217  0  -0.064285  -0.070259  0  3.936957  0
C  C149  1  0.94864892  0.15238303  0.29822429  1  0.022161  0  -0.064233  -0.07008  0  3.936882  0
C  C150  1  0.02840112  0.00949141  0.86516238  1  -0.002341  0  -0.065906  -0.076991  0  3.923372  0
C  C151  1  0.97160002  0.99050791  0.13483696  1  -0.002414  0  -0.065903  -0.077027  0  3.923496  0
C  C152  1  0.10276014  0.08615464  0.81517251  1  -0.068623  0  -0.082375  -0.125243  0  3.96432  0
C  C153  1  0.89724272  0.91384469  0.18482492  1  -0.06857  0  -0.082404  -0.1253  0  3.96447  0
C  C154  1  0.99450359  0.82949467  0.97267358  1  -0.03393  0  -0.085082  -0.125593  0  3.992402  0
C  C155  1  0.00549754  0.17050467  0.02732306  1  -0.033362  0  -0.085094  -0.125689  0  3.992425  0
N  N156  1  0.23585616  0.63761443  0.48261218  1  -1.240131  0  -0.351906  -0.34673  0  3.467675  0
N  N157  1  0.76414411  0.36238487  0.51739014  1  -1.240185  0  -0.351942  -0.346772  0  3.467707  0
N  N158  1  0.05259840  0.68498180  0.63687357  1  -1.246017  0  -0.368408  -0.366328  0  3.503851  0
N  N159  1  0.94740101  0.31501751  0.36312767  1  -1.246028  0  -0.368398  -0.366295  0  3.503762  0
N  N160  1  0.25261044  0.97557517  0.87392387  1  -1.243301  0  -0.366687  -0.346798  0  3.478416  0
N  N161  1  0.74739062  0.02442490  0.12607591  1  -1.243229  0  -0.366681  -0.346747  0  3.478329  0
N  N162  1  0.33293878  0.78935969  0.97888489  1  -1.242258  0  -0.376066  -0.36437  0  3.49696  0
N  N163  1  0.66706149  0.21063963  0.02111473  1  -1.242231  0  -0.376067  -0.364352  0  3.497001  0
O  O164  1  0.05044970  0.49161306  0.77796958  1  -1.195015  0  -0.366732  -0.624303  0  2.213741  0
O  O165  1  0.94954799  0.50838626  0.22203155  1  -1.195002  0  -0.366747  -0.624297  0  2.213655  0
O  O166  1  0.69700816  0.04320386  0.93810009  1  -1.193396  0  -0.392351  -0.669845  0  2.309909  0
O  O167  1  0.30299602  0.95679996  0.06190278  1  -1.193596  0  -0.392228  -0.669698  0  2.310322  0
O  O168  1  0.62797243  0.01130730  0.83260009  1  -1.196409  0  -0.391854  -0.64672  0  2.326252  0
O  O169  1  0.37203102  0.98869500  0.16740489  1  -1.196403  0  -0.391899  -0.646842  0  2.325711  0
O  O170  1  0.97039970  0.39606133  0.55903798  1  -1.216717  0  -0.426813  -0.726306  0  2.502375  0
O  O171  1  0.02959951  0.60394026  0.44096187  1  -1.216657  0  -0.426781  -0.726232  0  2.502301  0
O  O172  1  0.57214589  0.82157239  0.82448900  1  -1.181405  0  -0.378349  -0.62309  0  2.222814  0
O  O173  1  0.42785511  0.17842843  0.17551121  1  -1.181366  0  -0.378337  -0.623021  0  2.222807  0
O  O174  1  0.80724965  0.56179202  0.51851942  1  -1.182798  0  -0.393297  -0.637809  0  2.388711  0
O  O175  1  0.19274956  0.43820958  0.48147909  1  -1.182756  0  -0.393314  -0.637823  0  2.388562  0
O  O176  1  0.86126680  0.57689561  0.64154710  1  -1.188733  0  -0.38307  -0.650859  0  2.229529  0
O  O177  1  0.13873334  0.42310524  0.35845068  1  -1.188801  0  -0.383073  -0.650864  0  2.229548  0
O  O178  1  0.48979428  0.95457579  0.72977458  1  -1.188937  0  -0.391321  -0.637275  0  2.19454  0
O  O179  1  0.51020679  0.04542427  0.27022587  1  -1.18895  0  -0.391298  -0.637243  0  2.19457  0
O  O180  1  0.46814959  0.14567454  0.97350278  1  -1.200916  0  -0.405634  -0.68014  0  2.401583  0
O  O181  1  0.53185313  0.85432625  0.02650160  1  -1.201008  0  -0.405658  -0.680198  0  2.402022  0
O  O182  1  0.99647834  0.34368538  0.70959588  1  -1.172776  0  -0.338432  -0.584217  0  2.173701  0
O  O183  1  0.00351782  0.65631167  0.29040652  1  -1.17254  0  -0.338457  -0.584329  0  2.173784  0
O  O184  1  0.21296898  0.44254225  0.66818759  1  -1.162018  0  -0.39507  -0.621211  0  2.193153  0
O  O185  1  0.78702877  0.55745631  0.33181310  1  -1.162036  0  -0.395052  -0.621215  0  2.193133  0
O  O186  1  0.40039374  0.12412669  0.86318484  1  -1.193508  0  -0.379387  -0.640944  0  2.309353  0
O  O187  1  0.59960905  0.87587336  0.13681775  1  -1.193566  0  -0.379437  -0.641088  0  2.309048  0
