# generated using pymatgen
data_CuH4C6N5
_symmetry_space_group_name_H-M   'P 1'
_cell_length_a   4.94261553
_cell_length_b   9.93963630
_cell_length_c   17.05728190
_cell_angle_alpha   90.00032870
_cell_angle_beta   90.00015641
_cell_angle_gamma   103.39004477
_symmetry_Int_Tables_number   1
_chemical_formula_structural   CuH4C6N5
_chemical_formula_sum   'Cu4 H16 C24 N20'
_cell_volume   815.20702310
_cell_formula_units_Z   4
loop_
 _symmetry_equiv_pos_site_id
 _symmetry_equiv_pos_as_xyz
  1  'x, y, z'
loop_
 _atom_site_type_symbol
 _atom_site_label
 _atom_site_symmetry_multiplicity
 _atom_site_fract_x
 _atom_site_fract_y
 _atom_site_fract_z
 _atom_site_occupancy
 _atom_site_hle17_bader_spin_density
 _atom_site_hle17_ddec_charge
 _atom_site_hle17_ddec_spin_density
 _atom_site_hle17_ddec_sum_bond_order
 _atom_site_hle17_magmom
 _atom_site_hse06_10hf_bader_spin_density
 _atom_site_hse06_10hf_ddec_charge
 _atom_site_hse06_10hf_ddec_spin_density
 _atom_site_hse06_10hf_ddec_sum_bond_order
 _atom_site_hse06_10hf_magmom
 _atom_site_hse06_bader_spin_density
 _atom_site_hse06_ddec_charge
 _atom_site_hse06_ddec_spin_density
 _atom_site_hse06_ddec_sum_bond_order
 _atom_site_hse06_magmom
 _atom_site_pbe_bader_spin_density
 _atom_site_pbe_cm5_charge
 _atom_site_pbe_ddec_charge
 _atom_site_pbe_ddec_spin_density
 _atom_site_pbe_ddec_sum_bond_order
 _atom_site_pbe_magmom
Cu  Cu0  1  0.65303574  0.41427698  0.43416569  1  0  0.388082  0  1.850598  0  0  0.236219  0  2.333685  0  0  0.23909  0  2.288443  0  0  0.554678  0.23839  0  2.362532  0
Cu  Cu1  1  0.34696218  0.08573307  0.93415785  1  0  0.388045  0  1.850415  0  0  0.236105  0  2.333525  0  0  0.238968  0  2.28828  0  0  0.554583  0.238287  0  2.36236  0
Cu  Cu2  1  0.34695412  0.58572982  0.56584077  1  0  0.388072  0  1.850419  0  0  0.23611  0  2.333511  0  0  0.238986  0  2.288268  0  0  0.554573  0.238278  0  2.362362  0
Cu  Cu3  1  0.65304977  0.91427277  0.06584450  1  0  0.387999  0  1.850649  0  0  0.236129  0  2.333706  0  0  0.23899  0  2.288464  0  0  0.554613  0.238306  0  2.362554  0
H  H4  1  0.01761274  0.71910957  0.07756109  1  0  0.080452  0  0.932563  0  0  0.088733  0  0.996259  0  0  0.093037  0  0.990715  0  0  0.115989  0.085458  0  1.000484  0
H  H5  1  0.98240470  0.78090268  0.57756520  1  0  0.080447  0  0.932445  0  0  0.088824  0  0.996041  0  0  0.093109  0  0.990524  0  0  0.115999  0.085554  0  1.000269  0
H  H6  1  0.98241448  0.28090006  0.92243717  1  0  0.08042  0  0.932407  0  0  0.088778  0  0.996031  0  0  0.09307  0  0.990499  0  0  0.11598  0.085501  0  1.000265  0
H  H7  1  0.01756476  0.21911125  0.42243891  1  0  0.080396  0  0.932475  0  0  0.088766  0  0.996092  0  0  0.093068  0  0.990557  0  0  0.115966  0.085492  0  1.000324  0
H  H8  1  0.25692954  0.62232183  0.18620636  1  0  0.114708  0  0.940614  0  0  0.125818  0  0.996754  0  0  0.129007  0  0.996122  0  0  0.112272  0.12358  0  0.997299  0
H  H9  1  0.74309578  0.87768502  0.68621598  1  0  0.11471  0  0.940613  0  0  0.125827  0  0.996741  0  0  0.129018  0  0.996104  0  0  0.112296  0.123594  0  0.99728  0
H  H10  1  0.74309073  0.37767731  0.81378720  1  0  0.114781  0  0.940538  0  0  0.125882  0  0.99667  0  0  0.129069  0  0.996041  0  0  0.112324  0.123647  0  0.997212  0
H  H11  1  0.25688272  0.12231006  0.31379751  1  0  0.114721  0  0.940638  0  0  0.125844  0  0.996754  0  0  0.129031  0  0.996122  0  0  0.112324  0.12361  0  0.997293  0
H  H12  1  0.87572438  0.85435172  0.34912423  1  0  0.116147  0  0.926572  0  0  0.129585  0  0.977929  0  0  0.132592  0  0.97755  0  0  0.113226  0.127394  0  0.978444  0
H  H13  1  0.12427728  0.64564376  0.84913491  1  0  0.116113  0  0.926457  0  0  0.12954  0  0.97784  0  0  0.132547  0  0.97746  0  0  0.11314  0.127347  0  0.978356  0
H  H14  1  0.12427396  0.14563416  0.65086641  1  0  0.116068  0  0.926522  0  0  0.129506  0  0.977878  0  0  0.132513  0  0.9775  0  0  0.113144  0.127316  0  0.978392  0
H  H15  1  0.87569931  0.35433700  0.15086159  1  0  0.116101  0  0.92634  0  0  0.129551  0  0.977711  0  0  0.132563  0  0.977319  0  0  0.113169  0.127358  0  0.978226  0
H  H16  1  0.65219384  0.94267570  0.23410754  1  0  0.07767  0  0.963736  0  0  0.079754  0  1.038976  0  0  0.082976  0  1.03619  0  0  0.110968  0.077394  0  1.040961  0
H  H17  1  0.34778237  0.55731111  0.73411436  1  0  0.077662  0  0.963813  0  0  0.079779  0  1.039028  0  0  0.082996  0  1.036254  0  0  0.111031  0.077421  0  1.041008  0
H  H18  1  0.34781245  0.05730955  0.76588661  1  0  0.077617  0  0.963732  0  0  0.079726  0  1.038963  0  0  0.082944  0  1.036188  0  0  0.110993  0.077368  0  1.040943  0
H  H19  1  0.65215791  0.44267804  0.26588037  1  0  0.077753  0  0.963646  0  0  0.079865  0  1.038865  0  0  0.083084  0  1.036092  0  0  0.110978  0.077505  0  1.040845  0
C  C20  1  0.21537609  0.67376559  0.34105619  1  0  0.226495  0  3.819123  0  0  0.211847  0  4.090838  0  0  0.215771  0  4.109644  0  0  0.203211  0.209285  0  4.078132  0
C  C21  1  0.78464812  0.82624491  0.84105911  1  0  0.226377  0  3.819087  0  0  0.211851  0  4.090667  0  0  0.215775  0  4.109472  0  0  0.20313  0.209288  0  4.077959  0
C  C22  1  0.78464524  0.32624476  0.65894207  1  0  0.226328  0  3.818947  0  0  0.211747  0  4.09063  0  0  0.21567  0  4.109437  0  0  0.2031  0.209186  0  4.077924  0
C  C23  1  0.21533728  0.17373831  0.15894559  1  0  0.226502  0  3.819216  0  0  0.211867  0  4.090852  0  0  0.215788  0  4.109664  0  0  0.203186  0.209306  0  4.078146  0
C  C24  1  0.99229378  0.74637930  0.13864304  1  0  0.107754  0  3.717948  0  0  0.080812  0  3.964394  0  0  0.087848  0  3.979263  0  0  0.035903  0.075785  0  3.955804  0
C  C25  1  0.00771646  0.75362826  0.63865042  1  0  0.107549  0  3.717793  0  0  0.080504  0  3.964239  0  0  0.087557  0  3.979113  0  0  0.035891  0.075444  0  3.955698  0
C  C26  1  0.00772173  0.25362468  0.86135052  1  0  0.107698  0  3.718081  0  0  0.080676  0  3.964516  0  0  0.087728  0  3.979388  0  0  0.035902  0.075634  0  3.955941  0
C  C27  1  0.99226189  0.24638102  0.36135135  1  0  0.107694  0  3.718  0  0  0.080664  0  3.964493  0  0  0.087696  0  3.979366  0  0  0.035868  0.075615  0  3.955927  0
C  C28  1  0.12502670  0.69343809  0.19884096  1  0  -0.146836  0  3.720655  0  0  -0.16689  0  3.968307  0  0  -0.174467  0  3.989189  0  0  -0.081196  -0.16213  0  3.954784  0
C  C29  1  0.87500953  0.80657538  0.69885211  1  0  -0.146669  0  3.720844  0  0  -0.166708  0  3.968522  0  0  -0.17428  0  3.989398  0  0  -0.081189  -0.161936  0  3.954974  0
C  C30  1  0.87499095  0.30655888  0.80115612  1  0  -0.146869  0  3.720841  0  0  -0.166848  0  3.968512  0  0  -0.174423  0  3.989391  0  0  -0.081231  -0.162089  0  3.954989  0
C  C31  1  0.12500534  0.19343364  0.30116021  1  0  -0.146861  0  3.721069  0  0  -0.166957  0  3.968733  0  0  -0.174532  0  3.989612  0  0  -0.081288  -0.162186  0  3.955191  0
C  C32  1  0.08598076  0.73127569  0.27662309  1  0  0.071205  0  3.769022  0  0  0.083669  0  4.000824  0  0  0.089234  0  4.020988  0  0  0.017545  0.079456  0  3.987742  0
C  C33  1  0.91404802  0.76873274  0.77663053  1  0  0.071234  0  3.769374  0  0  0.083619  0  4.00118  0  0  0.089184  0  4.021345  0  0  0.017563  0.079415  0  3.988093  0
C  C34  1  0.91402921  0.26872295  0.72336872  1  0  0.071299  0  3.768953  0  0  0.083625  0  4.000866  0  0  0.089192  0  4.02103  0  0  0.017553  0.079416  0  3.987782  0
C  C35  1  0.08596829  0.23125198  0.22337593  1  0  0.071026  0  3.769616  0  0  0.083575  0  4.001253  0  0  0.089142  0  4.021418  0  0  0.017495  0.079363  0  3.988168  0
C  C36  1  0.91406086  0.82315419  0.28972766  1  0  -0.130997  0  3.689232  0  0  -0.153534  0  3.937985  0  0  -0.160963  0  3.958858  0  0  -0.078219  -0.149308  0  3.924766  0
C  C37  1  0.08594522  0.67684916  0.78973822  1  0  -0.130938  0  3.689093  0  0  -0.153424  0  3.937854  0  0  -0.160852  0  3.958726  0  0  -0.078118  -0.1492  0  3.924633  0
C  C38  1  0.08593505  0.17683766  0.71026766  1  0  -0.131013  0  3.689275  0  0  -0.153475  0  3.93803  0  0  -0.160904  0  3.958907  0  0  -0.078157  -0.149253  0  3.92481  0
C  C39  1  0.91407642  0.32313278  0.21026531  1  0  -0.130567  0  3.689011  0  0  -0.153109  0  3.937682  0  0  -0.160539  0  3.958568  0  0  -0.077976  -0.148882  0  3.924457  0
C  C40  1  0.78861366  0.87162420  0.22643969  1  0  0.123411  0  3.69063  0  0  0.0935  0  3.944997  0  0  0.099736  0  3.962489  0  0  0.038354  0.089753  0  3.933555  0
C  C41  1  0.21137245  0.62836083  0.72644565  1  0  0.123325  0  3.690586  0  0  0.093332  0  3.944992  0  0  0.099573  0  3.962489  0  0  0.03827  0.089589  0  3.933544  0
C  C42  1  0.21138140  0.12836456  0.77355563  1  0  0.123457  0  3.690571  0  0  0.093497  0  3.944955  0  0  0.099738  0  3.962448  0  0  0.038322  0.089749  0  3.933511  0
C  C43  1  0.78859618  0.37162056  0.27355026  1  0  0.122995  0  3.690154  0  0  0.093037  0  3.944588  0  0  0.099273  0  3.962086  0  0  0.038254  0.089293  0  3.93314  0
N  N44  1  0.37722494  0.58244193  0.33096380  1  0  -0.269619  0  2.958917  0  0  -0.249479  0  3.231962  0  0  -0.258529  0  3.248382  0  0  -0.208429  -0.242826  0  3.22065  0
N  N45  1  0.62280983  0.91757863  0.83096833  1  0  -0.269561  0  2.958975  0  0  -0.249483  0  3.232035  0  0  -0.258535  0  3.248454  0  0  -0.208335  -0.242831  0  3.220726  0
N  N46  1  0.62279546  0.41757245  0.66903446  1  0  -0.269529  0  2.958889  0  0  -0.249412  0  3.231945  0  0  -0.25846  0  3.248363  0  0  -0.208357  -0.24276  0  3.220635  0
N  N47  1  0.37719510  0.08242382  0.16903813  1  0  -0.269484  0  2.958915  0  0  -0.249369  0  3.231966  0  0  -0.258419  0  3.248388  0  0  -0.208374  -0.242717  0  3.220659  0
N  N48  1  0.44534523  0.55185802  0.40281592  1  0  -0.085645  0  3.311102  0  0  -0.03465  0  3.639835  0  0  -0.034212  0  3.640968  0  0  -0.163446  -0.035822  0  3.639834  0
N  N49  1  0.55467160  0.94815399  0.90282023  1  0  -0.085795  0  3.311334  0  0  -0.034791  0  3.640064  0  0  -0.034348  0  3.641186  0  0  -0.163584  -0.035965  0  3.640075  0
N  N50  1  0.55467630  0.44816048  0.59718526  1  0  -0.0858  0  3.311273  0  0  -0.034807  0  3.640023  0  0  -0.034366  0  3.64115  0  0  -0.163585  -0.035977  0  3.640023  0
N  N51  1  0.44532011  0.05184477  0.09718741  1  0  -0.085898  0  3.311101  0  0  -0.034901  0  3.639848  0  0  -0.034463  0  3.640976  0  0  -0.163591  -0.036073  0  3.639862  0
N  N52  1  0.32835476  0.62322975  0.45550778  1  0  -0.10025  0  3.363803  0  0  -0.045771  0  3.701499  0  0  -0.044774  0  3.698726  0  0  -0.174284  -0.047555  0  3.704275  0
N  N53  1  0.67164153  0.87678063  0.95551210  1  0  -0.099964  0  3.363812  0  0  -0.045487  0  3.701493  0  0  -0.044487  0  3.698714  0  0  -0.174215  -0.047275  0  3.704287  0
N  N54  1  0.67166024  0.37679452  0.54449047  1  0  -0.100111  0  3.36396  0  0  -0.04566  0  3.701703  0  0  -0.044661  0  3.698925  0  0  -0.174314  -0.047446  0  3.704482  0
N  N55  1  0.32834251  0.12321979  0.04449495  1  0  -0.100027  0  3.363543  0  0  -0.045564  0  3.701238  0  0  -0.044562  0  3.698461  0  0  -0.174202  -0.047352  0  3.704029  0
N  N56  1  0.18373533  0.70072949  0.41782191  1  0  -0.285169  0  2.916807  0  0  -0.272043  0  3.189023  0  0  -0.277593  0  3.197715  0  0  -0.222007  -0.267819  0  3.183232  0
N  N57  1  0.81628427  0.79928710  0.91782723  1  0  -0.285269  0  2.916644  0  0  -0.272175  0  3.188829  0  0  -0.277726  0  3.197518  0  0  -0.221988  -0.267954  0  3.183047  0
N  N58  1  0.81629323  0.29929239  0.58217107  1  0  -0.285157  0  2.916478  0  0  -0.272028  0  3.188679  0  0  -0.277574  0  3.197366  0  0  -0.221919  -0.267804  0  3.18289  0
N  N59  1  0.18370502  0.20071763  0.08217689  1  0  -0.28523  0  2.916542  0  0  -0.272118  0  3.188763  0  0  -0.277668  0  3.197453  0  0  -0.221946  -0.267894  0  3.18298  0
N  N60  1  0.82452399  0.83423956  0.15152204  1  0  -0.287347  0  3.392639  0  0  -0.207486  0  3.690562  0  0  -0.218664  0  3.698605  0  0  -0.374491  -0.200953  0  3.685081  0
N  N61  1  0.17547499  0.66576039  0.65152993  1  0  -0.287256  0  3.392446  0  0  -0.207297  0  3.690323  0  0  -0.218494  0  3.69839  0  0  -0.374479  -0.200754  0  3.684815  0
N  N62  1  0.17548392  0.16575897  0.84847445  1  0  -0.287267  0  3.392352  0  0  -0.207373  0  3.690307  0  0  -0.218561  0  3.698356  0  0  -0.374441  -0.200833  0  3.684813  0
N  N63  1  0.82451750  0.33424856  0.34847771  1  0  -0.287185  0  3.392149  0  0  -0.207326  0  3.690131  0  0  -0.218508  0  3.698191  0  0  -0.374431  -0.200785  0  3.684629  0
