# generated using pymatgen
data_MnH14(C3N2)6
_symmetry_space_group_name_H-M   'P 1'
_cell_length_a   7.18634625
_cell_length_b   8.15458456
_cell_length_c   9.57462504
_cell_angle_alpha   64.10689215
_cell_angle_beta   66.11026456
_cell_angle_gamma   71.08430473
_symmetry_Int_Tables_number   1
_chemical_formula_structural   MnH14(C3N2)6
_chemical_formula_sum   'Mn1 H14 C18 N12'
_cell_volume   454.05355192
_cell_formula_units_Z   1
loop_
 _symmetry_equiv_pos_site_id
 _symmetry_equiv_pos_as_xyz
  1  'x, y, z'
loop_
 _atom_site_type_symbol
 _atom_site_label
 _atom_site_symmetry_multiplicity
 _atom_site_fract_x
 _atom_site_fract_y
 _atom_site_fract_z
 _atom_site_occupancy
 _atom_site_pbe_cm5_charge
 _atom_site_pbe_ddec_charge
 _atom_site_pbe_ddec_spin_density
 _atom_site_pbe_ddec_sum_bond_order
 _atom_site_pbe_magmom
Mn  Mn0  1  0.00582470  0.00202428  0.98615880  1  0.804181  0.719867  1.00574  3.801035  0.961
H  H1  1  0.85368635  0.49941000  0.63735498  1  0.114475  0.125484  1.8e-05  1.04586  0.0
H  H2  1  0.14042223  0.50012041  0.36850178  1  0.114451  0.126832  3.3e-05  1.042497  0.0
H  H3  1  0.59055552  0.60758291  0.71334231  1  0.102465  0.120606  9.5e-05  1.035328  0.0
H  H4  1  0.40578452  0.39346043  0.29659645  1  0.104146  0.12278  0.000335  1.033078  0.0
H  H5  1  0.79412771  0.63160406  0.76111959  1  0.110359  0.132598  5.9e-05  1.010744  0.0
H  H6  1  0.20853435  0.36739094  0.24326254  1  0.110256  0.131635  0.000205  1.013668  0.0
H  H7  1  0.85210950  0.33713958  0.15332635  1  0.111062  0.124244  -0.000258  1.020363  0.0
H  H8  1  0.15075485  0.65804415  0.84701098  1  0.111724  0.124727  -0.000299  1.023803  0.0
H  H9  1  0.62721763  0.30890564  0.65516458  1  0.10093  0.094016  -1.9e-05  1.043427  0.0
H  H10  1  0.37537123  0.69542265  0.34266979  1  0.100638  0.09443  -3.4e-05  1.041914  0.0
H  H11  1  0.73614931  0.48944064  0.35995866  1  0.099713  0.095626  1.1e-05  1.039552  0.0
H  H12  1  0.26867109  0.51039781  0.63744943  1  0.100118  0.095994  3.4e-05  1.03961  0.0
H  H13  1  0.63690879  0.96972788  0.75927344  1  0.107966  0.114799  -0.000307  1.0353  0.0
H  H14  1  0.36025440  0.03542727  0.24356379  1  0.107961  0.115432  -0.000276  1.031082  0.0
C  C15  1  0.75384789  0.62084744  0.66709672  1  -0.128223  -0.305073  6.5e-05  3.861598  0.0
C  C16  1  0.24323685  0.37905916  0.33952330  1  -0.128566  -0.305411  7.8e-05  3.855302  0.0
C  C17  1  0.27471044  0.24767369  0.95919554  1  0.298831  0.404642  -0.007198  4.227535  -0.006
C  C18  1  0.72705683  0.75184815  0.03477806  1  0.298832  0.402209  -0.008267  4.220696  -0.006
C  C19  1  0.75629643  0.96429138  0.51185269  1  0.105134  0.0565  -0.000457  4.029086  0.0
C  C20  1  0.24055411  0.03553687  0.49253167  1  0.102761  0.052688  -0.000964  4.029474  -0.001
C  C21  1  0.81664384  0.06634893  0.34227170  1  0.099285  0.102194  -0.000563  4.068911  0.0
C  C22  1  0.18117167  0.93126330  0.66143855  1  0.100291  0.104562  0.000988  4.042424  0.002
C  C23  1  0.80845988  0.25848486  0.28368319  1  -0.080674  -0.138824  -0.000786  3.957158  0.0
C  C24  1  0.19269458  0.73900243  0.71724804  1  -0.080728  -0.140626  -0.002539  3.960948  -0.002
C  C25  1  0.67960807  0.23758781  0.56910840  1  -0.090413  -0.070705  -0.000283  3.986646  0.0
C  C26  1  0.32144808  0.76478638  0.43042378  1  -0.089647  -0.070775  -0.001341  3.985295  -0.001
C  C27  1  0.58460035  0.24979926  0.96402141  1  0.302833  0.415167  -0.009353  4.217369  -0.007
C  C28  1  0.41714295  0.74946177  0.02991518  1  0.302056  0.414204  -0.010282  4.21846  -0.008
C  C29  1  0.74093217  0.34118248  0.39960924  1  -0.096087  -0.094108  0.000541  3.993505  0.0
C  C30  1  0.26162876  0.65878739  0.59936105  1  -0.095184  -0.091524  0.002117  3.991883  0.002
C  C31  1  0.68485378  0.04810136  0.62897844  1  -0.090257  -0.144161  8.4e-05  3.969952  0.0
C  C32  1  0.31339633  0.95446126  0.37332912  1  -0.086673  -0.13918  0.000969  3.963671  0.001
N  N33  1  0.15182416  0.17846160  0.96178182  1  -0.396916  -0.475231  0.001965  3.4459  0.0
N  N34  1  0.85453417  0.82363916  0.02212742  1  -0.397856  -0.474292  0.002698  3.448836  0.001
N  N35  1  0.88078725  0.94177431  0.26350646  1  -0.165778  -0.14801  -0.007821  3.418133  -0.009
N  N36  1  0.11512615  0.05518426  0.74215647  1  -0.202733  -0.134191  -0.013065  3.545003  -0.016
N  N37  1  0.39851178  0.33546945  0.95787726  1  -0.310695  -0.400872  0.018882  3.520436  0.021
N  N38  1  0.59757558  0.66086169  0.04829160  1  -0.310954  -0.397882  0.020214  3.519864  0.023
N  N39  1  0.78974357  0.78518302  0.52189559  1  -0.127551  0.16906  0.000522  3.725516  0.001
N  N40  1  0.20570434  0.21419176  0.48414085  1  -0.122458  0.176426  0.004725  3.726988  0.005
N  N41  1  0.86442114  0.77453964  0.37160053  1  -0.058125  -0.080485  -0.001759  3.129571  -0.001
N  N42  1  0.13072176  0.22418044  0.63410088  1  -0.058399  -0.078228  -0.000199  3.09624  0.001
N  N43  1  0.75531593  0.18179035  0.96773777  1  -0.395512  -0.472687  0.002563  3.413516  0.001
N  N44  1  0.25109782  0.82009375  0.01566722  1  -0.397036  -0.474456  0.003131  3.418214  0.002
