# generated using pymatgen
data_ZnH18C26(NO4)2
_symmetry_space_group_name_H-M   'P 1'
_cell_length_a   9.60546303
_cell_length_b   11.53477511
_cell_length_c   13.03780000
_cell_angle_alpha   88.38147898
_cell_angle_beta   68.37387260
_cell_angle_gamma   65.39613123
_symmetry_Int_Tables_number   1
_chemical_formula_structural   ZnH18C26(NO4)2
_chemical_formula_sum   'Zn2 H36 C52 N4 O16'
_cell_volume   1207.47327589
_cell_formula_units_Z   2
loop_
 _symmetry_equiv_pos_site_id
 _symmetry_equiv_pos_as_xyz
  1  'x, y, z'
loop_
 _atom_site_type_symbol
 _atom_site_label
 _atom_site_symmetry_multiplicity
 _atom_site_fract_x
 _atom_site_fract_y
 _atom_site_fract_z
 _atom_site_occupancy
 _atom_site_hle17_bader_spin_density
 _atom_site_hle17_ddec_charge
 _atom_site_hle17_ddec_spin_density
 _atom_site_hle17_ddec_sum_bond_order
 _atom_site_hle17_magmom
 _atom_site_hse06_10hf_bader_spin_density
 _atom_site_hse06_10hf_ddec_charge
 _atom_site_hse06_10hf_ddec_spin_density
 _atom_site_hse06_10hf_ddec_sum_bond_order
 _atom_site_hse06_10hf_magmom
 _atom_site_hse06_bader_spin_density
 _atom_site_hse06_ddec_charge
 _atom_site_hse06_ddec_spin_density
 _atom_site_hse06_ddec_sum_bond_order
 _atom_site_hse06_magmom
 _atom_site_pbe_bader_charge
 _atom_site_pbe_bader_spin_density
 _atom_site_pbe_cm5_charge
 _atom_site_pbe_ddec_charge
 _atom_site_pbe_ddec_spin_density
 _atom_site_pbe_ddec_sum_bond_order
 _atom_site_pbe_magmom
Zn  Zn0  1  0.37165574  0.25000057  0.25001533  1  0  0.975545  0  1.896464  0  0  0.781872  0  2.375122  0  0  0.830035  0  2.32106  0  1.257376  0  0.696229  0.748151  0  2.412496  0
Zn  Zn1  1  0.62834335  0.74999979  0.74998521  1  0  0.975576  0  1.896438  0  0  0.781883  0  2.375092  0  0  0.830046  0  2.321031  0  1.257462  0  0.696221  0.748159  0  2.412467  0
H  H2  1  0.12901903  0.92386616  0.30487886  1  0  0.117821  0  0.955742  0  0  0.128198  0  1.012856  0  0  0.131127  0  1.012577  0  0.120965  0  0.114145  0.126117  0  1.013153  0
H  H3  1  0.85776266  0.57614500  0.19513692  1  0  0.117742  0  0.956116  0  0  0.128324  0  1.012922  0  0  0.131266  0  1.012615  0  0.116166  0  0.113712  0.126196  0  1.013282  0
H  H4  1  0.87098060  0.07613324  0.69512079  1  0  0.117791  0  0.955738  0  0  0.128171  0  1.012854  0  0  0.131099  0  1.012577  0  0.120974  0  0.114124  0.126086  0  1.013155  0
H  H5  1  0.14223697  0.42385441  0.80486351  1  0  0.117724  0  0.956132  0  0  0.128299  0  1.012948  0  0  0.131241  0  1.012641  0  0.11616  0  0.113714  0.126172  0  1.013305  0
H  H6  1  0.16844380  0.26805623  0.48914569  1  0  0.09522  0  0.917092  0  0  0.106472  0  0.971782  0  0  0.109519  0  0.968752  0  0.117474  0  0.125901  0.10417  0  0.974111  0
H  H7  1  0.42564253  0.23198444  0.01084631  1  0  0.095092  0  0.917875  0  0  0.106445  0  0.972336  0  0  0.109368  0  0.969458  0  0.151505  0  0.126102  0.104222  0  0.974566  0
H  H8  1  0.83155641  0.73194413  0.51085455  1  0  0.0952  0  0.917121  0  0  0.10646  0  0.971807  0  0  0.109506  0  0.968777  0  0.117454  0  0.125906  0.104159  0  0.974135  0
H  H9  1  0.57435879  0.76801592  0.98915363  1  0  0.095082  0  0.917889  0  0  0.106442  0  0.972343  0  0  0.109359  0  0.969466  0  0.151514  0  0.126111  0.104219  0  0.974572  0
H  H10  1  0.39850685  0.53552916  0.13113106  1  0  0.412328  0  0.861538  0  0  0.382243  0  0.940867  0  0  0.393991  0  0.927844  0  0.655297  0  0.309039  0.373931  0  0.950082  0
H  H11  1  0.56517659  0.96453792  0.36886336  1  0  0.412146  0  0.861529  0  0  0.382402  0  0.940615  0  0  0.394175  0  0.927496  0  0.65225  0  0.308846  0.3741  0  0.949817  0
H  H12  1  0.60149278  0.46447024  0.86886937  1  0  0.412354  0  0.861539  0  0  0.382268  0  0.940869  0  0  0.394016  0  0.927845  0  0.655301  0  0.309048  0.373954  0  0.950085  0
H  H13  1  0.43482416  0.03546148  0.63113676  1  0  0.412123  0  0.861567  0  0  0.382379  0  0.940654  0  0  0.394152  0  0.927538  0  0.652253  0  0.308834  0.374077  0  0.949857  0
H  H14  1  0.26677567  0.67152559  0.91954870  1  0  0.117509  0  0.95936  0  0  0.124012  0  1.025378  0  0  0.12792  0  1.021966  0  0.155854  0  0.105802  0.121224  0  1.027757  0
H  H15  1  0.35787425  0.82851545  0.58046826  1  0  0.117329  0  0.958686  0  0  0.123932  0  1.024573  0  0  0.127791  0  1.021221  0  0.135213  0  0.10576  0.121171  0  1.026919  0
H  H16  1  0.73322341  0.32847478  0.08045185  1  0  0.117533  0  0.959365  0  0  0.124034  0  1.02538  0  0  0.127942  0  1.021967  0  0.155851  0  0.105814  0.121246  0  1.027757  0
H  H17  1  0.64212484  0.17148491  0.41953152  1  0  0.117326  0  0.958686  0  0  0.123924  0  1.024582  0  0  0.127784  0  1.021231  0  0.135212  0  0.105756  0.121163  0  1.026928  0
H  H18  1  0.79642715  0.98457202  0.95316114  1  0  0.091803  0  0.948445  0  0  0.100572  0  1.012661  0  0  0.104067  0  1.009826  0  0.088759  0  0.101212  0.098011  0  1.014789  0
H  H19  1  0.23417871  0.51547288  0.54683070  1  0  0.091357  0  0.949786  0  0  0.100668  0  1.013534  0  0  0.104093  0  1.010762  0  0.073377  0  0.101302  0.098204  0  1.015527  0
H  H20  1  0.20357306  0.01542835  0.04683833  1  0  0.091806  0  0.948464  0  0  0.100577  0  1.012678  0  0  0.104071  0  1.009845  0  0.088762  0  0.101206  0.098016  0  1.014807  0
H  H21  1  0.76582204  0.48452652  0.45316865  1  0  0.091358  0  0.949791  0  0  0.100678  0  1.013526  0  0  0.104106  0  1.010751  0  0.073412  0  0.101301  0.098212  0  1.015521  0
H  H22  1  0.89595175  0.87402436  0.24457389  1  0  0.102633  0  0.957371  0  0  0.108909  0  1.025003  0  0  0.11333  0  1.020716  0  0.073867  0  0.106129  0.105719  0  1.02807  0
H  H23  1  0.51454893  0.62600415  0.25544079  1  0  0.102604  0  0.95702  0  0  0.108946  0  1.02462  0  0  0.113378  0  1.020325  0  0.084133  0  0.106032  0.10581  0  1.027609  0
H  H24  1  0.10404733  0.12597601  0.75542665  1  0  0.102642  0  0.957435  0  0  0.108916  0  1.02507  0  0  0.113339  0  1.020782  0  0.073868  0  0.106148  0.10573  0  1.028133  0
H  H25  1  0.48544961  0.37399718  0.74456065  1  0  0.102577  0  0.957029  0  0  0.108933  0  1.024619  0  0  0.113365  0  1.020322  0  0.084182  0  0.10602  0.105795  0  1.027609  0
H  H26  1  0.07559318  0.81178454  0.83327917  1  0  0.084356  0  0.957434  0  0  0.096102  0  1.015491  0  0  0.099102  0  1.014879  0  0.050695  0  0.097408  0.093818  0  1.016248  0
H  H27  1  0.22068591  0.68823433  0.66672750  1  0  0.084611  0  0.956982  0  0  0.096205  0  1.015242  0  0  0.099129  0  1.014736  0  0.054529  0  0.097575  0.093997  0  1.015926  0
H  H28  1  0.92440703  0.18821583  0.16672107  1  0  0.084365  0  0.957437  0  0  0.096102  0  1.015501  0  0  0.099102  0  1.014889  0  0.050682  0  0.097399  0.093819  0  1.016258  0
H  H29  1  0.77931317  0.31176603  0.33327305  1  0  0.084602  0  0.957009  0  0  0.096198  0  1.015261  0  0  0.099122  0  1.014754  0  0.05452  0  0.097569  0.093989  0  1.015945  0
H  H30  1  0.99867542  0.16580992  0.60670970  1  0  0.125671  0  0.997602  0  0  0.133346  0  1.059755  0  0  0.137536  0  1.056997  0  0.177788  0  0.111369  0.130272  0  1.062021  0
H  H31  1  0.27113705  0.33419798  0.89332117  1  0  0.125244  0  0.998033  0  0  0.133039  0  1.060003  0  0  0.137227  0  1.057261  0  0.178038  0  0.111254  0.129962  0  1.062277  0
H  H32  1  0.00132479  0.83419045  0.39329054  1  0  0.125673  0  0.997576  0  0  0.133352  0  1.059727  0  0  0.137543  0  1.056969  0  0.177792  0  0.111385  0.13028  0  1.06199  0
H  H33  1  0.72886258  0.66580142  0.10667925  1  0  0.125228  0  0.998061  0  0  0.133026  0  1.060031  0  0  0.137214  0  1.057289  0  0.17804  0  0.111254  0.129949  0  1.062305  0
H  H34  1  0.28918609  0.04144115  0.20066936  1  0  0.081867  0  0.924269  0  0  0.093688  0  0.981628  0  0  0.096056  0  0.9797  0  0.125576  0  0.121898  0.091931  0  0.983088  0
H  H35  1  0.03131252  0.45855035  0.29933400  1  0  0.081535  0  0.924637  0  0  0.093449  0  0.98197  0  0  0.095813  0  0.980044  0  0.079404  0  0.121938  0.091677  0  0.983464  0
H  H36  1  0.71081299  0.95855921  0.79933042  1  0  0.081842  0  0.924357  0  0  0.093651  0  0.981728  0  0  0.096018  0  0.979801  0  0.125581  0  0.121874  0.091894  0  0.983187  0
H  H37  1  0.96868823  0.54144905  0.70066611  1  0  0.081517  0  0.924659  0  0  0.093432  0  0.981988  0  0  0.095795  0  0.980063  0  0.079395  0  0.121932  0.09166  0  0.983482  0
C  C38  1  0.13168310  0.00033938  0.35008137  1  0  -0.146811  0  3.683666  0  0  -0.163691  0  3.928383  0  0  -0.17147  0  3.950389  0  -0.041037  0  -0.073363  -0.15858  0  3.913332  0
C  C39  1  0.98213061  0.49968298  0.14992367  1  0  -0.146621  0  3.6829  0  0  -0.163764  0  3.927681  0  0  -0.171536  0  3.94968  0  -0.038466  0  -0.072634  -0.158653  0  3.912781  0
C  C40  1  0.86831653  0.99966002  0.64991905  1  0  -0.146808  0  3.683754  0  0  -0.163697  0  3.92846  0  0  -0.171477  0  3.950469  0  -0.041051  0  -0.073365  -0.158582  0  3.91341  0
C  C41  1  0.01787014  0.50031642  0.85007645  1  0  -0.146528  0  3.682871  0  0  -0.163675  0  3.927638  0  0  -0.171448  0  3.949639  0  -0.038401  0  -0.07259  -0.158566  0  3.912738  0
C  C42  1  0.15462265  0.19179765  0.45243419  1  0  0.151238  0  3.671365  0  0  0.118778  0  3.922184  0  0  0.126359  0  3.9387  0  0.45042  0  0.058778  0.113684  0  3.91115  0
C  C43  1  0.29886603  0.30826713  0.04757460  1  0  0.15145  0  3.671215  0  0  0.118853  0  3.922121  0  0  0.126529  0  3.938633  0  0.443372  0  0.058552  0.113708  0  3.911147  0
C  C44  1  0.84537698  0.80820175  0.54756623  1  0  0.151273  0  3.671371  0  0  0.118779  0  3.922193  0  0  0.126363  0  3.938706  0  0.45045  0  0.058782  0.113686  0  3.911159  0
C  C45  1  0.70113472  0.69173227  0.95242475  1  0  0.15146  0  3.671232  0  0  0.118864  0  3.922154  0  0  0.126544  0  3.938662  0  0.443528  0  0.058559  0.113718  0  3.91118  0
C  C46  1  0.04862697  0.03329118  0.46665776  1  0  0.100678  0  3.739945  0  0  0.111316  0  3.971455  0  0  0.114886  0  3.993988  0  0.056252  0  0.020337  0.109243  0  3.955666  0
C  C47  1  0.04856957  0.46672925  0.03334542  1  0  0.09998  0  3.742826  0  0  0.110789  0  3.974028  0  0  0.114351  0  3.996584  0  0.076247  0  0.019942  0.108717  0  3.958251  0
C  C48  1  0.95137324  0.96670919  0.53334248  1  0  0.100642  0  3.739949  0  0  0.111316  0  3.971433  0  0  0.114886  0  3.993968  0  0.022253  0  0.020347  0.109242  0  3.955644  0
C  C49  1  0.95143229  0.53327015  0.96665440  1  0  0.099911  0  3.742801  0  0  0.110773  0  3.973962  0  0  0.114334  0  3.996518  0  0.036604  0  0.019916  0.108699  0  3.958186  0
C  C50  1  0.14364606  0.74531980  0.97188012  1  0  -0.037047  0  3.670628  0  0  -0.068033  0  3.924437  0  0  -0.064309  0  3.942374  0  -0.04695  0  -0.074486  -0.069983  0  3.911708  0
C  C51  1  0.36089557  0.75471835  0.52813329  1  0  -0.036719  0  3.669335  0  0  -0.067648  0  3.923081  0  0  -0.06384  0  3.940903  0  0.005472  0  -0.074367  -0.069652  0  3.910383  0
C  C52  1  0.85635527  0.25468056  0.02811982  1  0  -0.037  0  3.670645  0  0  -0.067973  0  3.924441  0  0  -0.064251  0  3.942379  0  -0.046936  0  -0.074461  -0.069923  0  3.911712  0
C  C53  1  0.63910352  0.24528202  0.47186726  1  0  -0.036719  0  3.669254  0  0  -0.067646  0  3.923006  0  0  -0.06384  0  3.940828  0  0.005496  0  -0.074375  -0.069651  0  3.910305  0
C  C54  1  0.19621729  0.68260947  0.14788409  1  0  0.634613  0  3.850319  0  0  0.587053  0  4.146385  0  0  0.619754  0  4.139475  0  1.508203  0  0.224263  0.5648  0  4.15068  0
C  C55  1  0.52678112  0.81743253  0.35214731  1  0  0.635291  0  3.853126  0  0  0.587689  0  4.149173  0  0  0.620397  0  4.142268  0  1.50776  0  0.224392  0.565426  0  4.153463  0
C  C56  1  0.80378291  0.31739089  0.85211615  1  0  0.634644  0  3.850231  0  0  0.587087  0  4.146293  0  0  0.619787  0  4.139386  0  1.508147  0  0.224278  0.564834  0  4.150589  0
C  C57  1  0.47321909  0.18256783  0.64785217  1  0  0.63534  0  3.85316  0  0  0.587765  0  4.149169  0  0  0.620476  0  4.142263  0  1.507727  0  0.224391  0.565502  0  4.15346  0
C  C58  1  0.66597554  0.04478772  0.17940621  1  0  0.653829  0  3.890862  0  0  0.601604  0  4.182212  0  0  0.636788  0  4.174225  0  1.530567  0  0.209328  0.577838  0  4.186937  0
C  C59  1  0.39008532  0.45527706  0.32061308  1  0  0.653901  0  3.89164  0  0  0.601297  0  4.183571  0  0  0.636492  0  4.175587  0  1.531477  0  0.209015  0.577523  0  4.188244  0
C  C60  1  0.33402409  0.95521168  0.82059421  1  0  0.653956  0  3.890853  0  0  0.6017  0  4.182211  0  0  0.636883  0  4.174223  0  1.530571  0  0.209358  0.577933  0  4.186937  0
C  C61  1  0.60991543  0.54472234  0.67938627  1  0  0.653877  0  3.891776  0  0  0.601275  0  4.183698  0  0  0.636469  0  4.175715  0  1.531475  0  0.209021  0.577505  0  4.188365  0
C  C62  1  0.87998841  0.92095442  0.99001422  1  0  -0.043298  0  3.715283  0  0  -0.072841  0  3.967801  0  0  -0.070069  0  3.988068  0  -0.089444  0  -0.074889  -0.073989  0  3.953519  0
C  C63  1  0.29092652  0.57912133  0.50998567  1  0  -0.043019  0  3.716941  0  0  -0.073245  0  3.969692  0  0  -0.070397  0  3.98997  0  -0.035215  0  -0.075059  -0.074443  0  3.955319  0
C  C64  1  0.12001180  0.07904594  0.00998603  1  0  -0.043328  0  3.715418  0  0  -0.072891  0  3.967921  0  0  -0.070118  0  3.988186  0  -0.089446  0  -0.074913  -0.07404  0  3.953638  0
C  C65  1  0.70907535  0.42087807  0.49001261  1  0  -0.043047  0  3.716949  0  0  -0.073278  0  3.969695  0  0  -0.070434  0  3.989977  0  -0.035639  0  -0.075057  -0.074476  0  3.955322  0
C  C66  1  0.82932683  0.93962135  0.10614534  1  0  -0.069153  0  3.774489  0  0  -0.041515  0  4.00518  0  0  -0.052341  0  4.02982  0  0.045156  0  -0.017638  -0.034928  0  3.98886  0
C  C67  1  0.37495752  0.56049682  0.39384809  1  0  -0.070537  0  3.776854  0  0  -0.04299  0  4.008339  0  0  -0.053871  0  4.033024  0  0.017603  0  -0.018186  -0.036358  0  3.99195  0
C  C68  1  0.17067225  0.06037901  0.89385521  1  0  -0.069295  0  3.774537  0  0  -0.041596  0  4.005158  0  0  -0.052425  0  4.029799  0  0.045169  0  -0.017669  -0.03501  0  3.988838  0
C  C69  1  0.62504323  0.43950258  0.60615127  1  0  -0.070393  0  3.776776  0  0  -0.042847  0  4.008268  0  0  -0.053731  0  4.032956  0  0.01761  0  -0.018149  -0.036219  0  3.991878  0
C  C70  1  0.93572695  0.86020325  0.15438349  1  0  -0.055088  0  3.705046  0  0  -0.093059  0  3.952005  0  0  -0.08939  0  3.970292  0  0.000557  0  -0.073046  -0.095062  0  3.939765  0
C  C71  1  0.45028795  0.63988311  0.34562987  1  0  -0.054532  0  3.705446  0  0  -0.09242  0  3.952206  0  0  -0.088723  0  3.970514  0  -0.02944  0  -0.072659  -0.094469  0  3.939872  0
C  C72  1  0.06427213  0.13979712  0.84561629  1  0  -0.054913  0  3.70502  0  0  -0.092889  0  3.951951  0  0  -0.089218  0  3.970236  0  0.00052  0  -0.072971  -0.094896  0  3.93971  0
C  C73  1  0.54971171  0.36011822  0.65437050  1  0  -0.054584  0  3.705497  0  0  -0.092487  0  3.952265  0  0  -0.088788  0  3.970572  0  -0.029496  0  -0.072697  -0.094533  0  3.939929  0
C  C74  1  0.09239004  0.76336293  0.08837078  1  0  -0.094343  0  3.785307  0  0  -0.067868  0  4.020716  0  0  -0.078949  0  4.045793  0  -0.074133  0  -0.022922  -0.060894  0  4.004051  0
C  C75  1  0.44418800  0.73666462  0.41163588  1  0  -0.094843  0  3.785084  0  0  -0.068376  0  4.020526  0  0  -0.079485  0  4.045597  0  -0.039002  0  -0.023263  -0.061359  0  4.003856  0
C  C76  1  0.90761071  0.23663647  0.91163010  1  0  -0.094493  0  3.785496  0  0  -0.068043  0  4.020947  0  0  -0.079123  0  4.046023  0  -0.074047  0  -0.02299  -0.061068  0  4.004282  0
C  C77  1  0.55581109  0.26333575  0.58836467  1  0  -0.094821  0  3.785049  0  0  -0.068364  0  4.020489  0  0  -0.079474  0  4.045562  0  -0.039001  0  -0.023227  -0.061347  0  4.00382  0
C  C78  1  0.03616538  0.82434453  0.92372584  1  0  -0.08536  0  3.769837  0  0  -0.096635  0  4.029362  0  0  -0.103043  0  4.052766  0  0.003216  0  -0.092831  -0.092167  0  4.012927  0
C  C79  1  0.28426964  0.67568108  0.57627116  1  0  -0.08498  0  3.768618  0  0  -0.096022  0  4.028197  0  0  -0.102391  0  4.051522  0  -0.03577  0  -0.092524  -0.091582  0  4.011755  0
C  C80  1  0.96383537  0.17565487  0.07627505  1  0  -0.085377  0  3.769827  0  0  -0.096647  0  4.029354  0  0  -0.103056  0  4.052756  0  0.003192  0  -0.092841  -0.09218  0  4.01292  0
C  C81  1  0.71573057  0.32431928  0.42372755  1  0  -0.084982  0  3.768709  0  0  -0.096022  0  4.028288  0  0  -0.102391  0  4.051612  0  -0.035411  0  -0.092514  -0.091582  0  4.011845  0
C  C82  1  0.06155752  0.13178020  0.51744143  1  0  -0.139603  0  3.657527  0  0  -0.159378  0  3.903027  0  0  -0.166785  0  3.92308  0  -0.028358  0  -0.071508  -0.154856  0  3.889799  0
C  C83  1  0.21074619  0.36822673  0.98257947  1  0  -0.13859  0  3.658006  0  0  -0.158649  0  3.903651  0  0  -0.166036  0  3.923673  0  -0.031328  0  -0.071396  -0.154223  0  3.890557  0
C  C84  1  0.93844211  0.86821920  0.48255899  1  0  -0.139554  0  3.657446  0  0  -0.159338  0  3.902945  0  0  -0.166744  0  3.922993  0  -0.028362  0  -0.071502  -0.154817  0  3.889719  0
C  C85  1  0.78925344  0.63177267  0.01742018  1  0  -0.138573  0  3.658039  0  0  -0.158646  0  3.903664  0  0  -0.166032  0  3.923685  0  -0.031462  0  -0.071403  -0.154219  0  3.890571  0
C  C86  1  0.22171516  0.06530100  0.29099127  1  0  0.129082  0  3.716933  0  0  0.095549  0  3.971521  0  0  0.102062  0  3.990395  0  0.413149  0  0.0489  0.091356  0  3.958567  0
C  C87  1  0.07804494  0.43471846  0.20900879  1  0  0.129284  0  3.716529  0  0  0.09555  0  3.97121  0  0  0.10206  0  3.990081  0  0.470371  0  0.048619  0.091322  0  3.958385  0
C  C88  1  0.77828505  0.93469936  0.70900897  1  0  0.129139  0  3.717116  0  0  0.09559  0  3.97168  0  0  0.102104  0  3.990554  0  0.413128  0  0.048928  0.091398  0  3.958724  0
C  C89  1  0.92195581  0.56528094  0.79099056  1  0  0.129288  0  3.716508  0  0  0.095557  0  3.971194  0  0  0.102066  0  3.990064  0  0.470308  0  0.048617  0.091328  0  3.95837  0
N  N90  1  0.23343347  0.15946484  0.34100415  1  0  -0.333019  0  3.338186  0  0  -0.251459  0  3.618557  0  0  -0.270369  0  3.634219  0  -1.244915  0  -0.333493  -0.238558  0  3.60782  0
N  N91  1  0.23396233  0.34057391  0.15899208  1  0  -0.333236  0  3.338253  0  0  -0.251446  0  3.618261  0  0  -0.270341  0  3.63388  0  -1.293302  0  -0.333424  -0.238635  0  3.607634  0
N  N92  1  0.76656728  0.84053456  0.65899520  1  0  -0.333071  0  3.338223  0  0  -0.251443  0  3.618533  0  0  -0.270354  0  3.634196  0  -1.244992  0  -0.333497  -0.238542  0  3.607796  0
N  N93  1  0.76603675  0.65942646  0.84100770  1  0  -0.333248  0  3.338201  0  0  -0.251473  0  3.618227  0  0  -0.270364  0  3.633842  0  -1.293308  0  -0.333443  -0.23866  0  3.6076  0
O  O94  1  0.62268542  0.06111948  0.28414931  1  0  -0.641096  0  1.988196  0  0  -0.585852  0  2.218805  0  0  -0.609898  0  2.206487  0  -1.166086  0  -0.314306  -0.568998  0  2.226818  0
O  O95  1  0.46788368  0.43891252  0.21587449  1  0  -0.641138  0  1.987489  0  0  -0.58552  0  2.217977  0  0  -0.609512  0  2.205605  0  -1.181561  0  -0.31447  -0.568615  0  2.226008  0
O  O96  1  0.37731255  0.93888089  0.71585154  1  0  -0.641154  0  1.988228  0  0  -0.585902  0  2.218834  0  0  -0.609953  0  2.206527  0  -1.166073  0  -0.314318  -0.569048  0  2.226849  0
O  O97  1  0.53211595  0.56108688  0.78412517  1  0  -0.641141  0  1.987523  0  0  -0.585532  0  2.218015  0  0  -0.609523  0  2.205644  0  -1.181545  0  -0.314484  -0.568627  0  2.226044  0
O  O98  1  0.57398222  0.11949402  0.13090681  1  0  -0.633345  0  2.023908  0  0  -0.562482  0  2.290776  0  0  -0.591516  0  2.276151  0  -1.167751  0  -0.326742  -0.542369  0  2.300291  0
O  O99  1  0.32441647  0.38049652  0.36913325  1  0  -0.632804  0  2.023705  0  0  -0.561922  0  2.290864  0  0  -0.590976  0  2.276275  0  -1.165842  0  -0.326184  -0.541802  0  2.300355  0
O  O100  1  0.42601687  0.88050635  0.86909374  1  0  -0.633376  0  2.023892  0  0  -0.562506  0  2.290767  0  0  -0.591538  0  2.276141  0  -1.167765  0  -0.32675  -0.542393  0  2.300282  0
O  O101  1  0.67558428  0.61950288  0.63086610  1  0  -0.63282  0  2.023776  0  0  -0.561935  0  2.290932  0  0  -0.59099  0  2.276344  0  -1.165844  0  -0.326167  -0.541815  0  2.300419  0
O  O102  1  0.34294898  0.58905498  0.08213128  1  0  -0.534878  0  2.088743  0  0  -0.482981  0  2.302541  0  0  -0.505023  0  2.290111  0  -1.157215  0  -0.327  -0.467601  0  2.310714  0
O  O103  1  0.51413562  0.91101113  0.41787070  1  0  -0.534388  0  2.091577  0  0  -0.482925  0  2.304972  0  0  -0.504953  0  2.292502  0  -1.154936  0  -0.326528  -0.467542  0  2.313131  0
O  O104  1  0.65705065  0.41094442  0.91786915  1  0  -0.534898  0  2.088745  0  0  -0.482994  0  2.302529  0  0  -0.505037  0  2.290099  0  -1.157235  0  -0.326994  -0.467617  0  2.310708  0
O  O105  1  0.48586625  0.08898827  0.58212912  1  0  -0.534404  0  2.091651  0  0  -0.482956  0  2.305045  0  0  -0.504985  0  2.292576  0  -1.154897  0  -0.326543  -0.467572  0  2.313205  0
O  O106  1  0.14870895  0.70051280  0.25052721  1  0  -0.573297  0  1.960889  0  0  -0.533011  0  2.180497  0  0  -0.554404  0  2.174399  0  -1.170725  0  -0.300345  -0.518252  0  2.184409  0
O  O107  1  0.59984309  0.79950607  0.24948238  1  0  -0.574  0  1.961285  0  0  -0.533583  0  2.180844  0  0  -0.554986  0  2.17476  0  -1.179804  0  -0.300523  -0.518739  0  2.184762  0
O  O108  1  0.85129125  0.29948757  0.74947304  1  0  -0.573297  0  1.960822  0  0  -0.533012  0  2.180428  0  0  -0.554404  0  2.174332  0  -1.170711  0  -0.300365  -0.518251  0  2.18434  0
O  O109  1  0.40015488  0.20049430  0.75051770  1  0  -0.574037  0  1.96123  0  0  -0.533623  0  2.180777  0  0  -0.555024  0  2.174689  0  -1.179778  0  -0.300523  -0.518779  0  2.184694  0
