# generated using pymatgen
data_CuH5C5N2ClO3
_symmetry_space_group_name_H-M   'P 1'
_cell_length_a   5.51785608
_cell_length_b   10.94871415
_cell_length_c   12.83603707
_cell_angle_alpha   90.00026077
_cell_angle_beta   89.99946478
_cell_angle_gamma   104.02635039
_symmetry_Int_Tables_number   1
_chemical_formula_structural   CuH5C5N2ClO3
_chemical_formula_sum   'Cu4 H20 C20 N8 Cl4 O12'
_cell_volume   752.34791043
_cell_formula_units_Z   4
loop_
 _symmetry_equiv_pos_site_id
 _symmetry_equiv_pos_as_xyz
  1  'x, y, z'
loop_
 _atom_site_type_symbol
 _atom_site_label
 _atom_site_symmetry_multiplicity
 _atom_site_fract_x
 _atom_site_fract_y
 _atom_site_fract_z
 _atom_site_occupancy
 _atom_site_hle17_ddec_charge
 _atom_site_hle17_ddec_spin_density
 _atom_site_hle17_ddec_sum_bond_order
 _atom_site_hle17_magmom
 _atom_site_hse06_10hf_ddec_charge
 _atom_site_hse06_10hf_ddec_spin_density
 _atom_site_hse06_10hf_ddec_sum_bond_order
 _atom_site_hse06_10hf_magmom
 _atom_site_hse06_ddec_charge
 _atom_site_hse06_ddec_spin_density
 _atom_site_hse06_ddec_sum_bond_order
 _atom_site_hse06_magmom
 _atom_site_pbe_cm5_charge
 _atom_site_pbe_ddec_charge
 _atom_site_pbe_ddec_spin_density
 _atom_site_pbe_ddec_sum_bond_order
 _atom_site_pbe_magmom
Cu  Cu0  1  0.93756815  0.66145109  0.77636433  1  0.78417  -0.678253  1.941408  -0.482  0.759289  -0.776545  2.353581  -0.6  0.844737  -0.857329  2.285224  -0.69  0.677358  0.710057  -0.710198  2.399963  -0.536
Cu  Cu1  1  0.56243477  0.83855094  0.27636221  1  0.784188  0.678255  1.941399  0.482  0.759403  0.776565  2.353618  0.6  0.844799  0.85733  2.285185  0.69  0.677381  0.710138  0.710193  2.399965  0.536
Cu  Cu2  1  0.06243301  0.33855012  0.22363729  1  0.784213  0.67826  1.941361  0.482  0.759396  0.776554  2.35352  0.6  0.844789  0.857327  2.285164  0.69  0.677385  0.710164  0.710202  2.399898  0.536
Cu  Cu3  1  0.43755967  0.16144739  0.72363630  1  0.78417  -0.678252  1.941417  -0.482  0.759354  -0.776549  2.353584  -0.6  0.844782  -0.857325  2.285183  -0.69  0.677396  0.710132  -0.710195  2.399953  -0.536
H  H4  1  0.41572605  0.39320879  0.59910614  1  0.126695  -0.001634  0.948611  -0.002  0.128854  -0.001486  1.016502  -0.002  0.132029  -0.001044  1.013824  -0.002  0.132672  0.126215  -0.001817  1.018893  -0.003
H  H5  1  0.08426013  0.10678450  0.09910928  1  0.126642  0.001635  0.948701  0.002  0.128813  0.001486  1.016524  0.002  0.131987  0.001044  1.013846  0.002  0.132683  0.126174  0.001818  1.018916  0.003
H  H6  1  0.58426126  0.60678572  0.40089081  1  0.12668  0.001642  0.948716  0.002  0.128872  0.001486  1.016519  0.002  0.132046  0.001044  1.013842  0.002  0.132675  0.126232  0.001817  1.018909  0.003
H  H7  1  0.91573599  0.89321760  0.90089001  1  0.126636  -0.001634  0.948711  -0.002  0.128809  -0.001486  1.016543  -0.002  0.131983  -0.001044  1.013864  -0.002  0.132689  0.126169  -0.001817  1.018935  -0.003
H  H8  1  0.18897380  0.25783884  0.89696619  1  0.111627  -0.001351  0.932527  -0.002  0.114893  -0.001177  0.998418  -0.002  0.118056  -0.000837  0.995037  -0.002  0.126995  0.112189  -0.001451  1.001546  -0.002
H  H9  1  0.31102668  0.24216398  0.39696502  1  0.111582  0.001358  0.932619  0.002  0.11489  0.001177  0.998487  0.002  0.118053  0.000837  0.995105  0.002  0.126995  0.112187  0.001451  1.001615  0.002
H  H10  1  0.81103016  0.74216052  0.10303309  1  0.111509  0.001357  0.932478  0.002  0.114768  0.001177  0.998403  0.002  0.11793  0.000837  0.995023  0.002  0.126954  0.112064  0.001451  1.001535  0.002
H  H11  1  0.68897995  0.75783727  0.60303505  1  0.111611  -0.001353  0.932611  -0.002  0.114894  -0.001177  0.998489  -0.002  0.118057  -0.000837  0.995107  -0.002  0.127002  0.112189  -0.001451  1.001617  -0.002
H  H12  1  0.94792941  0.42625657  0.91642422  1  0.110301  -0.001452  0.929099  -0.002  0.115446  -0.001351  0.991486  -0.002  0.118713  -0.000986  0.988257  -0.002  0.123009  0.112981  -0.001617  0.99401  -0.002
H  H13  1  0.55207221  0.07374661  0.41642192  1  0.110264  0.001454  0.92916  0.002  0.115418  0.001351  0.991526  0.002  0.118685  0.000987  0.9883  0.002  0.123025  0.112951  0.001617  0.994048  0.002
H  H14  1  0.05207315  0.57374371  0.08357740  1  0.110315  0.001451  0.9292  0.002  0.115471  0.001351  0.991549  0.002  0.118737  0.000986  0.988323  0.002  0.12304  0.113004  0.001617  0.994072  0.002
H  H15  1  0.44793217  0.92625369  0.58357815  1  0.11033  -0.001456  0.929076  -0.002  0.11548  -0.001351  0.991447  -0.002  0.118748  -0.000987  0.988218  -0.002  0.123032  0.11301  -0.001617  0.993968  -0.002
H  H16  1  0.25138377  0.80502280  0.92938599  1  0.410539  -9.1e-05  0.90069  0.0  0.38346  -3e-05  0.95966  0.0  0.396444  -2.4e-05  0.940871  0.0  0.278397  0.374528  -1.8e-05  0.972558  0.0
H  H17  1  0.24862190  0.69497947  0.42938723  1  0.410559  9.2e-05  0.900663  0.0  0.383474  3e-05  0.959641  0.0  0.396458  2.4e-05  0.940852  0.0  0.278403  0.374536  1.8e-05  0.972545  0.0
H  H18  1  0.74861781  0.19497935  0.07061252  1  0.410551  9.1e-05  0.900672  0.0  0.383473  3e-05  0.959641  0.0  0.396457  2.4e-05  0.940852  0.0  0.278419  0.37454  1.8e-05  0.972539  0.0
H  H19  1  0.75137521  0.30502076  0.57061284  1  0.410511  -9.2e-05  0.90072  0.0  0.383418  -3e-05  0.959717  0.0  0.396403  -2.4e-05  0.940925  0.0  0.278394  0.374485  -1.8e-05  0.972615  0.0
H  H20  1  0.38492894  0.70054041  0.88827080  1  0.394378  0.00021  0.9155  0.0  0.373265  -4.2e-05  0.968594  0.0  0.385018  -3.8e-05  0.951642  0.0  0.2588  0.365494  -3.9e-05  0.979783  0.0
H  H21  1  0.11507124  0.79945980  0.38826987  1  0.394392  -0.000208  0.91554  0.0  0.373286  4.2e-05  0.968578  0.0  0.385033  3.8e-05  0.951633  0.0  0.258813  0.365508  3.9e-05  0.979775  0.0
H  H22  1  0.61507489  0.29946270  0.11173005  1  0.394392  -0.00021  0.915494  0.0  0.373266  4.2e-05  0.968595  0.0  0.385015  3.8e-05  0.951647  0.0  0.25881  0.365491  3.9e-05  0.979789  0.0
H  H23  1  0.88492363  0.20053947  0.61172864  1  0.394281  0.000208  0.915558  0.0  0.373161  -4.2e-05  0.968716  0.0  0.38491  -3.8e-05  0.951767  0.0  0.258764  0.36539  -3.9e-05  0.979904  0.0
C  C24  1  0.19267812  0.49623597  0.68425457  1  0.064874  -0.002993  3.70661  -0.003  0.068562  -0.002958  3.952945  -0.003  0.067125  -0.001762  3.97134  -0.002  0.121093  0.068381  -0.00399  3.942758  -0.004
C  C25  1  0.30731982  0.00376333  0.18425562  1  0.064745  0.003019  3.706496  0.003  0.068345  0.002958  3.952903  0.003  0.066903  0.001763  3.971297  0.002  0.120965  0.068161  0.003991  3.942721  0.004
C  C26  1  0.80732304  0.50376523  0.31574316  1  0.064885  0.003057  3.706346  0.003  0.068497  0.002958  3.952755  0.003  0.067057  0.001763  3.971153  0.002  0.121017  0.068313  0.00399  3.942565  0.004
C  C27  1  0.69268051  0.99623599  0.81574289  1  0.064848  -0.003007  3.706426  -0.003  0.068506  -0.002959  3.952805  -0.003  0.067068  -0.001763  3.971196  -0.002  0.12102  0.068318  -0.003991  3.942618  -0.004
C  C28  1  0.31533151  0.40047421  0.67099615  1  0.101354  -0.000147  3.590498  0.001  0.063654  -0.00215  3.844189  -0.001  0.070673  -0.001026  3.858602  0.0  0.072551  0.058499  -0.003038  3.836642  -0.002
C  C29  1  0.18465857  0.09952310  0.17099963  1  0.101409  0.000117  3.590547  -0.001  0.063826  0.002148  3.844104  0.001  0.070848  0.001024  3.858518  0.0  0.072569  0.058659  0.003037  3.836544  0.002
C  C30  1  0.68466195  0.59952598  0.32900236  1  0.101277  5.4e-05  3.590608  -0.001  0.063651  0.002149  3.844211  0.001  0.070668  0.001025  3.858626  0.0  0.072549  0.058493  0.003038  3.836656  0.002
C  C31  1  0.81534119  0.90047903  0.82900200  1  0.101425  -0.000125  3.590576  0.001  0.063763  -0.002149  3.84422  -0.001  0.070789  -0.001025  3.858633  0.0  0.072535  0.058582  -0.003037  3.83665  -0.002
C  C32  1  0.18536967  0.32505525  0.83490200  1  0.11743  -0.001274  3.585435  -0.002  0.086051  -0.003066  3.84099  -0.003  0.094853  -0.00153  3.850948  -0.002  0.071688  0.079772  -0.004311  3.835881  -0.005
C  C33  1  0.31463161  0.17494645  0.33490289  1  0.117487  0.001221  3.585453  0.002  0.086032  0.003066  3.841056  0.003  0.094836  0.001529  3.851016  0.002  0.071689  0.07973  0.004311  3.83594  0.005
C  C34  1  0.81463164  0.67494221  0.16509728  1  0.11765  0.001193  3.585487  0.002  0.086282  0.003066  3.841016  0.003  0.095087  0.00153  3.850972  0.002  0.071747  0.07999  0.004311  3.835904  0.005
C  C35  1  0.68537361  0.82505573  0.66509795  1  0.117404  -0.001251  3.585664  -0.002  0.086009  -0.003066  3.841176  -0.003  0.094817  -0.001529  3.851135  -0.002  0.07164  0.079695  -0.004311  3.836043  -0.005
C  C36  1  0.05633615  0.41922322  0.84681110  1  0.127504  -0.000545  3.608249  -0.001  0.101532  -0.002054  3.858793  -0.002  0.108762  -0.000724  3.870209  0.0  0.073453  0.096451  -0.003195  3.85234  -0.003
C  C37  1  0.44366938  0.08078043  0.34681111  1  0.127655  0.000566  3.608196  0.001  0.101738  0.002053  3.858778  0.002  0.108957  0.000723  3.870204  0.0  0.073483  0.096665  0.003195  3.852315  0.003
C  C38  1  0.94366642  0.58077706  0.15318740  1  0.12748  0.000601  3.60843  0.001  0.101546  0.002054  3.858982  0.002  0.108768  0.000723  3.870406  0.0  0.073448  0.096477  0.003195  3.852516  0.003
C  C39  1  0.55633767  0.91922177  0.65318974  1  0.127544  -0.000538  3.608225  -0.001  0.101618  -0.002053  3.858776  -0.002  0.108841  -0.000723  3.870195  0.0  0.073474  0.096552  -0.003195  3.852301  -0.003
C  C40  1  0.18974396  0.59553090  0.60382106  1  0.609558  0.002185  3.935842  0.004  0.561473  -0.001145  4.237325  0.0  0.596769  -0.000827  4.233963  0.0  0.211905  0.537477  -0.001457  4.238841  0.0
C  C41  1  0.31026391  0.90447314  0.10381817  1  0.609571  -0.002181  3.935881  -0.004  0.561592  0.001144  4.237249  0.0  0.596885  0.000826  4.233891  0.0  0.211962  0.537591  0.001457  4.238769  0.0
C  C42  1  0.81025595  0.40446748  0.39618290  1  0.609405  -0.002188  3.936128  -0.004  0.561423  0.001146  4.237497  0.0  0.596717  0.000827  4.234137  0.0  0.211842  0.537426  0.001459  4.239011  0.0
C  C43  1  0.68972998  0.09552799  0.89618034  1  0.609562  0.00219  3.935713  0.004  0.561567  -0.001145  4.237082  0.0  0.596862  -0.000827  4.233724  0.0  0.211987  0.537571  -0.001457  4.238596  0.0
N  N44  1  0.06227974  0.50399825  0.77161826  1  -0.251313  -0.065773  3.337268  -0.082  -0.211258  -0.051902  3.617875  -0.068  -0.23433  -0.042986  3.637597  -0.059  -0.324315  -0.198881  -0.056037  3.607944  -0.071
N  N45  1  0.43772315  0.99600255  0.27162065  1  -0.251249  0.065755  3.337119  0.082  -0.211309  0.051901  3.617893  0.068  -0.234361  0.042987  3.637584  0.059  -0.324248  -0.198918  0.056038  3.607936  0.071
N  N46  1  0.93772507  0.49600299  0.22837946  1  -0.251202  0.065733  3.33716  0.082  -0.211245  0.051902  3.617897  0.068  -0.2343  0.042987  3.637605  0.059  -0.324232  -0.198865  0.056039  3.607955  0.071
N  N47  1  0.56227577  0.00399770  0.72838020  1  -0.251244  -0.065768  3.337137  -0.082  -0.211308  -0.0519  3.617889  -0.068  -0.234371  -0.042985  3.637593  -0.059  -0.324278  -0.198936  -0.056037  3.60794  -0.071
N  N48  1  0.30937116  0.31491733  0.74669148  1  -0.227063  -0.06778  3.307694  -0.084  -0.178454  -0.052349  3.597859  -0.069  -0.203722  -0.043125  3.61657  -0.059  -0.326597  -0.164511  -0.056543  3.588181  -0.071
N  N49  1  0.19062513  0.18508122  0.24669292  1  -0.227194  0.067814  3.307845  0.084  -0.178609  0.052349  3.598012  0.069  -0.203869  0.043126  3.616719  0.059  -0.326633  -0.164617  0.056544  3.588296  0.071
N  N50  1  0.69062874  0.68508105  0.25330625  1  -0.227188  0.06785  3.307903  0.084  -0.178615  0.052349  3.598076  0.069  -0.203871  0.043126  3.616767  0.059  -0.326659  -0.164649  0.056545  3.588374  0.071
N  N51  1  0.80937827  0.81492094  0.75330870  1  -0.227184  -0.067805  3.307954  -0.084  -0.178564  -0.05235  3.598087  -0.069  -0.203842  -0.043127  3.616811  -0.059  -0.326593  -0.164548  -0.056547  3.588334  -0.071
Cl  Cl52  1  0.66207113  0.59338946  0.90680767  1  -0.502005  -0.121678  0.988457  -0.144  -0.507171  -0.072698  1.274789  -0.092  -0.54166  -0.056319  1.253757  -0.074  -0.281658  -0.484924  -0.079321  1.290604  -0.097
Cl  Cl53  1  0.83792699  0.90661201  0.40680779  1  -0.502028  0.121668  0.988442  0.144  -0.507198  0.072691  1.274782  0.092  -0.541669  0.056317  1.253725  0.074  -0.281659  -0.48493  0.079322  1.290577  0.097
Cl  Cl54  1  0.33793228  0.40661270  0.09319161  1  -0.502034  0.121679  0.988432  0.144  -0.507208  0.072694  1.274745  0.092  -0.541683  0.056319  1.253711  0.074  -0.281662  -0.484954  0.079325  1.290559  0.097
Cl  Cl55  1  0.16206927  0.09338633  0.59318993  1  -0.50205  -0.121678  0.988468  -0.144  -0.507206  -0.0727  1.274803  -0.092  -0.541687  -0.05632  1.253749  -0.074  -0.281673  -0.484956  -0.079325  1.290609  -0.097
O  O56  1  0.29778848  0.59222011  0.51841441  1  -0.561448  -0.014307  1.976017  -0.018  -0.51265  -0.008029  2.192359  -0.011  -0.540098  -0.003902  2.185056  -0.006  -0.288861  -0.492367  -0.012552  2.196134  -0.016
O  O57  1  0.20221028  0.90777982  0.01841431  1  -0.561433  0.014307  1.97602  0.018  -0.512682  0.008028  2.192327  0.011  -0.540126  0.003901  2.185022  0.006  -0.288872  -0.492395  0.01255  2.196104  0.016
O  O58  1  0.70219546  0.40777905  0.48158332  1  -0.561362  0.014306  1.976226  0.018  -0.512588  0.008027  2.19252  0.011  -0.540034  0.003901  2.18522  0.006  -0.288793  -0.492303  0.012549  2.19629  0.016
O  O59  1  0.79778906  0.09222137  0.98158809  1  -0.56148  -0.014309  1.975857  -0.018  -0.512728  -0.008029  2.192168  -0.011  -0.540176  -0.003902  2.184865  -0.006  -0.288912  -0.492445  -0.012551  2.195943  -0.016
O  O60  1  0.07409274  0.67942161  0.63054076  1  -0.569727  -0.078943  2.039142  -0.105  -0.54178  -0.05577  2.31526  -0.08  -0.582309  -0.042927  2.306854  -0.065  -0.318249  -0.514759  -0.063773  2.320952  -0.088
O  O61  1  0.42592188  0.82058258  0.13053785  1  -0.569728  0.078951  2.039176  0.105  -0.541841  0.055771  2.315274  0.08  -0.582357  0.04293  2.306846  0.065  -0.318271  -0.514807  0.063774  2.320953  0.088
O  O62  1  0.92591976  0.32058064  0.36946164  1  -0.569731  0.078947  2.039357  0.105  -0.54183  0.055764  2.315439  0.08  -0.582344  0.042925  2.307023  0.065  -0.318255  -0.514808  0.063767  2.321131  0.088
O  O63  1  0.57407341  0.17941763  0.86946143  1  -0.569714  -0.07895  2.039236  -0.105  -0.541813  -0.055769  2.31532  -0.08  -0.582336  -0.042925  2.306901  -0.065  -0.318268  -0.514792  -0.063771  2.321006  -0.088
O  O64  1  0.27438449  0.75465290  0.86664841  1  -0.846823  0.001414  1.945082  0.001  -0.805131  0.000155  2.12972  -0.001  -0.831026  0.000399  2.09544  0.0  -0.608252  -0.786589  -0.000134  2.153005  -0.001
O  O65  1  0.22561653  0.74534819  0.36664838  1  -0.846846  -0.001418  1.945096  -0.001  -0.805179  -0.000155  2.129725  0.001  -0.831061  -0.000399  2.095433  0.0  -0.608268  -0.78662  0.000134  2.153009  0.001
O  O66  1  0.72561933  0.24535021  0.13335165  1  -0.84686  -0.001413  1.94503  -0.001  -0.805151  -0.000155  2.129685  0.001  -0.831034  -0.000398  2.095407  0.0  -0.608296  -0.786604  0.000134  2.152972  0.001
O  O67  1  0.77438100  0.25465298  0.63335168  1  -0.846697  0.001418  1.945131  0.001  -0.804998  0.000155  2.129845  -0.001  -0.830887  0.000399  2.095561  0.0  -0.608204  -0.786454  -0.000134  2.153122  -0.001
