# generated using pymatgen
data_Cu4H24C25I4(NO)4
_symmetry_space_group_name_H-M   'P 1'
_cell_length_a   11.77257867
_cell_length_b   12.84410460
_cell_length_c   12.89789743
_cell_angle_alpha   78.41701262
_cell_angle_beta   62.84645219
_cell_angle_gamma   63.89877468
_symmetry_Int_Tables_number   1
_chemical_formula_structural   Cu4H24C25I4(NO)4
_chemical_formula_sum   'Cu8 H48 C50 I8 N8 O8'
_cell_volume   1558.35131526
_cell_formula_units_Z   2
loop_
 _symmetry_equiv_pos_site_id
 _symmetry_equiv_pos_as_xyz
  1  'x, y, z'
loop_
 _atom_site_type_symbol
 _atom_site_label
 _atom_site_symmetry_multiplicity
 _atom_site_fract_x
 _atom_site_fract_y
 _atom_site_fract_z
 _atom_site_occupancy
 _atom_site_hle17_bader_spin_density
 _atom_site_hle17_ddec_charge
 _atom_site_hle17_ddec_spin_density
 _atom_site_hle17_ddec_sum_bond_order
 _atom_site_hle17_magmom
 _atom_site_hse06_10hf_bader_spin_density
 _atom_site_hse06_10hf_ddec_charge
 _atom_site_hse06_10hf_ddec_spin_density
 _atom_site_hse06_10hf_ddec_sum_bond_order
 _atom_site_hse06_10hf_magmom
 _atom_site_hse06_bader_spin_density
 _atom_site_hse06_ddec_charge
 _atom_site_hse06_ddec_spin_density
 _atom_site_hse06_ddec_sum_bond_order
 _atom_site_hse06_magmom
 _atom_site_pbe_bader_charge
 _atom_site_pbe_bader_spin_density
 _atom_site_pbe_cm5_charge
 _atom_site_pbe_ddec_charge
 _atom_site_pbe_ddec_spin_density
 _atom_site_pbe_ddec_sum_bond_order
 _atom_site_pbe_magmom
Cu  Cu0  1  0.83743138  0.28024453  0.14163093  1  0  0.203414  0  2.257105  0  0  0.14087  0  2.708162  0  0  0.152608  0  2.653552  0  0.387191  0  0.238533  0.134767  0  2.743933  0
Cu  Cu1  1  0.75982532  0.21984942  0.35510596  1  0  0.201884  0  2.269086  0  0  0.140487  0  2.719503  0  0  0.151792  0  2.665536  0  0.390466  0  0.239236  0.134296  0  2.755276  0
Cu  Cu2  1  0.97951127  0.85814406  0.78249084  1  0  0.203901  0  2.256969  0  0  0.141852  0  2.70704  0  0  0.153164  0  2.653197  0  0.390511  0  0.238215  0.135766  0  2.742448  0
Cu  Cu3  1  0.11172995  0.64566784  0.72177655  1  0  0.201412  0  2.266312  0  0  0.138943  0  2.717549  0  0  0.150782  0  2.662827  0  0.383601  0  0.238534  0.133033  0  2.753214  0
Cu  Cu4  1  0.16256760  0.71974996  0.85837018  1  0  0.203513  0  2.257114  0  0  0.140982  0  2.708146  0  0  0.152745  0  2.653527  0  0.387166  0  0.23859  0.134888  0  2.743889  0
Cu  Cu5  1  0.24017315  0.78014899  0.64489602  1  0  0.201886  0  2.269199  0  0  0.140535  0  2.719487  0  0  0.151814  0  2.665509  0  0.390489  0  0.23923  0.134295  0  2.755344  0
Cu  Cu6  1  0.02048488  0.14185466  0.21750941  1  0  0.203898  0  2.256965  0  0  0.14187  0  2.707057  0  0  0.153198  0  2.653218  0  0.39027  0  0.238226  0.135785  0  2.742484  0
Cu  Cu7  1  0.88826765  0.35433328  0.27822369  1  0  0.201434  0  2.266173  0  0  0.139005  0  2.717409  0  0  0.150848  0  2.662688  0  0.383652  0  0.238567  0.133087  0  2.753099  0
H  H8  1  0.85639209  0.17409088  0.94507612  1  0  0.074725  0  0.978117  0  0  0.077106  0  1.057577  0  0  0.079608  0  1.055815  0  0.114109  0  0.093378  0.075143  0  1.059021  0
H  H9  1  0.47774661  0.32559104  0.55153381  1  0  0.074322  0  0.978478  0  0  0.076933  0  1.057753  0  0  0.079515  0  1.055833  0  0.104264  0  0.092608  0.074717  0  1.059679  0
H  H10  1  0.80689398  0.05064963  0.67271490  1  0  0.074084  0  0.981888  0  0  0.076983  0  1.060887  0  0  0.079507  0  1.058984  0  0.103626  0  0.092351  0.074984  0  1.062369  0
H  H11  1  0.02771384  0.44672374  0.82779085  1  0  0.074407  0  0.979287  0  0  0.076803  0  1.058718  0  0  0.079311  0  1.056905  0  0.083793  0  0.092738  0.07481  0  1.060285  0
H  H12  1  0.14360910  0.82590559  0.05492238  1  0  0.074705  0  0.978135  0  0  0.077075  0  1.057616  0  0  0.079574  0  1.055861  0  0.114159  0  0.093379  0.075111  0  1.059061  0
H  H13  1  0.52225262  0.67440931  0.44846469  1  0  0.074343  0  0.978462  0  0  0.076949  0  1.057736  0  0  0.079532  0  1.055815  0  0.104267  0  0.092612  0.074736  0  1.059659  0
H  H14  1  0.19309997  0.94935215  0.32728360  1  0  0.074063  0  0.981867  0  0  0.076985  0  1.060849  0  0  0.079505  0  1.058926  0  0.103712  0  0.092349  0.074988  0  1.062329  0
H  H15  1  0.97229178  0.55327634  0.17220504  1  0  0.074448  0  0.979253  0  0  0.076838  0  1.058711  0  0  0.07934  0  1.056902  0  0.083768  0  0.09272  0.074855  0  1.060239  0
H  H16  1  0.69458889  0.50958547  0.06320723  1  0  0.090784  0  0.952879  0  0  0.09712  0  1.02335  0  0  0.100733  0  1.019641  0  0.126348  0  0.10305  0.094214  0  1.026562  0
H  H17  1  0.76540107  0.99095191  0.43784810  1  0  0.092244  0  0.95153  0  0  0.098183  0  1.022215  0  0  0.101787  0  1.018507  0  0.108626  0  0.104731  0.09535  0  1.025346  0
H  H18  1  0.75448467  0.93941768  0.01109671  1  0  0.092253  0  0.95228  0  0  0.097941  0  1.023597  0  0  0.101452  0  1.019998  0  0.113296  0  0.103851  0.095076  0  1.026759  0
H  H19  1  0.20137018  0.56435568  0.49135454  1  0  0.091621  0  0.952226  0  0  0.097751  0  1.022774  0  0  0.101346  0  1.01907  0  0.120384  0  0.10445  0.094868  0  1.026023  0
H  H20  1  0.30541805  0.49041155  0.93679214  1  0  0.090692  0  0.952879  0  0  0.097076  0  1.023315  0  0  0.100687  0  1.019608  0  0.126347  0  0.103046  0.094167  0  1.026532  0
H  H21  1  0.23459388  0.00904758  0.56215301  1  0  0.092253  0  0.951539  0  0  0.098188  0  1.022215  0  0  0.10179  0  1.018508  0  0.10858  0  0.104734  0.095355  0  1.025342  0
H  H22  1  0.24551685  0.06058073  0.98889918  1  0  0.092239  0  0.952241  0  0  0.097923  0  1.023556  0  0  0.10145  0  1.019943  0  0.113199  0  0.103838  0.095059  0  1.026718  0
H  H23  1  0.79863258  0.43564630  0.50864135  1  0  0.091678  0  0.952243  0  0  0.097814  0  1.022781  0  0  0.101395  0  1.019088  0  0.119967  0  0.104467  0.094928  0  1.026029  0
H  H24  1  0.77826720  0.24775543  0.78350335  1  0  0.098245  0  0.964389  0  0  0.11067  0  1.019445  0  0  0.112802  0  1.019879  0  0.073362  0  0.103313  0.109144  0  1.019275  0
H  H25  1  0.31202094  0.24961367  0.71427942  1  0  0.097652  0  0.961596  0  0  0.110257  0  1.016987  0  0  0.11247  0  1.017326  0  0.081979  0  0.102718  0.108899  0  1.016406  0
H  H26  1  0.56853207  0.21030949  0.74525086  1  0  0.097627  0  0.961583  0  0  0.110573  0  1.016037  0  0  0.112659  0  1.01654  0  0.095168  0  0.102991  0.10923  0  1.015491  0
H  H27  1  0.02714259  0.28204993  0.75207793  1  0  0.096908  0  0.963855  0  0  0.109616  0  1.018979  0  0  0.111817  0  1.019261  0  0.093469  0  0.102297  0.108063  0  1.018858  0
H  H28  1  0.22172929  0.75224487  0.21649689  1  0  0.098202  0  0.964508  0  0  0.110646  0  1.019541  0  0  0.112775  0  1.019977  0  0.073361  0  0.103298  0.109118  0  1.019374  0
H  H29  1  0.68797844  0.75038907  0.28572170  1  0  0.097599  0  0.961634  0  0  0.110224  0  1.017001  0  0  0.112435  0  1.017342  0  0.082002  0  0.102709  0.108867  0  1.016422  0
H  H30  1  0.43146282  0.78969591  0.25475200  1  0  0.097597  0  0.961507  0  0  0.11054  0  1.015974  0  0  0.112641  0  1.016461  0  0.095251  0  0.102986  0.109199  0  1.015427  0
H  H31  1  0.97286062  0.71795169  0.24791970  1  0  0.096888  0  0.963851  0  0  0.109598  0  1.018975  0  0  0.111798  0  1.019257  0  0.093484  0  0.102299  0.108041  0  1.018854  0
H  H32  1  0.43187418  0.74240214  0.88524800  1  0  0.072512  0  0.941946  0  0  0.081064  0  1.013399  0  0  0.081165  0  1.013853  0  0.089829  0  0.102479  0.081002  0  1.012993  0
H  H33  1  0.55977266  0.75156385  0.61781169  1  0  0.072241  0  0.945748  0  0  0.080575  0  1.017617  0  0  0.080717  0  1.01793  0  0.076041  0  0.102235  0.080285  0  1.017702  0
H  H34  1  0.31397759  0.11566828  0.24505730  1  0  0.071612  0  0.946439  0  0  0.079792  0  1.017957  0  0  0.079861  0  1.018347  0  0.057287  0  0.102227  0.079715  0  1.017638  0
H  H35  1  0.17736216  0.38085139  0.25382923  1  0  0.072769  0  0.941517  0  0  0.080619  0  1.013719  0  0  0.08077  0  1.013964  0  0.09191  0  0.102079  0.080373  0  1.013851  0
H  H36  1  0.56813007  0.25759881  0.11475660  1  0  0.072526  0  0.941835  0  0  0.081022  0  1.013358  0  0  0.081123  0  1.013811  0  0.089675  0  0.102438  0.08096  0  1.012954  0
H  H37  1  0.44022530  0.24843848  0.38219117  1  0  0.072222  0  0.945786  0  0  0.080554  0  1.017646  0  0  0.080696  0  1.017956  0  0.07631  0  0.102228  0.080264  0  1.017733  0
H  H38  1  0.68602484  0.88433176  0.75494120  1  0  0.07161  0  0.946454  0  0  0.079784  0  1.01797  0  0  0.07985  0  1.018359  0  0.057263  0  0.102223  0.079704  0  1.017651  0
H  H39  1  0.82264024  0.61914667  0.74616753  1  0  0.072774  0  0.941513  0  0  0.080631  0  1.013704  0  0  0.080778  0  1.013951  0  0.091917  0  0.10208  0.080384  0  1.013833  0
H  H40  1  0.53180057  0.62477735  0.78684413  1  0  0.062328  0  0.982236  0  0  0.070264  0  1.059006  0  0  0.070874  0  1.058069  0  0.066652  0  0.093793  0.069746  0  1.059662  0
H  H41  1  0.44525873  0.86897585  0.71642033  1  0  0.062731  0  0.98108  0  0  0.070601  0  1.057876  0  0  0.071341  0  1.056766  0  0.107064  0  0.093921  0.07005  0  1.058641  0
H  H42  1  0.31851852  0.21258492  0.12601799  1  0  0.062811  0  0.980411  0  0  0.070828  0  1.056725  0  0  0.071375  0  1.0558  0  0.093225  0  0.094432  0.070323  0  1.05749  0
H  H43  1  0.16048023  0.28281185  0.37200067  1  0  0.062583  0  0.985355  0  0  0.070249  0  1.061744  0  0  0.070882  0  1.060754  0  0.08569  0  0.094193  0.069778  0  1.062477  0
H  H44  1  0.46819761  0.37522346  0.21316134  1  0  0.062256  0  0.982266  0  0  0.070204  0  1.059031  0  0  0.070809  0  1.058105  0  0.066596  0  0.093777  0.06969  0  1.059675  0
H  H45  1  0.55474043  0.13102302  0.28358514  1  0  0.06269  0  0.981107  0  0  0.070573  0  1.057899  0  0  0.071313  0  1.056785  0  0.107082  0  0.093904  0.070021  0  1.058668  0
H  H46  1  0.68148339  0.78741669  0.87398225  1  0  0.062845  0  0.980363  0  0  0.07083  0  1.056707  0  0  0.071378  0  1.055779  0  0.093203  0  0.094441  0.070323  0  1.057469  0
H  H47  1  0.83951956  0.71718891  0.62799783  1  0  0.062565  0  0.985369  0  0  0.070233  0  1.061766  0  0  0.070864  0  1.060776  0  0.085693  0  0.094196  0.069763  0  1.062494  0
H  H48  1  0.64961210  0.45911060  0.76441719  1  0  0.112352  0  0.964021  0  0  0.121508  0  1.028415  0  0  0.125571  0  1.024364  0  0.092842  0  0.103204  0.118346  0  1.031687  0
H  H49  1  0.37403328  0.03709636  0.73612080  1  0  0.112639  0  0.970091  0  0  0.121104  0  1.035556  0  0  0.125047  0  1.031706  0  0.098209  0  0.101155  0.117975  0  1.03884  0
H  H50  1  0.41691680  0.23264715  0.95800006  1  0  0.113593  0  0.96386  0  0  0.12225  0  1.028976  0  0  0.126307  0  1.024962  0  0.117372  0  0.102367  0.118942  0  1.032461  0
H  H51  1  0.11078871  0.26170480  0.53901592  1  0  0.110966  0  0.968079  0  0  0.120302  0  1.03233  0  0  0.124323  0  1.028356  0  0.111795  0  0.101207  0.117175  0  1.035583  0
H  H52  1  0.35038136  0.54089205  0.23558828  1  0  0.112325  0  0.964056  0  0  0.121503  0  1.02843  0  0  0.125566  0  1.024378  0  0.093008  0  0.103206  0.118334  0  1.031711  0
H  H53  1  0.62596633  0.96290485  0.26388293  1  0  0.112656  0  0.970045  0  0  0.121122  0  1.035513  0  0  0.125064  0  1.031661  0  0.098239  0  0.101162  0.117997  0  1.038789  0
H  H54  1  0.58308158  0.76735284  0.04200280  1  0  0.113602  0  0.963836  0  0  0.122259  0  1.028952  0  0  0.12632  0  1.024933  0  0.117371  0  0.102375  0.118948  0  1.032438  0
H  H55  1  0.88921220  0.73829677  0.46098258  1  0  0.111036  0  0.968088  0  0  0.120384  0  1.032318  0  0  0.124407  0  1.028344  0  0.112051  0  0.101227  0.117242  0  1.035588  0
C  C56  1  0.80138923  0.26649150  0.93354025  1  0  0.071392  0  3.708089  0  0  0.036067  0  3.968492  0  0  0.041494  0  3.98476  0  0.412378  0  0.016598  0.03237  0  3.95783  0
C  C57  1  0.50273974  0.23281104  0.56432530  1  0  0.07211  0  3.7033  0  0  0.036419  0  3.963722  0  0  0.041895  0  3.979802  0  0.475298  0  0.016497  0.032671  0  3.953603  0
C  C58  1  0.73886145  0.06331014  0.76555082  1  0  0.069062  0  3.704883  0  0  0.03289  0  3.966156  0  0  0.038339  0  3.982285  0  0.366519  0  0.015496  0.029175  0  3.955856  0
C  C59  1  0.06572326  0.43446614  0.73473622  1  0  0.073773  0  3.705491  0  0  0.037904  0  3.96553  0  0  0.04339  0  3.982031  0  0.448038  0  0.017182  0.034133  0  3.954943  0
C  C60  1  0.19861000  0.73350651  0.06645913  1  0  0.071404  0  3.708045  0  0  0.036085  0  3.968425  0  0  0.041515  0  3.984692  0  0.412407  0  0.01661  0.032389  0  3.957763  0
C  C61  1  0.49725862  0.76718931  0.43567494  1  0  0.072131  0  3.703175  0  0  0.036451  0  3.963616  0  0  0.041929  0  3.979695  0  0.475304  0  0.016528  0.032704  0  3.953494  0
C  C62  1  0.26113450  0.93669210  0.23444855  1  0  0.068981  0  3.70485  0  0  0.032778  0  3.966141  0  0  0.038239  0  3.982287  0  0.366397  0  0.015427  0.029062  0  3.955844  0
C  C63  1  0.93428227  0.56553553  0.26526054  1  0  0.073653  0  3.705741  0  0  0.037773  0  3.965787  0  0  0.04326  0  3.982286  0  0.447653  0  0.017172  0.034009  0  3.955206  0
C  C64  1  0.71176508  0.45327871  0.99985908  1  0  0.009857  0  3.65311  0  0  -0.031264  0  3.911847  0  0  -0.027492  0  3.927162  0  0.491161  0  0.025426  -0.03405  0  3.902451  0
C  C65  1  0.66391571  0.04655090  0.50041837  1  0  0.009864  0  3.659053  0  0  -0.031254  0  3.917096  0  0  -0.027471  0  3.932447  0  0.501081  0  0.024419  -0.034059  0  3.90786  0
C  C66  1  0.71076338  0.00085895  0.95379402  1  0  0.009213  0  3.659114  0  0  -0.031739  0  3.917715  0  0  -0.027846  0  3.932972  0  0.534308  0  0.024645  -0.034632  0  3.908669  0
C  C67  1  0.16266128  0.50066484  0.54743582  1  0  0.008847  0  3.662096  0  0  -0.032788  0  3.919673  0  0  -0.028961  0  3.93513  0  0.537292  0  0.023626  -0.035603  0  3.910259  0
C  C68  1  0.28823778  0.54671862  0.00014203  1  0  0.010037  0  3.652996  0  0  -0.031129  0  3.911689  0  0  -0.027361  0  3.927013  0  0.491248  0  0.025448  -0.033918  0  3.902295  0
C  C69  1  0.33607935  0.95344899  0.49958361  1  0  0.009822  0  3.659068  0  0  -0.031241  0  3.917089  0  0  -0.027461  0  3.932433  0  0.501056  0  0.024407  -0.034051  0  3.907872  0
C  C70  1  0.28923662  0.99914063  0.04620448  1  0  0.00923  0  3.659122  0  0  -0.031697  0  3.917686  0  0  -0.027827  0  3.932941  0  0.534354  0  0.024681  -0.034589  0  3.908642  0
C  C71  1  0.83734336  0.49933718  0.45256006  1  0  0.008803  0  3.662124  0  0  -0.032834  0  3.919677  0  0  -0.029002  0  3.935158  0  0.538056  0  0.023663  -0.035642  0  3.910259  0
C  C72  1  0.66202832  0.50135447  0.91345115  1  0  0.235657  0  3.802394  0  0  0.229102  0  4.064056  0  0  0.236992  0  4.080839  0  0.473032  0  0.089859  0.223298  0  4.053069  0
C  C73  1  0.57628524  0.99703838  0.58768023  1  0  0.232752  0  3.805636  0  0  0.227327  0  4.065401  0  0  0.235122  0  4.082389  0  0.49223  0  0.090242  0.221624  0  4.054356  0
C  C74  1  0.57521634  0.08660097  0.00143599  1  0  0.231552  0  3.808075  0  0  0.225255  0  4.069  0  0  0.233074  0  4.08592  0  0.485112  0  0.088657  0.21955  0  4.057934  0
C  C75  1  0.16315853  0.41256640  0.49811102  1  0  0.234663  0  3.808781  0  0  0.229002  0  4.068608  0  0  0.236771  0  4.085509  0  0.396269  0  0.090043  0.223297  0  4.057498  0
C  C76  1  0.33797291  0.49864363  0.08655170  1  0  0.235574  0  3.802298  0  0  0.229057  0  4.063951  0  0  0.236951  0  4.08073  0  0.472962  0  0.08986  0.223258  0  4.052958  0
C  C77  1  0.42371149  0.00296274  0.41232176  1  0  0.23286  0  3.805529  0  0  0.227402  0  4.065354  0  0  0.23523  0  4.082342  0  0.492273  0  0.090262  0.22169  0  4.05432  0
C  C78  1  0.42478225  0.91340055  0.99856338  1  0  0.23151  0  3.808146  0  0  0.225201  0  4.069088  0  0  0.233015  0  4.086013  0  0.485128  0  0.088648  0.219498  0  4.05802  0
C  C79  1  0.83684521  0.58743363  0.50188486  1  0  0.234603  0  3.808827  0  0  0.228947  0  4.068602  0  0  0.236717  0  4.085491  0  0.396202  0  0.090005  0.22324  0  4.057494  0
C  C80  1  0.75665247  0.30835902  0.84477704  1  0  -0.086076  0  3.768378  0  0  -0.094627  0  4.015529  0  0  -0.09878  0  4.036381  0  -0.045081  0  -0.085877  -0.0922  0  4.001823  0
C  C81  1  0.41137410  0.18960599  0.65384658  1  0  -0.081535  0  3.761061  0  0  -0.090549  0  4.007978  0  0  -0.09457  0  4.028501  0  -0.028472  0  -0.082629  -0.088104  0  3.994261  0
C  C82  1  0.60593382  0.15115746  0.80687658  1  0  -0.082606  0  3.762205  0  0  -0.091547  0  4.009696  0  0  -0.095558  0  4.030416  0  0.037797  0  -0.083456  -0.089168  0  3.995934  0
C  C83  1  0.06516267  0.34390321  0.69163290  1  0  -0.083999  0  3.766983  0  0  -0.092783  0  4.014099  0  0  -0.096957  0  4.034989  0  -0.012705  0  -0.085309  -0.090269  0  4.000318  0
C  C84  1  0.24334567  0.69164016  0.15522407  1  0  -0.086016  0  3.768506  0  0  -0.094579  0  4.015659  0  0  -0.098731  0  4.036508  0  -0.045062  0  -0.085862  -0.09215  0  4.00195  0
C  C85  1  0.58862429  0.81039635  0.34615540  1  0  -0.081529  0  3.761037  0  0  -0.090552  0  4.007948  0  0  -0.094573  0  4.028476  0  -0.028423  0  -0.082657  -0.088108  0  3.994235  0
C  C86  1  0.39406280  0.84884560  0.19312366  1  0  -0.082478  0  3.762028  0  0  -0.091414  0  4.009507  0  0  -0.095441  0  4.030223  0  0.037792  0  -0.083398  -0.089036  0  3.995747  0
C  C87  1  0.93484196  0.65609647  0.30836386  1  0  -0.083919  0  3.767119  0  0  -0.092704  0  4.014225  0  0  -0.096874  0  4.035113  0  -0.012522  0  -0.085286  -0.090187  0  4.000439  0
C  C88  1  0.62494097  0.74931494  0.75100790  1  0  0.010928  0  3.604701  0  0  0.025232  0  3.847599  0  0  0.021744  0  3.864333  0  0.031127  0  -0.031756  0.027481  0  3.836473  0
C  C89  1  0.37506092  0.25068433  0.24899321  1  0  0.010841  0  3.604791  0  0  0.025146  0  3.847699  0  0  0.021677  0  3.864382  0  0.031063  0  -0.031795  0.027399  0  3.836575  0
C  C90  1  0.53858666  0.68169319  0.83488455  1  0  0.042729  0  3.56352  0  0  -0.017923  0  3.816205  0  0  -0.010232  0  3.822874  0  0.393008  0  -0.068259  -0.023046  0  3.811508  0
C  C91  1  0.55544718  0.81406037  0.66783009  1  0  0.043455  0  3.567791  0  0  -0.017242  0  3.82014  0  0  -0.009504  0  3.826541  0  0.36113  0  -0.06786  -0.022362  0  3.815739  0
C  C92  1  0.37184147  0.16592218  0.18285213  1  0  0.043936  0  3.565644  0  0  -0.016022  0  3.81699  0  0  -0.008092  0  3.823232  0  0.394735  0  -0.067391  -0.02119  0  3.812431  0
C  C93  1  0.22265247  0.33212361  0.31562225  1  0  0.041956  0  3.569162  0  0  -0.01742  0  3.819799  0  0  -0.0096  0  3.825945  0  0.377574  0  -0.068523  -0.022865  0  3.815803  0
C  C94  1  0.46141503  0.31830689  0.16511918  1  0  0.042814  0  3.563336  0  0  -0.017772  0  3.815949  0  0  -0.010082  0  3.82262  0  0.393229  0  -0.068198  -0.022892  0  3.81125  0
C  C95  1  0.44455175  0.18594002  0.33217277  1  0  0.043454  0  3.567849  0  0  -0.017213  0  3.820193  0  0  -0.009435  0  3.826574  0  0.360881  0  -0.067852  -0.022338  0  3.815797  0
C  C96  1  0.62816185  0.83407750  0.81714724  1  0  0.043885  0  3.565553  0  0  -0.016002  0  3.816801  0  0  -0.00807  0  3.823039  0  0.394723  0  -0.067377  -0.021186  0  3.812294  0
C  C97  1  0.77734885  0.66787562  0.68437625  1  0  0.042005  0  3.569136  0  0  -0.017425  0  3.819817  0  0  -0.009597  0  3.825957  0  0.377566  0  -0.068547  -0.022857  0  3.815807  0
C  C98  1  0.68485185  0.42698749  0.83378141  1  0  -0.132274  0  3.698253  0  0  -0.162267  0  3.952944  0  0  -0.161383  0  3.967729  0  0.078579  0  -0.088693  -0.162884  0  3.943636  0
C  C99  1  0.44637057  0.07037776  0.66644115  1  0  -0.13578  0  3.702084  0  0  -0.165688  0  3.957027  0  0  -0.164939  0  3.972054  0  -0.043673  0  -0.089961  -0.166289  0  3.947717  0
C  C100  1  0.52100293  0.16391321  0.92614854  1  0  -0.13272  0  3.697217  0  0  -0.162499  0  3.952094  0  0  -0.161688  0  3.966911  0  -0.020962  0  -0.087577  -0.163085  0  3.942984  0
C  C101  1  0.11268339  0.33215258  0.57209866  1  0  -0.133245  0  3.701618  0  0  -0.163474  0  3.955629  0  0  -0.162796  0  3.970755  0  0.028676  0  -0.087223  -0.163944  0  3.946057  0
C  C102  1  0.31514477  0.57301286  0.16622232  1  0  -0.132302  0  3.698339  0  0  -0.162341  0  3.953048  0  0  -0.161461  0  3.967835  0  0.078356  0  -0.088722  -0.162956  0  3.943746  0
C  C103  1  0.55362628  0.92962376  0.33356171  1  0  -0.135834  0  3.701964  0  0  -0.165729  0  3.956921  0  0  -0.16498  0  3.971941  0  -0.043664  0  -0.089991  -0.16633  0  3.947615  0
C  C104  1  0.47899611  0.83608795  0.07385257  1  0  -0.132758  0  3.697189  0  0  -0.16254  0  3.952063  0  0  -0.161733  0  3.966886  0  -0.021074  0  -0.087604  -0.163121  0  3.942953  0
C  C105  1  0.88731982  0.66784903  0.42789897  1  0  -0.133336  0  3.701706  0  0  -0.163565  0  3.955657  0  0  -0.16289  0  3.970784  0  0.028405  0  -0.087277  -0.164021  0  3.946092  0
I  I106  1  0.86565630  0.06009929  0.17969869  1  0  -0.339598  0  1.464803  0  0  -0.300677  0  1.851577  0  0  -0.311317  0  1.815184  0  -0.41999  0  -0.179305  -0.292773  0  1.876481  0
I  I107  1  0.61307737  0.43809354  0.31736496  1  0  -0.341009  0  1.448254  0  0  -0.302423  0  1.830507  0  0  -0.313078  0  1.794725  0  -0.422393  0  -0.180237  -0.294156  0  1.854962  0
I  I108  1  0.04900527  0.81923494  0.56181493  1  0  -0.340204  0  1.460326  0  0  -0.301828  0  1.845955  0  0  -0.312377  0  1.809766  0  -0.419983  0  -0.178645  -0.293773  0  1.870233  0
I  I109  1  0.92404003  0.68316549  0.94185733  1  0  -0.339377  0  1.452371  0  0  -0.300464  0  1.836806  0  0  -0.311064  0  1.80061  0  -0.422871  0  -0.179532  -0.292442  0  1.861157  0
I  I110  1  0.13433973  0.93989632  0.82030416  1  0  -0.339634  0  1.46485  0  0  -0.300703  0  1.851585  0  0  -0.311331  0  1.815183  0  -0.420188  0  -0.179319  -0.292787  0  1.876483  0
I  I111  1  0.38692300  0.56190961  0.68263528  1  0  -0.341018  0  1.44832  0  0  -0.302448  0  1.830584  0  0  -0.313098  0  1.794796  0  -0.422332  0  -0.180235  -0.294169  0  1.85504  0
I  I112  1  0.95099714  0.18076276  0.43818445  1  0  -0.340198  0  1.460266  0  0  -0.301827  0  1.845907  0  0  -0.312379  0  1.809712  0  -0.419989  0  -0.178645  -0.293783  0  1.870187  0
I  I113  1  0.07596029  0.31683099  0.05814291  1  0  -0.33936  0  1.452318  0  0  -0.30046  0  1.836753  0  0  -0.311061  0  1.800562  0  -0.422881  0  -0.179532  -0.292438  0  1.861116  0
N  N114  1  0.77831168  0.33882949  0.01055385  1  0  -0.232564  0  3.415446  0  0  -0.152783  0  3.688592  0  0  -0.166673  0  3.70348  0  -1.240018  0  -0.363804  -0.144065  0  3.678795  0
N  N115  1  0.62757119  0.16135136  0.48806256  1  0  -0.233215  0  3.418188  0  0  -0.153351  0  3.690874  0  0  -0.167203  0  3.705866  0  -1.239848  0  -0.365127  -0.144864  0  3.681403  0
N  N116  1  0.79021731  0.98862451  0.83888145  1  0  -0.231729  0  3.411509  0  0  -0.151809  0  3.683993  0  0  -0.165576  0  3.698785  0  -1.255531  0  -0.362708  -0.143452  0  3.674675  0
N  N117  1  0.11351246  0.51235233  0.66266121  1  0  -0.232633  0  3.423698  0  0  -0.151689  0  3.695357  0  0  -0.165807  0  3.710592  0  -1.256119  0  -0.364567  -0.142919  0  3.685477  0
N  N118  1  0.22168996  0.66116662  0.98944639  1  0  -0.232632  0  3.415579  0  0  -0.152845  0  3.688734  0  0  -0.166741  0  3.70363  0  -1.240104  0  -0.363855  -0.144128  0  3.678933  0
N  N119  1  0.37242662  0.83864858  0.51193769  1  0  -0.233256  0  3.418202  0  0  -0.153426  0  3.690903  0  0  -0.167274  0  3.705883  0  -1.239878  0  -0.365131  -0.144936  0  3.681421  0
N  N120  1  0.20977797  0.01137692  0.16111705  1  0  -0.231712  0  3.411506  0  0  -0.151787  0  3.683976  0  0  -0.165545  0  3.698767  0  -1.255415  0  -0.362723  -0.143434  0  3.67467  0
N  N121  1  0.88649184  0.48764811  0.33733468  1  0  -0.232512  0  3.423671  0  0  -0.151592  0  3.695341  0  0  -0.165712  0  3.710567  0  -1.25602  0  -0.364549  -0.142824  0  3.685463  0
O  O122  1  0.59339437  0.61880785  0.91877862  1  0  -0.285812  0  2.366103  0  0  -0.210555  0  2.599481  0  0  -0.231363  0  2.607147  0  -1.097116  0  -0.174729  -0.195811  0  2.593737  0
O  O123  1  0.62996878  0.87928391  0.58347333  1  0  -0.283817  0  2.367989  0  0  -0.208349  0  2.600726  0  0  -0.229192  0  2.608501  0  -1.074199  0  -0.175377  -0.193677  0  2.595034  0
O  O124  1  0.51004483  0.08268406  0.11958129  1  0  -0.284835  0  2.371911  0  0  -0.209158  0  2.604494  0  0  -0.230032  0  2.612279  0  -1.099097  0  -0.17547  -0.194506  0  2.598741  0
O  O125  1  0.21302922  0.41721870  0.37989689  1  0  -0.283294  0  2.368981  0  0  -0.208296  0  2.601229  0  0  -0.228895  0  2.608627  0  -1.075195  0  -0.174936  -0.193495  0  2.595623  0
O  O126  1  0.40660873  0.38119029  0.08122424  1  0  -0.285733  0  2.365972  0  0  -0.210494  0  2.59935  0  0  -0.231305  0  2.607017  0  -1.09708  0  -0.17469  -0.195754  0  2.593603  0
O  O127  1  0.37002752  0.12071720  0.41652953  1  0  -0.283778  0  2.367954  0  0  -0.208363  0  2.600749  0  0  -0.229286  0  2.608566  0  -1.074267  0  -0.175367  -0.193689  0  2.595063  0
O  O128  1  0.48995618  0.91731557  0.88041895  1  0  -0.284834  0  2.371844  0  0  -0.209167  0  2.604422  0  0  -0.230031  0  2.612201  0  -1.09904  0  -0.175485  -0.194513  0  2.598666  0
O  O129  1  0.78697024  0.58278282  0.62010074  1  0  -0.283358  0  2.368973  0  0  -0.208311  0  2.601185  0  0  -0.228912  0  2.608577  0  -1.075401  0  -0.174943  -0.193512  0  2.59558  0
