# generated using pymatgen
data_Zn4H24C30O13
_symmetry_space_group_name_H-M   'P 1'
_cell_length_a   17.93018171
_cell_length_b   18.23605883
_cell_length_c   18.25355556
_cell_angle_alpha   61.12342569
_cell_angle_beta   60.59464601
_cell_angle_gamma   60.55755977
_symmetry_Int_Tables_number   1
_chemical_formula_structural   Zn4H24C30O13
_chemical_formula_sum   'Zn8 H48 C60 O26'
_cell_volume   4292.31606018
_cell_formula_units_Z   2
loop_
 _symmetry_equiv_pos_site_id
 _symmetry_equiv_pos_as_xyz
  1  'x, y, z'
loop_
 _atom_site_type_symbol
 _atom_site_label
 _atom_site_symmetry_multiplicity
 _atom_site_fract_x
 _atom_site_fract_y
 _atom_site_fract_z
 _atom_site_occupancy
 _atom_site_pbe_bader_charge
 _atom_site_pbe_bader_spin_density
 _atom_site_pbe_cm5_charge
 _atom_site_pbe_ddec_charge
 _atom_site_pbe_ddec_spin_density
 _atom_site_pbe_ddec_sum_bond_order
 _atom_site_pbe_magmom
Zn  Zn0  1  0.04817259  0.04957833  0.85886861  1  1.299864  0  0.673668  0.959257  0  2.382587  0
Zn  Zn1  1  0.05096902  0.05405635  0.02985893  1  1.310224  0  0.672702  0.96378  0  2.362021  0
Zn  Zn2  1  0.05195610  0.87845359  0.03007245  1  1.312593  0  0.672712  0.964125  0  2.372584  0
Zn  Zn3  1  0.87261139  0.04974866  0.03322421  1  1.303053  0  0.67195  0.96927  0  2.354277  0
Zn  Zn4  1  0.46201689  0.46648432  0.61659231  1  1.306123  0  0.673046  0.95735  0  2.38378  0
Zn  Zn5  1  0.45914363  0.46673442  0.44344593  1  1.312399  0  0.673331  0.966567  0  2.358745  0
Zn  Zn6  1  0.63950768  0.46312222  0.44472760  1  1.305815  0  0.672138  0.970121  0  2.355951  0
Zn  Zn7  1  0.46365392  0.63817934  0.44685641  1  1.308532  0  0.672638  0.964005  0  2.376042  0
H  H8  1  0.31964783  0.09989255  0.81659533  1  0.062026  0  0.103589  0.108047  0  0.99716  0
H  H9  1  0.49241837  0.19044203  0.64298359  1  0.03905  0  0.092151  0.128196  0  0.997775  0
H  H10  1  0.46804795  0.10433308  0.74461769  1  0.027823  0  0.091638  0.124749  0  1.000004  0
H  H11  1  0.46983550  0.20186293  0.74335645  1  0.049328  0  0.096956  0.141678  0  0.991115  0
H  H12  1  0.19346623  0.41606026  0.65319826  1  0.056856  0  0.103867  0.108223  0  0.998742  0
H  H13  1  0.02059879  0.32628989  0.82658427  1  0.04862  0  0.093006  0.129771  0  0.995107  0
H  H14  1  0.04339913  0.31267639  0.72728606  1  0.065672  0  0.096839  0.14176  0  0.989777  0
H  H15  1  0.04517205  0.41121402  0.72386674  1  0.019509  0  0.091928  0.125621  0  1.000488  0
H  H16  1  0.09331103  0.77353529  0.82174815  1  0.079736  0  0.103552  0.107799  0  0.998038  0
H  H17  1  0.18414378  0.68054112  0.65084518  1  0.030002  0  0.092882  0.129317  0  0.991089  0
H  H18  1  0.09583041  0.69259195  0.75244435  1  0.024708  0  0.091336  0.124065  0  1.001485  0
H  H19  1  0.19409512  0.59518162  0.75158034  1  0.077591  0  0.097131  0.142191  0  0.989352  0
H  H20  1  0.41787995  0.74102043  0.65557700  1  0.057736  0  0.103623  0.108389  0  0.998017  0
H  H21  1  0.32745835  0.83269426  0.82738175  1  0.033938  0  0.093314  0.130283  0  0.991103  0
H  H22  1  0.31534070  0.91924656  0.72771045  1  0.082152  0  0.096952  0.141813  0  0.990379  0
H  H23  1  0.41486930  0.82309966  0.72472070  1  0.019476  0  0.092001  0.12573  0  1.000962  0
H  H24  1  0.76905888  0.31514273  0.82868202  1  0.059258  0  0.102871  0.106395  0  1.001319  0
H  H25  1  0.68095058  0.48947877  0.65649549  1  0.057061  0  0.093106  0.129937  0  0.990561  0
H  H26  1  0.69228190  0.46194549  0.75910186  1  0.021302  0  0.091229  0.12428  0  1.001208  0
H  H27  1  0.59225719  0.46558120  0.75663147  1  0.04777  0  0.097135  0.142194  0  0.989007  0
H  H28  1  0.73783207  0.20156557  0.65159121  1  0.048315  0  0.103372  0.107254  0  1.000958  0
H  H29  1  0.82443874  0.02738453  0.82468128  1  0.041326  0  0.092883  0.129849  0  0.990438  0
H  H30  1  0.91388194  0.05045257  0.72492435  1  0.043232  0  0.096742  0.142045  0  0.989553  0
H  H31  1  0.81392243  0.05464876  0.72177038  1  0.009605  0  0.091459  0.124681  0  1.000558  0
H  H32  1  0.32316089  0.78217976  0.07618275  1  0.065806  0  0.103286  0.107358  0  0.99996  0
H  H33  1  0.49295842  0.68887120  0.17345584  1  0.04269  0  0.092711  0.129478  0  0.99816  0
H  H34  1  0.47018895  0.69896307  0.08396779  1  0.026461  0  0.091842  0.125432  0  0.999547  0
H  H35  1  0.46958822  0.60219229  0.17950686  1  0.037925  0  0.09657  0.140819  0  0.99187  0
H  H36  1  0.19180591  0.74426683  0.39688251  1  0.065629  0  0.103091  0.106829  0  0.998293  0
H  H37  1  0.02181451  0.83751420  0.30041586  1  0.039879  0  0.092689  0.129721  0  0.996876  0
H  H38  1  0.04546884  0.92463297  0.29302709  1  0.062971  0  0.096691  0.141576  0  0.991716  0
H  H39  1  0.04513326  0.82837669  0.38914217  1  0.01497  0  0.091738  0.125274  0  1.001374  0
H  H40  1  0.77633006  0.09736217  0.29930279  1  0.048528  0  0.103114  0.107149  0  1.000538  0
H  H41  1  0.68843211  0.19158638  0.46772040  1  0.060676  0  0.092979  0.12905  0  0.990793  0
H  H42  1  0.69572701  0.10353483  0.44473704  1  0.047546  0  0.092343  0.12616  0  0.999854  0
H  H43  1  0.59649268  0.19994875  0.44855805  1  0.049618  0  0.095422  0.13824  0  0.994974  0
H  H44  1  0.73114175  0.41875110  0.17635897  1  0.07901  0  0.1029  0.10657  0  0.998423  0
H  H45  1  0.82197062  0.32224888  0.00801906  1  0.042297  0  0.092775  0.12893  0  0.991854  0
H  H46  1  0.91095865  0.31909707  0.02755724  1  0.045426  0  0.095855  0.139435  0  0.994065  0
H  H47  1  0.80919080  0.41289100  0.03090069  1  0.03301  0  0.091295  0.12461  0  1.000171  0
H  H48  1  0.77275407  0.83661859  0.08120736  1  0.078849  0  0.103733  0.108063  0  0.998567  0
H  H49  1  0.68128804  0.66286144  0.17350225  1  0.043946  0  0.092639  0.128894  0  0.993558  0
H  H50  1  0.69282928  0.76299262  0.08581608  1  0.020367  0  0.091727  0.125588  0  0.99981  0
H  H51  1  0.59394528  0.76498161  0.18229139  1  0.046869  0  0.09602  0.139207  0  0.994663  0
H  H52  1  0.74790528  0.67203350  0.39659253  1  0.075768  0  0.103609  0.107576  0  0.999109  0
H  H53  1  0.84035928  0.84475303  0.30468164  1  0.041077  0  0.092506  0.128727  0  0.994584  0
H  H54  1  0.92720676  0.74259355  0.29555913  1  0.051759  0  0.096248  0.139855  0  0.990874  0
H  H55  1  0.82837090  0.74456486  0.39207741  1  0.028649  0  0.091363  0.124871  0  0.999903  0
C  C56  1  0.14313626  0.14783353  0.84934732  1  1.574547  0  0.23304  0.625634  0  4.140883  0
C  C57  1  0.20012783  0.20665016  0.79033947  1  -0.056564  0  -0.015032  -0.083364  0  3.959579  0
C  C58  1  0.29249403  0.16980690  0.78039860  1  -0.052904  0  -0.087631  -0.162842  0  3.966973  0
C  C59  1  0.35094601  0.21954419  0.72511800  1  0.092307  0  -0.003382  0.151388  0  3.963431  0
C  C60  1  0.45060484  0.17661697  0.71362679  1  -0.044138  0  -0.237216  -0.409273  0  3.980474  0
C  C61  1  0.31280314  0.30949612  0.67992177  1  -0.045055  0  -0.015706  -0.084095  0  3.955185  0
C  C62  1  0.22051669  0.34617512  0.68951763  1  0.018655  0  -0.087427  -0.161708  0  3.966519  0
C  C63  1  0.16210508  0.29642064  0.74474389  1  -0.032944  0  -0.00365  0.151879  0  3.968015  0
C  C64  1  0.06253274  0.33906797  0.75599095  1  -0.046994  0  -0.237891  -0.41239  0  3.982459  0
C  C65  1  0.36890127  0.36918433  0.62235199  1  1.56286  0  0.233034  0.624811  0  4.135133  0
C  C66  1  0.14466659  0.86838295  0.85097408  1  1.540209  0  0.233315  0.625167  0  4.136915  0
C  C67  1  0.20397565  0.81038316  0.79319436  1  -0.038052  0  -0.014463  -0.080663  0  3.955295  0
C  C68  1  0.16511236  0.76555279  0.78507296  1  -0.067342  0  -0.087681  -0.163822  0  3.968788  0
C  C69  1  0.21509038  0.71179321  0.73075737  1  0.071774  0  -0.002193  0.154532  0  3.964395  0
C  C70  1  0.16971320  0.66759710  0.72113664  1  -0.057401  0  -0.238244  -0.411066  0  3.982014  0
C  C71  1  0.30735579  0.70384502  0.68438902  1  -0.006459  0  -0.015187  -0.084708  0  3.95877  0
C  C72  1  0.34619273  0.74872130  0.69257795  1  -0.069651  0  -0.086571  -0.160671  0  3.966718  0
C  C73  1  0.29629011  0.80222343  0.74708262  1  0.100844  0  -0.003539  0.151701  0  3.966112  0
C  C74  1  0.34106649  0.84674822  0.75701748  1  -0.062136  0  -0.238247  -0.413085  0  3.984321  0
C  C75  1  0.36683357  0.64642274  0.62614530  1  1.521429  0  0.232775  0.623995  0  4.138201  0
C  C76  1  0.86242291  0.14284746  0.85456357  1  1.546791  0  0.232831  0.624042  0  4.139205  0
C  C77  1  0.80490164  0.20083817  0.79618217  1  0.008926  0  -0.015122  -0.08259  0  3.953431  0
C  C78  1  0.76140890  0.29073561  0.78954957  1  -0.024703  0  -0.087073  -0.16228  0  3.967314  0
C  C79  1  0.70952542  0.35019201  0.73373804  1  0.004899  0  -0.003036  0.154158  0  3.965079  0
C  C80  1  0.66646364  0.44697229  0.72625511  1  -0.047603  0  -0.237648  -0.411513  0  3.984955  0
C  C81  1  0.70192549  0.31581598  0.68420468  1  -0.048418  0  -0.016086  -0.085301  0  3.957613  0
C  C82  1  0.74531361  0.22587158  0.69092812  1  -0.02698  0  -0.087241  -0.161429  0  3.968151  0
C  C83  1  0.79693889  0.16642516  0.74691559  1  0.046212  0  -0.003013  0.153056  0  3.965355  0
C  C84  1  0.83962004  0.06954246  0.75479075  1  -0.016162  0  -0.237336  -0.41185  0  3.98321  0
C  C85  1  0.64543472  0.37342900  0.62493874  1  1.575294  0  0.232669  0.624024  0  4.140488  0
C  C86  1  0.14718301  0.87497909  0.12323266  1  1.5548  0  0.233623  0.626916  0  4.136184  0
C  C87  1  0.20264577  0.81751674  0.18353548  1  -0.100282  0  -0.01499  -0.082799  0  3.956227  0
C  C88  1  0.29490036  0.77322979  0.14705504  1  -0.042655  0  -0.087946  -0.163162  0  3.970799  0
C  C89  1  0.35175819  0.71857854  0.19844234  1  -0.00145  0  -0.00437  0.150598  0  3.970786  0
C  C90  1  0.45142456  0.67472891  0.15643700  1  -0.037546  0  -0.237861  -0.411648  0  3.979273  0
C  C91  1  0.31217430  0.70868819  0.28957654  1  0.063469  0  -0.014647  -0.080706  0  3.956943  0
C  C92  1  0.22007088  0.75331039  0.32597883  1  -0.059715  0  -0.088046  -0.16385  0  3.968105  0
C  C93  1  0.16318477  0.80809739  0.27457833  1  0.091451  0  -0.00379  0.15258  0  3.965113  0
C  C94  1  0.06359466  0.85207983  0.31671384  1  -0.042968  0  -0.237278  -0.412121  0  3.981482  0
C  C95  1  0.36717075  0.64928555  0.35027928  1  1.544576  0  0.233383  0.625854  0  4.139394  0
C  C96  1  0.86626907  0.14654520  0.12574098  1  1.526597  0  0.233031  0.625679  0  4.14038  0
C  C97  1  0.80781091  0.20579149  0.18234725  1  0.007322  0  -0.015329  -0.082468  0  3.957614  0
C  C98  1  0.76601071  0.16832172  0.27287133  1  -0.053981  0  -0.087644  -0.162991  0  3.970158  0
C  C99  1  0.71220692  0.21886165  0.33043726  1  0.069866  0  -0.004846  0.149971  0  3.965241  0
C  C100  1  0.67094896  0.17599601  0.42808749  1  -0.085673  0  -0.237126  -0.411697  0  3.982935  0
C  C101  1  0.70054306  0.31009723  0.29354758  1  -0.03891  0  -0.014528  -0.079491  0  3.953935  0
C  C102  1  0.74192537  0.34767387  0.20297869  1  -0.040163  0  -0.088054  -0.164661  0  3.970838  0
C  C103  1  0.79588996  0.29709140  0.14545249  1  0.032584  0  -0.003661  0.152918  0  3.96636  0
C  C104  1  0.83672990  0.34031776  0.04778260  1  -0.046503  0  -0.23779  -0.412102  0  3.98334  0
C  C105  1  0.64303480  0.36932931  0.35024394  1  1.547764  0  0.234406  0.629038  0  4.139512  0
C  C106  1  0.86904474  0.86903072  0.12840197  1  1.559897  0  0.23252  0.62412  0  4.13635  0
C  C107  1  0.81263867  0.80976793  0.18751542  1  -0.089156  0  -0.015345  -0.083408  0  3.95154  0
C  C108  1  0.76655438  0.80012473  0.15094042  1  -0.033883  0  -0.086526  -0.160069  0  3.962684  0
C  C109  1  0.71378063  0.74477222  0.20068330  1  0.022306  0  -0.003519  0.15259  0  3.962878  0
C  C110  1  0.66798973  0.73350165  0.15817405  1  -0.047613  0  -0.23763  -0.413148  0  3.988336  0
C  C111  1  0.70772640  0.69918104  0.29037278  1  -0.040696  0  -0.014506  -0.081303  0  3.953392  0
C  C112  1  0.75412465  0.70847258  0.32684221  1  -0.017697  0  -0.086734  -0.161365  0  3.9662  0
C  C113  1  0.80709740  0.76369379  0.27704511  1  0.061678  0  -0.00313  0.152797  0  3.962021  0
C  C114  1  0.85321329  0.77429315  0.31975671  1  -0.044577  0  -0.237242  -0.411727  0  3.986028  0
C  C115  1  0.64930618  0.64180161  0.34976385  1  1.570989  0  0.233067  0.625206  0  4.138932  0
O  O116  1  0.00549568  0.00828859  0.98831970  1  -1.198173  0  -0.580011  -1.040874  0  2.57646  0
O  O117  1  0.14242342  0.10761972  0.92945856  1  -1.168747  0  -0.314633  -0.547402  0  2.292482  0
O  O118  1  0.10049468  0.14217347  0.81416585  1  -1.170167  0  -0.31026  -0.543579  0  2.313658  0
O  O119  1  0.36744343  0.41286722  0.54309066  1  -1.176032  0  -0.315002  -0.548263  0  2.289884  0
O  O120  1  0.41283688  0.37245463  0.65797485  1  -1.1663  0  -0.311015  -0.544175  0  2.311218  0
O  O121  1  0.10210183  0.83241882  0.93146073  1  -1.168667  0  -0.314399  -0.546047  0  2.2892  0
O  O122  1  0.14102879  0.94948423  0.81459033  1  -1.172141  0  -0.30939  -0.543379  0  2.312984  0
O  O123  1  0.41337212  0.68152011  0.54731060  1  -1.166729  0  -0.315152  -0.546987  0  2.292143  0
O  O124  1  0.36712913  0.56644752  0.66020249  1  -1.166556  0  -0.310354  -0.544233  0  2.315312  0
O  O125  1  0.82562786  0.14140882  0.93529113  1  -1.171769  0  -0.314578  -0.547956  0  2.285369  0
O  O126  1  0.94459341  0.10010608  0.81798528  1  -1.171686  0  -0.310759  -0.544649  0  2.320588  0
O  O127  1  0.68284980  0.37231916  0.54501913  1  -1.171743  0  -0.315512  -0.549758  0  2.290995  0
O  O128  1  0.56354906  0.41822006  0.65972836  1  -1.174088  0  -0.310329  -0.543382  0  2.315995  0
O  O129  1  0.14767856  0.83825948  0.07845643  1  -1.162793  0  -0.317255  -0.552027  0  2.293657  0
O  O130  1  0.10450654  0.95605628  0.12082011  1  -1.171417  0  -0.309518  -0.542662  0  2.304906  0
O  O131  1  0.36891489  0.68441951  0.39506902  1  -1.167732  0  -0.316251  -0.549299  0  2.293563  0
O  O132  1  0.40702928  0.56802541  0.35297220  1  -1.168037  0  -0.309691  -0.544036  0  2.307742  0
O  O133  1  0.82980153  0.10126169  0.12607693  1  -1.159493  0  -0.316007  -0.549504  0  2.289955  0
O  O134  1  0.94816695  0.14574138  0.08219386  1  -1.170521  0  -0.310519  -0.545553  0  2.311124  0
O  O135  1  0.68209655  0.40994218  0.35327944  1  -1.166058  0  -0.315508  -0.549897  0  2.291905  0
O  O136  1  0.55967766  0.37469663  0.39019858  1  -1.176331  0  -0.310567  -0.545939  0  2.305952  0
O  O137  1  0.83073557  0.94778161  0.08461608  1  -1.170071  0  -0.316318  -0.550454  0  2.287482  0
O  O138  1  0.95156262  0.83565274  0.12563658  1  -1.167523  0  -0.310205  -0.544141  0  2.315375  0
O  O139  1  0.68634095  0.56191237  0.39245617  1  -1.168054  0  -0.315358  -0.549014  0  2.28771  0
O  O140  1  0.56630317  0.67834541  0.35352882  1  -1.166023  0  -0.310619  -0.544339  0  2.316574  0
O  O141  1  0.50670869  0.50836437  0.48699295  1  -1.204645  0  -0.580223  -1.041894  0  2.578229  0
