# generated using pymatgen
data_BiH17C13(NO5)2
_symmetry_space_group_name_H-M   'P 1'
_cell_length_a   9.69072076
_cell_length_b   9.93793483
_cell_length_c   11.58755535
_cell_angle_alpha   65.49777629
_cell_angle_beta   66.96256377
_cell_angle_gamma   63.86356475
_symmetry_Int_Tables_number   1
_chemical_formula_structural   BiH17C13(NO5)2
_chemical_formula_sum   'Bi2 H34 C26 N4 O20'
_cell_volume   881.38481773
_cell_formula_units_Z   2
loop_
 _symmetry_equiv_pos_site_id
 _symmetry_equiv_pos_as_xyz
  1  'x, y, z'
loop_
 _atom_site_type_symbol
 _atom_site_label
 _atom_site_symmetry_multiplicity
 _atom_site_fract_x
 _atom_site_fract_y
 _atom_site_fract_z
 _atom_site_occupancy
 _atom_site_hle17_bader_spin_density
 _atom_site_hle17_ddec_charge
 _atom_site_hle17_ddec_spin_density
 _atom_site_hle17_ddec_sum_bond_order
 _atom_site_hle17_magmom
 _atom_site_hse06_10hf_bader_spin_density
 _atom_site_hse06_10hf_ddec_charge
 _atom_site_hse06_10hf_ddec_spin_density
 _atom_site_hse06_10hf_ddec_sum_bond_order
 _atom_site_hse06_10hf_magmom
 _atom_site_hse06_bader_spin_density
 _atom_site_hse06_ddec_charge
 _atom_site_hse06_ddec_spin_density
 _atom_site_hse06_ddec_sum_bond_order
 _atom_site_hse06_magmom
 _atom_site_pbe_bader_spin_density
 _atom_site_pbe_cm5_charge
 _atom_site_pbe_ddec_charge
 _atom_site_pbe_ddec_spin_density
 _atom_site_pbe_ddec_sum_bond_order
 _atom_site_pbe_magmom
Bi  Bi0  1  0.27785933  0.38037744  0.27131857  1  0  1.712779  0  2.143588  0  0  1.516327  0  2.615557  0  0  1.596692  0  2.560689  0  0  0.891111  1.45797  0  2.654229  0
Bi  Bi1  1  0.72214102  0.61961926  0.72868353  1  0  1.71278  0  2.143632  0  0  1.516314  0  2.615618  0  0  1.596681  0  2.560748  0  0  0.891099  1.457953  0  2.654291  0
H  H2  1  0.76567271  0.16979058  0.84123348  1  0  0.108074  0  0.948464  0  0  0.123683  0  1.012995  0  0  0.125163  0  1.011152  0  0  0.103974  0.12248  0  1.014601  0
H  H3  1  0.23433027  0.83020499  0.15876384  1  0  0.108112  0  0.94837  0  0  0.123651  0  1.012987  0  0  0.125132  0  1.011142  0  0  0.103952  0.12245  0  1.014591  0
H  H4  1  0.96269968  0.10950030  0.73854549  1  0  0.095314  0  0.952486  0  0  0.10946  0  1.022472  0  0  0.110404  0  1.021332  0  0  0.099798  0.108507  0  1.023846  0
H  H5  1  0.03730289  0.89049643  0.26145241  1  0  0.095273  0  0.952519  0  0  0.10943  0  1.022497  0  0  0.110367  0  1.021363  0  0  0.09978  0.108475  0  1.023874  0
H  H6  1  0.93381855  0.11511194  0.89934837  1  0  0.098749  0  0.953894  0  0  0.1116  0  1.025059  0  0  0.112303  0  1.024282  0  0  0.099967  0.110981  0  1.025689  0
H  H7  1  0.06618331  0.88488361  0.10064932  1  0  0.098747  0  0.953914  0  0  0.111603  0  1.025076  0  0  0.112308  0  1.024294  0  0  0.099956  0.110983  0  1.025705  0
H  H8  1  0.58815790  0.10737286  0.42953401  1  0  0.052192  0  0.943429  0  0  0.058131  0  1.01816  0  0  0.060669  0  1.011807  0  0  0.125062  0.056334  0  1.022456  0
H  H9  1  0.41184034  0.89263323  0.57046546  1  0  0.052222  0  0.943536  0  0  0.058167  0  1.018253  0  0  0.060705  0  1.0119  0  0  0.125085  0.05637  0  1.022549  0
H  H10  1  0.59461465  0.48292848  0.39070046  1  0  0.109461  0  0.956324  0  0  0.127655  0  1.020977  0  0  0.129474  0  1.019571  0  0  0.110077  0.126271  0  1.02206  0
H  H11  1  0.40539190  0.51707299  0.60929618  1  0  0.109491  0  0.956298  0  0  0.127662  0  1.02098  0  0  0.129478  0  1.019576  0  0  0.110062  0.126276  0  1.022061  0
H  H12  1  0.80850403  0.40897593  0.34988636  1  0  0.099018  0  0.941037  0  0  0.119783  0  1.004116  0  0  0.119298  0  1.005678  0  0  0.102694  0.119969  0  1.00347  0
H  H13  1  0.19149958  0.59102433  0.65011168  1  0  0.099001  0  0.940983  0  0  0.119729  0  1.004108  0  0  0.119241  0  1.005674  0  0  0.102657  0.119916  0  1.003461  0
H  H14  1  0.69871883  0.39501165  0.51626724  1  0  0.115229  0  0.937528  0  0  0.133331  0  1.001837  0  0  0.134742  0  1.000612  0  0  0.106665  0.132384  0  1.002497  0
H  H15  1  0.30128436  0.60498979  0.48372966  1  0  0.115207  0  0.93753  0  0  0.13332  0  1.001838  0  0  0.134733  0  1.000608  0  0  0.106642  0.132374  0  1.002499  0
H  H16  1  0.82250836  0.99871528  0.46789081  1  0  0.113662  0  0.948163  0  0  0.129502  0  1.01934  0  0  0.131124  0  1.018214  0  0  0.109974  0.128384  0  1.019983  0
H  H17  1  0.17749332  0.00128732  0.53210618  1  0  0.113641  0  0.948148  0  0  0.129476  0  1.019359  0  0  0.131101  0  1.018229  0  0  0.109953  0.128359  0  1.020001  0
H  H18  1  0.85176324  0.09054995  0.55640927  1  0  0.099959  0  0.928864  0  0  0.124172  0  0.985792  0  0  0.124514  0  0.986304  0  0  0.106224  0.124064  0  0.985035  0
H  H19  1  0.14823924  0.90945030  0.44358827  1  0  0.099908  0  0.92889  0  0  0.124147  0  0.985805  0  0  0.124491  0  0.986318  0  0  0.106233  0.12404  0  0.985048  0
H  H20  1  0.94190387  0.12489150  0.38486700  1  0  0.106041  0  0.948947  0  0  0.123652  0  1.014953  0  0  0.124686  0  1.014768  0  0  0.104207  0.122384  0  1.015818  0
H  H21  1  0.05810014  0.87510759  0.61513046  1  0  0.106043  0  0.948922  0  0  0.123661  0  1.014932  0  0  0.124687  0  1.014756  0  0  0.104212  0.122393  0  1.015798  0
H  H22  1  0.34695883  0.04809408  0.20217269  1  0  0.049042  0  0.938911  0  0  0.054175  0  1.015018  0  0  0.056709  0  1.009132  0  0  0.124348  0.052463  0  1.018944  0
H  H23  1  0.65303615  0.95190845  0.79783083  1  0  0.049075  0  0.938953  0  0  0.054194  0  1.015058  0  0  0.056727  0  1.009173  0  0  0.12436  0.052484  0  1.01898  0
H  H24  1  0.46396888  0.87115269  0.10254419  1  0  0.108184  0  0.945541  0  0  0.12814  0  1.00944  0  0  0.129167  0  1.008815  0  0  0.110352  0.127188  0  1.010195  0
H  H25  1  0.53602903  0.12885105  0.89745277  1  0  0.108162  0  0.94543  0  0  0.128116  0  1.009351  0  0  0.129145  0  1.008727  0  0  0.110329  0.127161  0  1.010111  0
H  H26  1  0.57880446  0.69042904  0.19261857  1  0  0.107235  0  0.936232  0  0  0.125989  0  1.000327  0  0  0.127236  0  0.999555  0  0  0.102611  0.124946  0  1.001141  0
H  H27  1  0.42119417  0.30957589  0.80737859  1  0  0.107222  0  0.936295  0  0  0.125988  0  1.000375  0  0  0.127234  0  0.999604  0  0  0.102619  0.124946  0  1.001188  0
H  H28  1  0.67564906  0.81312356  0.05152530  1  0  0.10297  0  0.967141  0  0  0.114421  0  1.045675  0  0  0.115292  0  1.045772  0  0  0.099393  0.113877  0  1.045287  0
H  H29  1  0.32434846  0.18688135  0.94847395  1  0  0.102977  0  0.967093  0  0  0.114423  0  1.045644  0  0  0.115292  0  1.045741  0  0  0.099392  0.113878  0  1.045257  0
H  H30  1  0.69987501  0.91891809  0.31057657  1  0  0.116683  0  0.942505  0  0  0.133999  0  1.007993  0  0  0.135901  0  1.006015  0  0  0.11173  0.132498  0  1.009536  0
H  H31  1  0.30012371  0.08108331  0.68942094  1  0  0.116645  0  0.942536  0  0  0.133948  0  1.008029  0  0  0.13585  0  1.006053  0  0  0.111737  0.132446  0  1.009576  0
H  H32  1  0.81600213  0.83487923  0.17867164  1  0  0.106663  0  0.940507  0  0  0.125212  0  1.005792  0  0  0.12577  0  1.005996  0  0  0.106163  0.124703  0  1.005526  0
H  H33  1  0.18399445  0.16511863  0.82132784  1  0  0.106667  0  0.940486  0  0  0.125214  0  1.005762  0  0  0.125771  0  1.005969  0  0  0.10619  0.124705  0  1.005499  0
H  H34  1  0.72706150  0.72030840  0.33309021  1  0  0.096996  0  0.939464  0  0  0.118582  0  1.000723  0  0  0.11841  0  1.001905  0  0  0.101941  0.118356  0  1.000343  0
H  H35  1  0.27293276  0.27969295  0.66691051  1  0  0.096963  0  0.93951  0  0  0.118545  0  1.000767  0  0  0.118374  0  1.001952  0  0  0.101948  0.118336  0  1.000371  0
C  C36  1  0.06465280  0.55143148  0.06021663  1  0  0.332347  0  3.799626  0  0  0.305557  0  4.071777  0  0  0.329246  0  4.077473  0  0  0.126744  0.289895  0  4.066909  0
C  C37  1  0.93535009  0.44856760  0.93978206  1  0  0.332379  0  3.799534  0  0  0.305555  0  4.071669  0  0  0.329246  0  4.077364  0  0  0.12673  0.289899  0  4.066801  0
C  C38  1  0.00831631  0.65909612  0.94938401  1  0  -0.340678  0  3.773253  0  0  -0.343314  0  4.045725  0  0  -0.367762  0  4.06541  0  0  -0.064447  -0.326567  0  4.031292  0
C  C39  1  0.99169226  0.34089949  0.05061232  1  0  -0.340646  0  3.773148  0  0  -0.343191  0  4.045579  0  0  -0.367651  0  4.065255  0  0  -0.064439  -0.326462  0  4.031168  0
C  C40  1  0.94037089  0.61588798  0.88835123  1  0  0.32593  0  3.817525  0  0  0.299657  0  4.093085  0  0  0.323521  0  4.097599  0  0  0.123783  0.283343  0  4.08936  0
C  C41  1  0.05964529  0.38410182  0.11164379  1  0  0.325808  0  3.817482  0  0  0.299453  0  4.093177  0  0  0.323316  0  4.097693  0  0  0.123652  0.283146  0  4.089455  0
C  C42  1  0.02537338  0.81730761  0.89605732  1  0  0.635591  0  3.791803  0  0  0.587025  0  4.089064  0  0  0.623327  0  4.077581  0  0  0.232844  0.562437  0  4.096127  0
C  C43  1  0.97463105  0.18269029  0.10394647  1  0  0.635622  0  3.791664  0  0  0.587007  0  4.088968  0  0  0.623347  0  4.077431  0  0  0.232867  0.562423  0  4.09603  0
C  C44  1  0.88813678  0.09187447  0.83933293  1  0  -0.073808  0  3.580404  0  0  -0.17579  0  3.854301  0  0  -0.167077  0  3.854799  0  0  -0.14995  -0.181796  0  3.854544  0
C  C45  1  0.11186508  0.90812108  0.16066562  1  0  -0.073756  0  3.58036  0  0  -0.175713  0  3.854242  0  0  -0.166992  0  3.854741  0  0  -0.149896  -0.181724  0  3.854499  0
C  C46  1  0.01555681  0.58022849  0.46844870  1  0  0.521199  0  3.938776  0  0  0.473208  0  4.24044  0  0  0.503935  0  4.234705  0  0  0.210886  0.452298  0  4.244299  0
C  C47  1  0.98443247  0.41977753  0.53155201  1  0  0.521261  0  3.938884  0  0  0.47329  0  4.240515  0  0  0.504018  0  4.234781  0  0  0.210924  0.452379  0  4.244371  0
C  C48  1  0.50238980  0.43717894  0.97459291  1  0  0.542179  0  3.9031  0  0  0.494034  0  4.202712  0  0  0.526007  0  4.194913  0  0  0.216845  0.472108  0  4.208333  0
C  C49  1  0.49761209  0.56281658  0.02541428  1  0  0.541799  0  3.903298  0  0  0.493696  0  4.202871  0  0  0.525668  0  4.195077  0  0  0.216724  0.471772  0  4.20849  0
C  C50  1  0.57322504  0.22636535  0.42312995  1  0  0.402259  0  3.793241  0  0  0.323335  0  4.084817  0  0  0.352901  0  4.084288  0  0  0.180081  0.30323  0  4.084611  0
C  C51  1  0.42677054  0.77364190  0.57686825  1  0  0.402207  0  3.79327  0  0  0.323278  0  4.084825  0  0  0.352846  0  4.084294  0  0  0.180058  0.303176  0  4.084617  0
C  C52  1  0.69917706  0.39124514  0.42267046  1  0  -0.174442  0  3.626963  0  0  -0.275169  0  3.872269  0  0  -0.271336  0  3.881618  0  0  -0.136792  -0.277629  0  3.866091  0
C  C53  1  0.30082654  0.60875512  0.57732758  1  0  -0.174381  0  3.626907  0  0  -0.275074  0  3.872227  0  0  -0.271237  0  3.881573  0  0  -0.136703  -0.277532  0  3.866047  0
C  C54  1  0.83611575  0.10512907  0.46241292  1  0  -0.180582  0  3.653447  0  0  -0.284877  0  3.907698  0  0  -0.282154  0  3.919238  0  0  -0.13264  -0.286079  0  3.89936  0
C  C55  1  0.16388521  0.89487235  0.53758471  1  0  -0.180447  0  3.653433  0  0  -0.284795  0  3.907698  0  0  -0.282069  0  3.919245  0  0  -0.132622  -0.285996  0  3.899359  0
C  C56  1  0.44374055  0.01462798  0.24674041  1  0  0.399613  0  3.800635  0  0  0.322292  0  4.091821  0  0  0.351699  0  4.092048  0  0  0.177127  0.30273  0  4.090538  0
C  C57  1  0.55625443  0.98537454  0.75326312  1  0  0.39949  0  3.800842  0  0  0.322207  0  4.091976  0  0  0.351614  0  4.092207  0  0  0.177097  0.302645  0  4.09069  0
C  C58  1  0.57249505  0.81235657  0.13677542  1  0  -0.177431  0  3.651209  0  0  -0.282787  0  3.909536  0  0  -0.279142  0  3.919154  0  0  -0.134589  -0.284865  0  3.90298  0
C  C59  1  0.42750134  0.18764834  0.86322248  1  0  -0.177402  0  3.651108  0  0  -0.28277  0  3.909427  0  0  -0.27913  0  3.91905  0  0  -0.13461  -0.284851  0  3.902874  0
C  C60  1  0.71166990  0.83831316  0.26306493  1  0  -0.161184  0  3.623041  0  0  -0.260385  0  3.865459  0  0  -0.256465  0  3.875285  0  0  -0.131553  -0.262642  0  3.858916  0
C  C61  1  0.28832619  0.16168939  0.73693391  1  0  -0.161039  0  3.623026  0  0  -0.260232  0  3.865459  0  0  -0.256301  0  3.875255  0  0  -0.131539  -0.262504  0  3.858908  0
N  N62  1  0.69671525  0.24015347  0.43587556  1  0  -0.070753  0  3.504775  0  0  0.033518  0  3.736891  0  0  0.013381  0  3.762468  0  0  -0.277853  0.047072  0  3.719137  0
N  N63  1  0.30328531  0.75984911  0.56412352  1  0  -0.070876  0  3.50493  0  0  0.033417  0  3.737042  0  0  0.013281  0  3.762613  0  0  -0.277881  0.04697  0  3.719289  0
N  N64  1  0.57002034  0.89343394  0.21776501  1  0  -0.074746  0  3.493824  0  0  0.030958  0  3.723922  0  0  0.011024  0  3.748729  0  0  -0.275757  0.044183  0  3.706483  0
N  N65  1  0.42997646  0.10656979  0.78223404  1  0  -0.074751  0  3.493964  0  0  0.030951  0  3.724046  0  0  0.011018  0  3.748857  0  0  -0.275742  0.044174  0  3.706612  0
O  O66  1  0.11586602  0.58787172  0.12468636  1  0  -0.508704  0  2.07457  0  0  -0.448651  0  2.305254  0  0  -0.47614  0  2.305067  0  0  -0.252613  -0.429673  0  2.304618  0
O  O67  1  0.88413170  0.41212612  0.87531879  1  0  -0.508701  0  2.074422  0  0  -0.448696  0  2.305176  0  0  -0.476192  0  2.30499  0  0  -0.252621  -0.429718  0  2.304536  0
O  O68  1  0.88662779  0.70617280  0.78862365  1  0  -0.520889  0  2.043052  0  0  -0.467711  0  2.281251  0  0  -0.492977  0  2.277214  0  0  -0.263363  -0.450016  0  2.283934  0
O  O69  1  0.11338687  0.29381815  0.21137233  1  0  -0.520716  0  2.043126  0  0  -0.467579  0  2.281421  0  0  -0.492848  0  2.277386  0  0  -0.263244  -0.449876  0  2.28408  0
O  O70  1  0.15207143  0.84061777  0.85820657  1  0  -0.510875  0  1.886454  0  0  -0.472189  0  2.08941  0  0  -0.492015  0  2.081945  0  0  -0.276698  -0.45798  0  2.093824  0
O  O71  1  0.84792895  0.15937889  0.14180502  1  0  -0.510925  0  1.886326  0  0  -0.472223  0  2.089302  0  0  -0.492066  0  2.081822  0  0  -0.276719  -0.458013  0  2.093715  0
O  O72  1  0.88277084  0.93301151  0.89472531  1  0  -0.304596  0  2.293002  0  0  -0.231291  0  2.542045  0  0  -0.253161  0  2.53949  0  0  -0.177936  -0.216404  0  2.543124  0
O  O73  1  0.11723101  0.06698405  0.10527066  1  0  -0.304673  0  2.293045  0  0  -0.231336  0  2.542072  0  0  -0.253212  0  2.539498  0  0  -0.177947  -0.216449  0  2.543148  0
O  O74  1  0.92459144  0.68882003  0.52118861  1  0  -0.586623  0  2.014941  0  0  -0.5335  0  2.252492  0  0  -0.560638  0  2.245723  0  0  -0.288282  -0.515149  0  2.257226  0
O  O75  1  0.07539978  0.31118364  0.47881402  1  0  -0.586642  0  2.014974  0  0  -0.533525  0  2.252503  0  0  -0.560667  0  2.245734  0  0  -0.288312  -0.515175  0  2.257232  0
O  O76  1  0.13116977  0.59221042  0.36798096  1  0  -0.565023  0  2.067143  0  0  -0.502218  0  2.303322  0  0  -0.530306  0  2.297368  0  0  -0.271558  -0.482047  0  2.306736  0
O  O77  1  0.86882560  0.40779095  0.63202025  1  0  -0.565105  0  2.067297  0  0  -0.502251  0  2.303427  0  0  -0.53033  0  2.297451  0  0  -0.271548  -0.482081  0  2.306839  0
O  O78  1  0.43080031  0.34055794  0.05364323  1  0  -0.590359  0  2.040706  0  0  -0.53052  0  2.270844  0  0  -0.560263  0  2.266598  0  0  -0.285127  -0.511043  0  2.2744  0
O  O79  1  0.56919741  0.65943990  0.94636191  1  0  -0.590162  0  2.040793  0  0  -0.530364  0  2.270936  0  0  -0.560107  0  2.266694  0  0  -0.285062  -0.510885  0  2.27449  0
O  O80  1  0.57673934  0.43924765  0.85658960  1  0  -0.569622  0  2.047708  0  0  -0.512492  0  2.283749  0  0  -0.54007  0  2.276517  0  0  -0.27678  -0.492818  0  2.288517  0
O  O81  1  0.42326295  0.56074670  0.14341701  1  0  -0.569496  0  2.047696  0  0  -0.512348  0  2.283654  0  0  -0.539925  0  2.276429  0  0  -0.276754  -0.492676  0  2.288423  0
O  O82  1  0.44701460  0.33937283  0.40626657  1  0  -0.569515  0  2.08313  0  0  -0.508878  0  2.335785  0  0  -0.536782  0  2.330677  0  0  -0.292836  -0.488973  0  2.338427  0
O  O83  1  0.55298292  0.66063208  0.59373269  1  0  -0.569488  0  2.082976  0  0  -0.508836  0  2.335619  0  0  -0.536739  0  2.330508  0  0  -0.292837  -0.488927  0  2.338255  0
O  O84  1  0.43094428  0.08701222  0.31968139  1  0  -0.577544  0  2.063705  0  0  -0.517572  0  2.316517  0  0  -0.54626  0  2.311178  0  0  -0.295796  -0.497319  0  2.318837  0
O  O85  1  0.56904785  0.91298557  0.68032561  1  0  -0.577494  0  2.063643  0  0  -0.517564  0  2.316482  0  0  -0.546254  0  2.311146  0  0  -0.295813  -0.497311  0  2.318802  0
