# generated using pymatgen
data_ZnH12C16(NO3)2
_symmetry_space_group_name_H-M   'P 1'
_cell_length_a   6.95132929
_cell_length_b   14.96910873
_cell_length_c   16.13640000
_cell_angle_alpha   107.39206959
_cell_angle_beta   90.00000000
_cell_angle_gamma   90.00000000
_symmetry_Int_Tables_number   1
_chemical_formula_structural   ZnH12C16(NO3)2
_chemical_formula_sum   'Zn4 H48 C64 N8 O24'
_cell_volume   1602.31189250
_cell_formula_units_Z   4
loop_
 _symmetry_equiv_pos_site_id
 _symmetry_equiv_pos_as_xyz
  1  'x, y, z'
loop_
 _atom_site_type_symbol
 _atom_site_label
 _atom_site_symmetry_multiplicity
 _atom_site_fract_x
 _atom_site_fract_y
 _atom_site_fract_z
 _atom_site_occupancy
 _atom_site_hle17_bader_spin_density
 _atom_site_hle17_ddec_charge
 _atom_site_hle17_ddec_spin_density
 _atom_site_hle17_ddec_sum_bond_order
 _atom_site_hle17_magmom
 _atom_site_hse06_10hf_bader_spin_density
 _atom_site_hse06_10hf_ddec_charge
 _atom_site_hse06_10hf_ddec_spin_density
 _atom_site_hse06_10hf_ddec_sum_bond_order
 _atom_site_hse06_10hf_magmom
 _atom_site_hse06_bader_spin_density
 _atom_site_hse06_ddec_charge
 _atom_site_hse06_ddec_spin_density
 _atom_site_hse06_ddec_sum_bond_order
 _atom_site_hse06_magmom
 _atom_site_pbe_bader_charge
 _atom_site_pbe_bader_spin_density
 _atom_site_pbe_cm5_charge
 _atom_site_pbe_ddec_charge
 _atom_site_pbe_ddec_spin_density
 _atom_site_pbe_ddec_sum_bond_order
 _atom_site_pbe_magmom
Zn  Zn0  1  0.73393013  0.96594083  0.67973047  1  0  1.006112  0  1.812306  0  0  0.807012  0  2.284632  0  0  0.858867  0  2.226883  0  1.252691  0  0.695543  0.770812  0  2.324322  0
Zn  Zn1  1  0.23393943  0.53405427  0.82026789  1  0  1.006163  0  1.812126  0  0  0.807062  0  2.284432  0  0  0.858916  0  2.226687  0  1.252742  0  0.695579  0.770864  0  2.324118  0
Zn  Zn2  1  0.26606278  0.03405241  0.32026933  1  0  1.006217  0  1.812106  0  0  0.80717  0  2.284381  0  0  0.859022  0  2.226635  0  1.252664  0  0.695611  0.770973  0  2.324068  0
Zn  Zn3  1  0.76606643  0.46594246  0.17972730  1  0  1.006158  0  1.812274  0  0  0.807075  0  2.284563  0  0  0.858925  0  2.226816  0  1.252649  0  0.695576  0.770877  0  2.324251  0
H  H4  1  0.21758284  0.11952750  0.15574127  1  0  0.406315  0  0.859355  0  0  0.37602  0  0.93856  0  0  0.388319  0  0.924779  0  0.654645  0  0.304535  0.36724  0  0.948358  0
H  H5  1  0.71757930  0.38047857  0.34426156  1  0  0.406396  0  0.859373  0  0  0.376147  0  0.938512  0  0  0.388427  0  0.924751  0  0.65458  0  0.304619  0.36737  0  0.948307  0
H  H6  1  0.78242589  0.88047974  0.84426241  1  0  0.406376  0  0.859341  0  0  0.376088  0  0.938512  0  0  0.388415  0  0.924688  0  0.654587  0  0.304573  0.367308  0  0.94831  0
H  H7  1  0.28241649  0.61952936  0.65573674  1  0  0.406372  0  0.859379  0  0  0.376061  0  0.938568  0  0  0.388385  0  0.924757  0  0.6544  0  0.304575  0.367282  0  0.948366  0
H  H8  1  0.85553996  0.16711952  0.69250137  1  0  0.089799  0  0.928554  0  0  0.100786  0  0.98688  0  0  0.103285  0  0.984131  0  0.119447  0  0.125452  0.098871  0  0.989031  0
H  H9  1  0.35556221  0.33287185  0.80750048  1  0  0.089801  0  0.928626  0  0  0.100792  0  0.986956  0  0  0.103293  0  0.984205  0  0.119285  0  0.125442  0.098876  0  0.989108  0
H  H10  1  0.14442993  0.83288001  0.30750637  1  0  0.089873  0  0.928622  0  0  0.100853  0  0.986948  0  0  0.103355  0  0.984195  0  0.119263  0  0.125472  0.098937  0  0.9891  0
H  H11  1  0.64445084  0.66712279  0.19249970  1  0  0.089785  0  0.928617  0  0  0.100773  0  0.986943  0  0  0.103272  0  0.984195  0  0.119354  0  0.125443  0.098858  0  0.989094  0
H  H12  1  0.90032420  0.25979320  0.58947832  1  0  0.119185  0  0.992503  0  0  0.124542  0  1.05751  0  0  0.128073  0  1.056585  0  0.161253  0  0.107683  0.12193  0  1.05838  0
H  H13  1  0.40033206  0.24020027  0.91052412  1  0  0.119144  0  0.992529  0  0  0.124498  0  1.057535  0  0  0.127974  0  1.056675  0  0.161187  0  0.10767  0.12188  0  1.058417  0
H  H14  1  0.09964281  0.74021124  0.41053078  1  0  0.119193  0  0.992461  0  0  0.124563  0  1.057453  0  0  0.128054  0  1.056573  0  0.161013  0  0.1077  0.121947  0  1.058329  0
H  H15  1  0.59967811  0.75979646  0.08947665  1  0  0.119154  0  0.992523  0  0  0.124498  0  1.05754  0  0  0.127991  0  1.056659  0  0.161207  0  0.107655  0.121883  0  1.058414  0
H  H16  1  0.83344778  0.17989118  0.42886546  1  0  0.106491  0  0.918659  0  0  0.11953  0  0.972106  0  0  0.122232  0  0.970142  0  0.107569  0  0.11476  0.117481  0  0.973656  0
H  H17  1  0.33344989  0.32010508  0.07113713  1  0  0.106544  0  0.918653  0  0  0.119596  0  0.972101  0  0  0.122296  0  0.97014  0  0.107456  0  0.1148  0.117545  0  0.973654  0
H  H18  1  0.16653074  0.82011395  0.57114322  1  0  0.106589  0  0.918666  0  0  0.119675  0  0.972063  0  0  0.122378  0  0.970094  0  0.107444  0  0.114821  0.117623  0  0.973619  0
H  H19  1  0.66655309  0.67989095  0.92885972  1  0  0.106488  0  0.918576  0  0  0.11956  0  0.972016  0  0  0.122263  0  0.970049  0  0.107441  0  0.114791  0.11751  0  0.973569  0
H  H20  1  0.74116040  0.01209962  0.38178519  1  0  0.124094  0  0.959638  0  0  0.13072  0  1.024724  0  0  0.134103  0  1.023494  0  0.125843  0  0.111088  0.128254  0  1.025745  0
H  H21  1  0.24116107  0.48789805  0.11821221  1  0  0.124123  0  0.959637  0  0  0.130751  0  1.024748  0  0  0.134135  0  1.023513  0  0.126003  0  0.111078  0.128285  0  1.025766  0
H  H22  1  0.25883970  0.98790481  0.61822019  1  0  0.124081  0  0.959668  0  0  0.130736  0  1.024752  0  0  0.134122  0  1.023514  0  0.125993  0  0.111049  0.12827  0  1.025771  0
H  H23  1  0.75884335  0.51209729  0.88178693  1  0  0.124112  0  0.959719  0  0  0.130744  0  1.024786  0  0  0.134122  0  1.023568  0  0.126064  0  0.111092  0.128278  0  1.025806  0
H  H24  1  0.65517828  0.87239489  0.35320710  1  0  0.121723  0  0.935765  0  0  0.133694  0  0.990786  0  0  0.137036  0  0.989597  0  0.11798  0  0.116044  0.131286  0  0.991774  0
H  H25  1  0.15518902  0.62760091  0.14679145  1  0  0.121818  0  0.935693  0  0  0.133774  0  0.990722  0  0  0.137115  0  0.989533  0  0.118084  0  0.116041  0.131367  0  0.991708  0
H  H26  1  0.34481462  0.12760884  0.64679065  1  0  0.121783  0  0.935876  0  0  0.133775  0  0.990858  0  0  0.137118  0  0.989668  0  0.117746  0  0.116061  0.131368  0  0.991844  0
H  H27  1  0.84482546  0.37239722  0.85321218  1  0  0.121777  0  0.935795  0  0  0.133779  0  0.990761  0  0  0.137124  0  0.989568  0  0.118052  0  0.116044  0.131371  0  0.991748  0
H  H28  1  0.57745214  0.70304502  0.33064764  1  0  0.106004  0  0.944392  0  0  0.116881  0  1.001937  0  0  0.119666  0  0.999289  0  0.140615  0  0.113771  0.114823  0  1.003902  0
H  H29  1  0.07746432  0.79695288  0.16934840  1  0  0.106029  0  0.944269  0  0  0.116922  0  1.001827  0  0  0.119707  0  0.999179  0  0.140752  0  0.113766  0.114864  0  1.003793  0
H  H30  1  0.42253357  0.29696011  0.66934492  1  0  0.105974  0  0.94426  0  0  0.116831  0  1.001854  0  0  0.119616  0  0.999205  0  0.140732  0  0.1137  0.114772  0  1.003823  0
H  H31  1  0.92253866  0.20304735  0.83065210  1  0  0.10605  0  0.944293  0  0  0.116897  0  1.001883  0  0  0.119682  0  0.999234  0  0.140735  0  0.113762  0.11484  0  1.003847  0
H  H32  1  0.58494280  0.64037397  0.45702309  1  0  0.131299  0  0.970144  0  0  0.139579  0  1.029274  0  0  0.142491  0  1.028815  0  0.127727  0  0.11534  0.137406  0  1.029902  0
H  H33  1  0.08495785  0.85961902  0.04296973  1  0  0.131386  0  0.970094  0  0  0.13963  0  1.029244  0  0  0.14254  0  1.028788  0  0.127914  0  0.115387  0.137445  0  1.029868  0
H  H34  1  0.41504004  0.35962346  0.54296548  1  0  0.131318  0  0.970131  0  0  0.139619  0  1.0292  0  0  0.142528  0  1.028746  0  0.127844  0  0.115384  0.13746  0  1.02981  0
H  H35  1  0.91504657  0.14037351  0.95702553  1  0  0.131301  0  0.970151  0  0  0.13961  0  1.029226  0  0  0.14252  0  1.028773  0  0.12778  0  0.115353  0.137456  0  1.02983  0
H  H36  1  0.65693334  0.75016521  0.60466628  1  0  0.087506  0  0.912844  0  0  0.100771  0  0.965071  0  0  0.103041  0  0.963305  0  0.105579  0  0.126649  0.099013  0  0.966491  0
H  H37  1  0.15695271  0.74982429  0.89532867  1  0  0.087474  0  0.913082  0  0  0.10086  0  0.965178  0  0  0.10308  0  0.963481  0  0.105611  0  0.126708  0.099104  0  0.966599  0
H  H38  1  0.34305093  0.24982452  0.39532325  1  0  0.087518  0  0.913039  0  0  0.100908  0  0.965129  0  0  0.103124  0  0.963436  0  0.105589  0  0.126715  0.099151  0  0.966548  0
H  H39  1  0.84306321  0.25016684  0.10466931  1  0  0.087562  0  0.912965  0  0  0.100863  0  0.965141  0  0  0.103131  0  0.963381  0  0.105535  0  0.126696  0.099106  0  0.96656  0
H  H40  1  0.47357705  0.13196944  0.97179629  1  0  0.130233  0  0.951843  0  0  0.136808  0  1.01517  0  0  0.141293  0  1.013478  0  0.105116  0  0.109158  0.133645  0  1.016494  0
H  H41  1  0.97356775  0.36803523  0.52820057  1  0  0.13018  0  0.951836  0  0  0.136772  0  1.015151  0  0  0.141261  0  1.013468  0  0.105317  0  0.109134  0.133604  0  1.016482  0
H  H42  1  0.52643312  0.86803709  0.02819666  1  0  0.130213  0  0.95185  0  0  0.136788  0  1.015181  0  0  0.141276  0  1.013491  0  0.105355  0  0.109157  0.133622  0  1.016511  0
H  H43  1  0.02643092  0.63196640  0.47179969  1  0  0.130239  0  0.951875  0  0  0.13686  0  1.015145  0  0  0.141348  0  1.013459  0  0.105267  0  0.109157  0.133693  0  1.016475  0
H  H44  1  0.10971139  0.93953644  0.89827960  1  0  0.127458  0  0.974178  0  0  0.136154  0  1.039765  0  0  0.13979  0  1.037595  0  0.111022  0  0.106223  0.133655  0  1.041301  0
H  H45  1  0.60972223  0.56046986  0.60172310  1  0  0.127489  0  0.974118  0  0  0.13618  0  1.039698  0  0  0.139817  0  1.037533  0  0.110702  0  0.106245  0.133667  0  1.04123  0
H  H46  1  0.89027576  0.06046660  0.10172415  1  0  0.127451  0  0.974156  0  0  0.13611  0  1.039793  0  0  0.139746  0  1.037631  0  0.110709  0  0.106214  0.133597  0  1.041323  0
H  H47  1  0.39028506  0.43953597  0.39827399  1  0  0.127485  0  0.974154  0  0  0.136175  0  1.039754  0  0  0.13981  0  1.037593  0  0.110737  0  0.106233  0.133674  0  1.041291  0
H  H48  1  0.25632507  0.88813546  0.80639676  1  0  0.136776  0  0.900597  0  0  0.151694  0  0.9543  0  0  0.154989  0  0.951773  0  0.111448  0  0.113708  0.149351  0  0.956171  0
H  H49  1  0.75633016  0.61186874  0.69360847  1  0  0.136647  0  0.900683  0  0  0.151592  0  0.954356  0  0  0.15489  0  0.951828  0  0.111301  0  0.113637  0.149236  0  0.956221  0
H  H50  1  0.74366640  0.11186758  0.19360700  1  0  0.136665  0  0.900806  0  0  0.151602  0  0.954455  0  0  0.154899  0  0.951929  0  0.111295  0  0.113669  0.149245  0  0.956319  0
H  H51  1  0.24367426  0.38813429  0.30638785  1  0  0.136644  0  0.900618  0  0  0.151628  0  0.954266  0  0  0.154927  0  0.951735  0  0.111379  0  0.113658  0.149282  0  0.956138  0
C  C52  1  0.83122950  0.13592331  0.62318701  1  0  0.154176  0  3.680981  0  0  0.120313  0  3.931564  0  0  0.128044  0  3.948546  0  0.461945  0  0.060473  0.115255  0  3.920031  0
C  C53  1  0.33123161  0.36406876  0.87681194  1  0  0.154084  0  3.681158  0  0  0.120164  0  3.931746  0  0  0.127892  0  3.948722  0  0.46207  0  0.060406  0.115108  0  3.920208  0
C  C54  1  0.16875621  0.86407483  0.37681849  1  0  0.153981  0  3.681111  0  0  0.120117  0  3.93172  0  0  0.127845  0  3.9487  0  0.462146  0  0.06043  0.115062  0  3.920184  0
C  C55  1  0.66876993  0.63592587  0.12318577  1  0  0.154228  0  3.68091  0  0  0.120355  0  3.931507  0  0  0.128085  0  3.948484  0  0.462084  0  0.060461  0.115297  0  3.919973  0
C  C56  1  0.85419490  0.18694766  0.56453844  1  0  -0.115601  0  3.701289  0  0  -0.126538  0  3.949712  0  0  -0.134088  0  3.972238  0  0.036484  0  -0.07701  -0.121629  0  3.934626  0
C  C57  1  0.35420420  0.31304720  0.93546376  1  0  -0.115514  0  3.701263  0  0  -0.126374  0  3.949622  0  0  -0.133883  0  3.972187  0  0.036504  0  -0.076911  -0.121463  0  3.934537  0
C  C58  1  0.14579226  0.81305257  0.43546640  1  0  -0.115603  0  3.701254  0  0  -0.126513  0  3.949628  0  0  -0.134035  0  3.972188  0  0.036784  0  -0.077032  -0.121602  0  3.934544  0
C  C59  1  0.64580598  0.68695023  0.06453534  1  0  -0.115519  0  3.701209  0  0  -0.126413  0  3.949606  0  0  -0.133933  0  3.972161  0  0.036628  0  -0.076918  -0.121501  0  3.934517  0
C  C60  1  0.81905054  0.14207742  0.47680714  1  0  0.010369  0  3.681399  0  0  -0.01172  0  3.937867  0  0  -0.008102  0  3.955906  0  -0.053872  0  -0.060336  -0.013851  0  3.925603  0
C  C61  1  0.31904833  0.35791674  0.02319486  1  0  0.010221  0  3.681457  0  0  -0.011904  0  3.937947  0  0  -0.008288  0  3.955981  0  -0.054084  0  -0.060493  -0.014033  0  3.92568  0
C  C62  1  0.18093662  0.85792631  0.52320052  1  0  0.010262  0  3.681463  0  0  -0.01186  0  3.937957  0  0  -0.008243  0  3.955996  0  -0.053906  0  -0.0604  -0.01399  0  3.925694  0
C  C63  1  0.68095033  0.64207859  0.97680428  1  0  0.010381  0  3.68131  0  0  -0.011757  0  3.937801  0  0  -0.008139  0  3.955839  0  -0.053964  0  -0.060388  -0.013888  0  3.925537  0
C  C64  1  0.76587654  0.04789514  0.45035769  1  0  -0.127788  0  3.654697  0  0  -0.150335  0  3.912818  0  0  -0.156484  0  3.932611  0  -0.036966  0  -0.076209  -0.146383  0  3.899653  0
C  C65  1  0.26587864  0.45209832  0.04964164  1  0  -0.127783  0  3.654673  0  0  -0.150411  0  3.912877  0  0  -0.156572  0  3.932659  0  -0.037043  0  -0.076182  -0.146451  0  3.899695  0
C  C66  1  0.23411493  0.95210509  0.54964652  1  0  -0.127679  0  3.654914  0  0  -0.150385  0  3.913071  0  0  -0.156547  0  3.932857  0  -0.037583  0  -0.076182  -0.146422  0  3.899878  0
C  C67  1  0.73412865  0.54789701  0.95035812  1  0  -0.127904  0  3.654733  0  0  -0.150472  0  3.912893  0  0  -0.156636  0  3.932675  0  -0.037154  0  -0.07625  -0.14652  0  3.899726  0
C  C68  1  0.74714774  0.00076865  0.51294088  1  0  0.165462  0  3.76185  0  0  0.159242  0  4.004299  0  0  0.165381  0  4.026165  0  0.447001  0  0.115152  0.155108  0  3.989452  0
C  C69  1  0.24717143  0.49922761  0.98705923  1  0  0.165414  0  3.762012  0  0  0.159208  0  4.004383  0  0  0.165388  0  4.026188  0  0.447123  0  0.115152  0.155076  0  3.989534  0
C  C70  1  0.25283222  0.99923368  0.48706454  1  0  0.165093  0  3.762113  0  0  0.159106  0  4.004367  0  0  0.165286  0  4.026173  0  0.44721  0  0.1151  0.154976  0  3.989518  0
C  C71  1  0.75284737  0.50076912  0.01294216  1  0  0.1655  0  3.761884  0  0  0.159278  0  4.004318  0  0  0.165459  0  4.026123  0  0.446996  0  0.115183  0.155144  0  3.989469  0
C  C72  1  0.69614887  0.90035128  0.49200436  1  0  0.163774  0  3.781183  0  0  0.158974  0  4.022641  0  0  0.165146  0  4.045532  0  0.409273  0  0.115196  0.155016  0  4.007004  0
C  C73  1  0.19617687  0.59964452  0.00799668  1  0  0.163705  0  3.781455  0  0  0.158989  0  4.022689  0  0  0.16515  0  4.04557  0  0.40901  0  0.115095  0.155031  0  4.007052  0
C  C74  1  0.30383397  0.09964755  0.50799452  1  0  0.163895  0  3.781393  0  0  0.159001  0  4.022829  0  0  0.165164  0  4.045708  0  0.409363  0  0.115131  0.155041  0  4.007195  0
C  C75  1  0.80384050  0.40035152  0.99200699  1  0  0.163642  0  3.781417  0  0  0.158906  0  4.022761  0  0  0.165066  0  4.045644  0  0.409818  0  0.115103  0.154949  0  4.007119  0
C  C76  1  0.65417416  0.84374685  0.40786101  1  0  -0.132971  0  3.672076  0  0  -0.151829  0  3.918008  0  0  -0.159185  0  3.939284  0  0.115749  0  -0.071311  -0.147091  0  3.90375  0
C  C77  1  0.15419497  0.65625245  0.09214100  1  0  -0.133089  0  3.672073  0  0  -0.151947  0  3.917979  0  0  -0.159303  0  3.939259  0  0.053376  0  -0.071284  -0.147206  0  3.903721  0
C  C78  1  0.34581587  0.15625758  0.59214065  1  0  -0.133243  0  3.672167  0  0  -0.152122  0  3.918126  0  0  -0.159478  0  3.939403  0  0.053671  0  -0.071355  -0.14738  0  3.903866  0
C  C79  1  0.84581520  0.34374498  0.90786244  1  0  -0.13316  0  3.672288  0  0  -0.152048  0  3.91818  0  0  -0.159404  0  3.939458  0  0.053176  0  -0.071374  -0.147307  0  3.90392  0
C  C80  1  0.61113059  0.74969478  0.39489862  1  0  0.034288  0  3.672618  0  0  0.015867  0  3.921491  0  0  0.020644  0  3.93837  0  -0.117907  0  -0.049948  0.012933  0  3.910065  0
C  C81  1  0.11114421  0.75030242  0.10509599  1  0  0.034477  0  3.672456  0  0  0.015963  0  3.921362  0  0  0.02074  0  3.938239  0  -0.056126  0  -0.04988  0.013029  0  3.909924  0
C  C82  1  0.38885800  0.25030895  0.60509479  1  0  0.034653  0  3.672344  0  0  0.01623  0  3.921192  0  0  0.021006  0  3.938063  0  -0.055935  0  -0.049843  0.013298  0  3.909757  0
C  C83  1  0.88886021  0.24969431  0.89490354  1  0  0.034441  0  3.672479  0  0  0.016019  0  3.921379  0  0  0.020795  0  3.938254  0  -0.056196  0  -0.049858  0.013084  0  3.909951  0
C  C84  1  0.61235194  0.71394756  0.46535564  1  0  -0.101559  0  3.675787  0  0  -0.119568  0  3.932404  0  0  -0.12688  0  3.954099  0  0.014375  0  -0.071754  -0.114948  0  3.918001  0
C  C85  1  0.11237275  0.78604684  0.03463819  1  0  -0.101705  0  3.675722  0  0  -0.119601  0  3.932309  0  0  -0.126909  0  3.953993  0  0.014735  0  -0.071731  -0.114974  0  3.917961  0
C  C86  1  0.38762370  0.28604987  0.53463416  1  0  -0.101649  0  3.675654  0  0  -0.119583  0  3.932241  0  0  -0.126905  0  3.953958  0  0.014747  0  -0.071668  -0.114983  0  3.917858  0
C  C87  1  0.88763886  0.21394779  0.96536076  1  0  -0.10162  0  3.675688  0  0  -0.119622  0  3.932328  0  0  -0.12694  0  3.954038  0  0.014745  0  -0.071749  -0.115026  0  3.917945  0
C  C88  1  0.65458271  0.77426084  0.54720076  1  0  0.143274  0  3.692191  0  0  0.11128  0  3.94512  0  0  0.118082  0  3.96346  0  0.486692  0  0.057922  0.106863  0  3.932761  0
C  C89  1  0.15460208  0.72573286  0.95279411  1  0  0.14319  0  3.692214  0  0  0.111006  0  3.945196  0  0  0.117839  0  3.96353  0  0.486576  0  0.05773  0.106586  0  3.932834  0
C  C90  1  0.34539581  0.22573169  0.45279140  1  0  0.143133  0  3.692311  0  0  0.11097  0  3.945314  0  0  0.117806  0  3.963647  0  0.486551  0  0.057747  0.106553  0  3.932955  0
C  C91  1  0.84541096  0.27426178  0.04720359  1  0  0.143193  0  3.692427  0  0  0.111154  0  3.945373  0  0  0.117952  0  3.963709  0  0.486632  0  0.057861  0.106735  0  3.933015  0
C  C92  1  0.46024003  0.04720070  0.80577357  1  0  0.629553  0  3.911247  0  0  0.580661  0  4.210773  0  0  0.614454  0  4.202454  0  1.581033  0  0.20137  0.557612  0  4.215745  0
C  C93  1  0.96023505  0.45279697  0.69422569  1  0  0.629452  0  3.911377  0  0  0.580679  0  4.210697  0  0  0.614472  0  4.20238  0  1.580981  0  0.201358  0.557629  0  4.215672  0
C  C94  1  0.53976439  0.95280024  0.19422464  1  0  0.629581  0  3.911255  0  0  0.580762  0  4.21062  0  0  0.614555  0  4.202301  0  1.581036  0  0.201415  0.557709  0  4.215601  0
C  C95  1  0.03976649  0.54720116  0.30577237  1  0  0.629528  0  3.911393  0  0  0.580729  0  4.2108  0  0  0.614521  0  4.202485  0  1.580912  0  0.201375  0.557678  0  4.215774  0
C  C96  1  0.32951539  0.02915767  0.87413444  1  0  0.078418  0  3.625218  0  0  0.09012  0  3.867928  0  0  0.090431  0  3.886909  0  -0.024184  0  0.012364  0.089759  0  3.855216  0
C  C97  1  0.82951041  0.47084419  0.62586784  1  0  0.078491  0  3.625207  0  0  0.090203  0  3.867795  0  0  0.09052  0  3.886774  0  -0.024595  0  0.012354  0.089819  0  3.855071  0
C  C98  1  0.67048615  0.97084046  0.12586609  1  0  0.078634  0  3.625222  0  0  0.090382  0  3.86775  0  0  0.090696  0  3.886732  0  -0.024421  0  0.012443  0.089999  0  3.855027  0
C  C99  1  0.17048250  0.52915954  0.37413301  1  0  0.078556  0  3.625315  0  0  0.090189  0  3.868077  0  0  0.090504  0  3.887065  0  -0.024562  0  0.012382  0.089824  0  3.855364  0
C  C100  1  0.36286729  0.07795658  0.95793787  1  0  -0.264082  0  3.626271  0  0  -0.290511  0  3.881944  0  0  -0.300493  0  3.897428  0  -0.002903  0  -0.092611  -0.283757  0  3.871508  0
C  C101  1  0.86285079  0.42204949  0.54206248  1  0  -0.264086  0  3.626384  0  0  -0.290547  0  3.88197  0  0  -0.30055  0  3.89746  0  -0.002892  0  -0.092508  -0.283791  0  3.871542  0
C  C102  1  0.63714432  0.92205205  0.04206310  1  0  -0.264249  0  3.626599  0  0  -0.290697  0  3.882202  0  0  -0.300693  0  3.897686  0  -0.002775  0  -0.092592  -0.283939  0  3.871774  0
C  C103  1  0.13714068  0.57795005  0.45793721  1  0  -0.264316  0  3.62677  0  0  -0.290753  0  3.882415  0  0  -0.300754  0  3.89791  0  -0.002247  0  -0.092606  -0.283996  0  3.871974  0
C  C104  1  0.26943192  0.06169028  0.03441392  1  0  0.690474  0  3.810064  0  0  0.646698  0  4.107787  0  0  0.679888  0  4.099201  0  1.501871  0  0.226554  0.624061  0  4.113192  0
C  C105  1  0.76941255  0.43831299  0.46559061  1  0  0.690784  0  3.809646  0  0  0.647084  0  4.107249  0  0  0.680297  0  4.098627  0  1.501442  0  0.22667  0.624442  0  4.112664  0
C  C106  1  0.73059839  0.93831275  0.96559541  1  0  0.690878  0  3.809576  0  0  0.647141  0  4.107239  0  0  0.680348  0  4.098628  0  1.500893  0  0.226638  0.624498  0  4.112666  0
C  C107  1  0.23058180  0.56168794  0.53440574  1  0  0.6909  0  3.809704  0  0  0.64717  0  4.107326  0  0  0.680374  0  4.098719  0  1.500612  0  0.226771  0.624534  0  4.112732  0
C  C108  1  0.03381799  0.97378556  0.78266238  1  0  0.713136  0  3.810262  0  0  0.665209  0  4.109641  0  0  0.698543  0  4.102924  0  1.544579  0  0.21018  0.642507  0  4.113443  0
C  C109  1  0.53381301  0.52621934  0.71733932  1  0  0.713026  0  3.810438  0  0  0.665242  0  4.109607  0  0  0.698579  0  4.102883  0  1.544114  0  0.210289  0.642519  0  4.113407  0
C  C110  1  0.96618067  0.02621748  0.21734076  1  0  0.713103  0  3.810284  0  0  0.665152  0  4.109682  0  0  0.698487  0  4.102964  0  1.544002  0  0.210166  0.642429  0  4.113484  0
C  C111  1  0.46618134  0.47378649  0.28265715  1  0  0.713084  0  3.810445  0  0  0.665231  0  4.109686  0  0  0.698565  0  4.102971  0  1.544423  0  0.210267  0.642526  0  4.113487  0
C  C112  1  0.18301248  0.95307325  0.84327100  1  0  -0.319614  0  3.721281  0  0  -0.361779  0  3.960888  0  0  -0.368787  0  3.968379  0  -0.065561  0  -0.167325  -0.356951  0  3.955747  0
C  C113  1  0.68301613  0.54693305  0.65673419  1  0  -0.319476  0  3.72126  0  0  -0.361713  0  3.960858  0  0  -0.368716  0  3.96833  0  -0.064415  0  -0.167256  -0.356813  0  3.955632  0
C  C114  1  0.81698043  0.04693328  0.15673621  1  0  -0.319545  0  3.721282  0  0  -0.361681  0  3.960811  0  0  -0.368684  0  3.968286  0  -0.064709  0  -0.167256  -0.356777  0  3.955575  0
C  C115  1  0.31698398  0.45307069  0.34326666  1  0  -0.31946  0  3.721039  0  0  -0.361718  0  3.960736  0  0  -0.368719  0  3.96821  0  -0.064868  0  -0.167298  -0.356883  0  3.955586  0
N  N116  1  0.77824971  0.04575020  0.59815724  1  0  -0.372176  0  3.337173  0  0  -0.29167  0  3.614913  0  0  -0.311624  0  3.629475  0  -1.259228  0  -0.3283  -0.278185  0  3.604975  0
N  N117  1  0.27826189  0.45424467  0.90184310  1  0  -0.372046  0  3.337238  0  0  -0.29152  0  3.614946  0  0  -0.311487  0  3.629504  0  -1.258891  0  -0.328239  -0.278037  0  3.605006  0
N  N118  1  0.22173313  0.95425073  0.40184841  1  0  -0.37191  0  3.337021  0  0  -0.291536  0  3.614774  0  0  -0.311505  0  3.629333  0  -1.258972  0  -0.328255  -0.278053  0  3.604832  0
N  N119  1  0.72174685  0.54575067  0.09815604  1  0  -0.37217  0  3.337209  0  0  -0.291695  0  3.614973  0  0  -0.311663  0  3.629529  0  -1.259208  0  -0.328283  -0.278214  0  3.605041  0
N  N120  1  0.69471892  0.86515360  0.56022227  1  0  -0.374479  0  3.307873  0  0  -0.296873  0  3.581185  0  0  -0.316898  0  3.597254  0  -1.249703  0  -0.329743  -0.283406  0  3.57025  0
N  N121  1  0.19474261  0.63483940  0.93977551  1  0  -0.374443  0  3.307708  0  0  -0.296775  0  3.580904  0  0  -0.316794  0  3.596959  0  -1.24978  0  -0.329652  -0.283307  0  3.569969  0
N  N122  1  0.30525960  0.13483963  0.43977505  1  0  -0.374462  0  3.30805  0  0  -0.296796  0  3.58133  0  0  -0.316811  0  3.597381  0  -1.249869  0  -0.329712  -0.28333  0  3.570394  0
N  N123  1  0.80526612  0.36515453  0.06022448  1  0  -0.374398  0  3.308125  0  0  -0.296774  0  3.581331  0  0  -0.316797  0  3.597405  0  -1.249837  0  -0.329714  -0.283307  0  3.570395  0
O  O124  1  0.48546686  0.97323882  0.73905189  1  0  -0.654829  0  2.03403  0  0  -0.580615  0  2.306636  0  0  -0.610948  0  2.290823  0  -1.176573  0  -0.342292  -0.559141  0  2.316638  0
O  O125  1  0.98548058  0.52675698  0.76094605  1  0  -0.654687  0  2.034001  0  0  -0.580565  0  2.306582  0  0  -0.610898  0  2.290771  0  -1.176521  0  -0.342268  -0.559092  0  2.316584  0
O  O126  1  0.51451742  0.02675371  0.26094586  1  0  -0.654759  0  2.034172  0  0  -0.58065  0  2.306809  0  0  -0.610981  0  2.290994  0  -1.176519  0  -0.342293  -0.55918  0  2.316817  0
O  O127  1  0.01452240  0.47324535  0.23905131  1  0  -0.654735  0  2.034108  0  0  -0.580605  0  2.306746  0  0  -0.610938  0  2.290936  0  -1.176452  0  -0.342263  -0.559132  0  2.316747  0
O  O128  1  0.54086490  0.12416181  0.81617952  1  0  -0.603273  0  1.914086  0  0  -0.559771  0  2.135341  0  0  -0.581852  0  2.12694  0  -1.174716  0  -0.319457  -0.54419  0  2.140628  0
O  O129  1  0.04086700  0.37583516  0.68381830  1  0  -0.603313  0  1.914102  0  0  -0.559845  0  2.135283  0  0  -0.581935  0  2.126891  0  -1.1747  0  -0.319468  -0.544266  0  2.14057  0
O  O130  1  0.45913808  0.87583212  0.18381613  1  0  -0.603429  0  1.913839  0  0  -0.55993  0  2.135014  0  0  -0.582018  0  2.126618  0  -1.174674  0  -0.319533  -0.54435  0  2.140302  0
O  O131  1  0.95914173  0.62416788  0.31617925  1  0  -0.603341  0  1.914029  0  0  -0.559851  0  2.135216  0  0  -0.581937  0  2.126817  0  -1.174686  0  -0.319495  -0.544271  0  2.140504  0
O  O132  1  0.89311982  0.91324686  0.75947417  1  0  -0.675504  0  1.997595  0  0  -0.594717  0  2.248519  0  0  -0.624848  0  2.232293  0  -1.173146  0  -0.334096  -0.573546  0  2.258919  0
O  O133  1  0.39311905  0.58675804  0.74052567  1  0  -0.675474  0  1.997695  0  0  -0.594741  0  2.248566  0  0  -0.624869  0  2.23234  0  -1.173304  0  -0.33413  -0.573573  0  2.258978  0
O  O134  1  0.10687884  0.08675618  0.24052896  1  0  -0.67554  0  1.99758  0  0  -0.594748  0  2.248508  0  0  -0.62487  0  2.232278  0  -1.173191  0  -0.334082  -0.573581  0  2.258921  0
O  O135  1  0.60686954  0.41324779  0.25946709  1  0  -0.675604  0  1.997846  0  0  -0.594787  0  2.248686  0  0  -0.624904  0  2.232455  0  -1.173074  0  -0.334112  -0.573618  0  2.259088  0
O  O136  1  0.04385492  0.04366126  0.75552588  1  0  -0.618412  0  1.898313  0  0  -0.565583  0  2.124812  0  0  -0.589876  0  2.115318  0  -1.179751  0  -0.311453  -0.548412  0  2.130648  0
O  O137  1  0.54384994  0.45633991  0.74447311  1  0  -0.618374  0  1.898222  0  0  -0.565628  0  2.124703  0  0  -0.589921  0  2.115208  0  -1.179441  0  -0.311523  -0.548451  0  2.130535  0
O  O138  1  0.95614374  0.95633828  0.24447566  1  0  -0.618378  0  1.898165  0  0  -0.565561  0  2.124693  0  0  -0.589855  0  2.1152  0  -1.179316  0  -0.311469  -0.54838  0  2.130513  0
O  O139  1  0.45614153  0.54366452  0.25552421  1  0  -0.618377  0  1.898216  0  0  -0.565608  0  2.124697  0  0  -0.589898  0  2.115201  0  -1.179715  0  -0.311522  -0.548433  0  2.130526  0
O  O140  1  0.19270990  0.98791531  0.03541467  1  0  -0.554525  0  1.975454  0  0  -0.509404  0  2.191478  0  0  -0.531251  0  2.186284  0  -1.155753  0  -0.281698  -0.494399  0  2.194832  0
O  O141  1  0.69264594  0.51208889  0.46459365  1  0  -0.554714  0  1.974873  0  0  -0.509644  0  2.190881  0  0  -0.531504  0  2.185674  0  -1.155547  0  -0.281842  -0.494641  0  2.194245  0
O  O142  1  0.80738371  0.01208772  0.96460148  1  0  -0.554734  0  1.974806  0  0  -0.509697  0  2.190907  0  0  -0.531552  0  2.185702  0  -1.155385  0  -0.28184  -0.494709  0  2.194286  0
O  O143  1  0.30735129  0.48791415  0.53540577  1  0  -0.554771  0  1.974866  0  0  -0.509732  0  2.190924  0  0  -0.531583  0  2.185722  0  -1.155333  0  -0.281915  -0.494732  0  2.194286  0
O  O144  1  0.28019245  0.13671086  0.10608554  1  0  -0.561106  0  1.999158  0  0  -0.511629  0  2.20085  0  0  -0.532457  0  2.184525  0  -1.169646  0  -0.345644  -0.496974  0  2.211853  0
O  O145  1  0.78018603  0.36330081  0.39391513  1  0  -0.561272  0  1.999402  0  0  -0.511861  0  2.200996  0  0  -0.532675  0  2.184688  0  -1.169512  0  -0.345746  -0.497208  0  2.212007  0
O  O146  1  0.71981628  0.86330057  0.89391869  1  0  -0.561291  0  1.999263  0  0  -0.511816  0  2.200946  0  0  -0.532668  0  2.184561  0  -1.169427  0  -0.345676  -0.497157  0  2.211956  0
O  O147  1  0.21980113  0.63670503  0.60608011  1  0  -0.561261  0  1.999344  0  0  -0.511773  0  2.201071  0  0  -0.532625  0  2.184692  0  -1.169326  0  -0.345731  -0.49712  0  2.212077  0
