# generated using pymatgen
data_CdH10C16(SN3)2
_symmetry_space_group_name_H-M   'P 1'
_cell_length_a   5.82745814
_cell_length_b   7.60895931
_cell_length_c   9.18592785
_cell_angle_alpha   89.36725863
_cell_angle_beta   74.28744183
_cell_angle_gamma   88.29413906
_symmetry_Int_Tables_number   1
_chemical_formula_structural   CdH10C16(SN3)2
_chemical_formula_sum   'Cd1 H10 C16 S2 N6'
_cell_volume   391.91630935
_cell_formula_units_Z   1
loop_
 _symmetry_equiv_pos_site_id
 _symmetry_equiv_pos_as_xyz
  1  'x, y, z'
loop_
 _atom_site_type_symbol
 _atom_site_label
 _atom_site_symmetry_multiplicity
 _atom_site_fract_x
 _atom_site_fract_y
 _atom_site_fract_z
 _atom_site_occupancy
 _atom_site_hle17_bader_spin_density
 _atom_site_hle17_ddec_charge
 _atom_site_hle17_ddec_spin_density
 _atom_site_hle17_ddec_sum_bond_order
 _atom_site_hle17_magmom
 _atom_site_hse06_10hf_bader_spin_density
 _atom_site_hse06_10hf_ddec_charge
 _atom_site_hse06_10hf_ddec_spin_density
 _atom_site_hse06_10hf_ddec_sum_bond_order
 _atom_site_hse06_10hf_magmom
 _atom_site_hse06_bader_spin_density
 _atom_site_hse06_ddec_charge
 _atom_site_hse06_ddec_spin_density
 _atom_site_hse06_ddec_sum_bond_order
 _atom_site_hse06_magmom
 _atom_site_pbe_bader_spin_density
 _atom_site_pbe_cm5_charge
 _atom_site_pbe_ddec_charge
 _atom_site_pbe_ddec_spin_density
 _atom_site_pbe_ddec_sum_bond_order
 _atom_site_pbe_magmom
Cd  Cd0  1  0.00000502  0.00000532  0.00000236  1  0  0.95071  0  1.933688  0  0  0.755675  0  2.404139  0  0  0.803616  0  2.365663  0  0  0.726901  0.722535  0  2.429988  0
H  H1  1  0.31426087  0.77401300  0.19217747  1  0  0.08751  0  0.979305  0  0  0.096359  0  1.04532  0  0  0.097908  0  1.04488  0  0  0.116726  0.094876  0  1.046301  0
H  H2  1  0.68573652  0.22599154  0.80781978  1  0  0.087501  0  0.979306  0  0  0.096353  0  1.045313  0  0  0.097898  0  1.044888  0  0  0.116706  0.094869  0  1.046297  0
H  H3  1  0.88468150  0.71805384  0.65467978  1  0  0.09736  0  0.992571  0  0  0.104383  0  1.061667  0  0  0.10697  0  1.060698  0  0  0.098987  0.10212  0  1.063307  0
H  H4  1  0.11532381  0.28193629  0.34531415  1  0  0.097425  0  0.992506  0  0  0.104435  0  1.06164  0  0  0.107025  0  1.060669  0  0  0.098978  0.10217  0  1.063274  0
H  H5  1  0.58249762  0.90746684  0.57700331  1  0  0.089225  0  0.969836  0  0  0.089515  0  1.047009  0  0  0.092528  0  1.044888  0  0  0.115832  0.087305  0  1.048423  0
H  H6  1  0.41749875  0.09252323  0.42299429  1  0  0.089208  0  0.969842  0  0  0.089484  0  1.047028  0  0  0.092497  0  1.044908  0  0  0.115819  0.087273  0  1.048444  0
H  H7  1  0.51605553  0.55691461  0.23074312  1  0  0.08583  0  0.995474  0  0  0.091886  0  1.068745  0  0  0.09396  0  1.068678  0  0  0.091211  0.089858  0  1.069929  0
H  H8  1  0.48394368  0.44308864  0.76925602  1  0  0.085815  0  0.99551  0  0  0.091877  0  1.068769  0  0  0.09395  0  1.068702  0  0  0.091229  0.089847  0  1.069952  0
H  H9  1  0.18278760  0.63426272  0.70882589  1  0  0.09326  0  0.983939  0  0  0.101239  0  1.052751  0  0  0.103783  0  1.051621  0  0  0.09441  0.099454  0  1.053416  0
H  H10  1  0.81720840  0.36573393  0.29117278  1  0  0.093186  0  0.983948  0  0  0.101196  0  1.052744  0  0  0.103741  0  1.051612  0  0  0.094397  0.099412  0  1.053408  0
C  C11  1  0.15402369  0.79359585  0.28493637  1  0  0.061668  0  3.634682  0  0  0.023342  0  3.885099  0  0  0.026904  0  3.903397  0  0  0.055842  0.021062  0  3.873003  0
C  C12  1  0.84597375  0.20640738  0.71506198  1  0  0.061743  0  3.634571  0  0  0.023434  0  3.884977  0  0  0.026995  0  3.90327  0  0  0.055901  0.021153  0  3.872887  0
C  C13  1  0.13390457  0.72240024  0.43003305  1  0  0.054845  0  3.73317  0  0  0.069812  0  3.963717  0  0  0.070103  0  3.984803  0  0  0.017559  0.06945  0  3.949469  0
C  C14  1  0.86609665  0.27759907  0.56996362  1  0  0.054799  0  3.733106  0  0  0.069757  0  3.963715  0  0  0.070048  0  3.984799  0  0  0.017539  0.069393  0  3.94947  0
C  C15  1  0.92105171  0.76490660  0.53831122  1  0  -0.089305  0  3.665554  0  0  -0.11137  0  3.907163  0  0  -0.113162  0  3.926406  0  0  -0.062485  -0.110177  0  3.894429  0
C  C16  1  0.07895327  0.23508880  0.46168597  1  0  -0.089314  0  3.665508  0  0  -0.11137  0  3.9071  0  0  -0.113163  0  3.926343  0  0  -0.062425  -0.110167  0  3.894355  0
C  C17  1  0.75073045  0.86992211  0.49532092  1  0  0.075328  0  3.70719  0  0  0.052951  0  3.969051  0  0  0.055252  0  3.986467  0  0  0.045338  0.051648  0  3.957136  0
C  C18  1  0.24927088  0.13007458  0.50467794  1  0  0.07529  0  3.707154  0  0  0.052938  0  3.968985  0  0  0.05524  0  3.986398  0  0  0.045339  0.051635  0  3.957066  0
C  C19  1  0.50713262  0.53396113  0.34942960  1  0  -0.09112  0  3.719796  0  0  -0.110965  0  3.966355  0  0  -0.114287  0  3.989556  0  0  -0.085623  -0.109126  0  3.951764  0
C  C20  1  0.49285997  0.46603285  0.65056858  1  0  -0.091085  0  3.719797  0  0  -0.110896  0  3.966356  0  0  -0.11422  0  3.989566  0  0  -0.085603  -0.109047  0  3.95175  0
C  C21  1  0.32260519  0.61062297  0.46480243  1  0  0.040047  0  3.774362  0  0  0.056179  0  4.001712  0  0  0.055046  0  4.026319  0  0  -0.005397  0.057134  0  3.984818  0
C  C22  1  0.67738562  0.38937100  0.53519605  1  0  0.040085  0  3.774325  0  0  0.056126  0  4.001819  0  0  0.054993  0  4.026422  0  0  -0.005432  0.05708  0  3.984929  0
C  C23  1  0.31933493  0.57459859  0.61595671  1  0  -0.08589  0  3.704335  0  0  -0.105457  0  3.950714  0  0  -0.108217  0  3.972972  0  0  -0.08285  -0.103072  0  3.934822  0
C  C24  1  0.68065931  0.42539804  0.38404116  1  0  -0.085827  0  3.704298  0  0  -0.105387  0  3.950692  0  0  -0.108148  0  3.972953  0  0  -0.08281  -0.103005  0  3.934797  0
C  C25  1  0.53557768  0.78503793  0.92825342  1  0  0.293342  0  3.995548  0  0  0.273112  0  4.298468  0  0  0.294821  0  4.312156  0  0  0.144654  0.258403  0  4.288627  0
C  C26  1  0.46442802  0.21497593  0.07175104  1  0  0.29341  0  3.995731  0  0  0.273174  0  4.298644  0  0  0.294886  0  4.312334  0  0  0.144681  0.258465  0  4.2888  0
S  S27  1  0.77815807  0.68989369  0.95155897  1  0  -0.317883  0  2.105409  0  0  -0.285046  0  2.424544  0  0  -0.300349  0  2.416716  0  0  -0.129446  -0.273323  0  2.429803  0
S  S28  1  0.22185368  0.31010577  0.04844793  1  0  -0.317873  0  2.105598  0  0  -0.285039  0  2.424749  0  0  -0.300341  0  2.416922  0  0  -0.129461  -0.273318  0  2.430012  0
N  N29  1  0.77781875  0.93067105  0.35440912  1  0  -0.15879  0  3.016317  0  0  -0.138498  0  3.293791  0  0  -0.142643  0  3.310838  0  0  -0.191493  -0.135663  0  3.282697  0
N  N30  1  0.22218085  0.06932431  0.64559114  1  0  -0.158714  0  3.016278  0  0  -0.138441  0  3.293756  0  0  -0.142583  0  3.310798  0  0  -0.191525  -0.135606  0  3.282661  0
N  N31  1  0.98145892  0.89137003  0.25061300  1  0  -0.192159  0  3.253104  0  0  -0.121977  0  3.526222  0  0  -0.136597  0  3.548056  0  0  -0.199689  -0.111968  0  3.511364  0
N  N32  1  0.01854039  0.10863060  0.74938833  1  0  -0.192266  0  3.253089  0  0  -0.122082  0  3.526214  0  0  -0.1367  0  3.548043  0  0  -0.199701  -0.112073  0  3.511358  0
N  N33  1  0.35907871  0.85265545  0.91127768  1  0  -0.518628  0  2.884297  0  0  -0.4633  0  3.16654  0  0  -0.483827  0  3.173029  0  0  -0.387043  -0.449251  0  3.161779  0
N  N34  1  0.64092507  0.14735974  0.08873143  1  0  -0.518732  0  2.884325  0  0  -0.463399  0  3.166592  0  0  -0.483928  0  3.173085  0  0  -0.387065  -0.449347  0  3.161827  0
