# generated using pymatgen
data_MnH36C52S(N4O3)2
_symmetry_space_group_name_H-M   'P 1'
_cell_length_a   12.30542863
_cell_length_b   14.16419744
_cell_length_c   14.41632989
_cell_angle_alpha   89.86054602
_cell_angle_beta   107.13571161
_cell_angle_gamma   98.99055257
_symmetry_Int_Tables_number   1
_chemical_formula_structural   MnH36C52S(N4O3)2
_chemical_formula_sum   'Mn2 H72 C104 S2 N16 O12'
_cell_volume   2369.14226192
_cell_formula_units_Z   2
loop_
 _symmetry_equiv_pos_site_id
 _symmetry_equiv_pos_as_xyz
  1  'x, y, z'
loop_
 _atom_site_type_symbol
 _atom_site_label
 _atom_site_symmetry_multiplicity
 _atom_site_fract_x
 _atom_site_fract_y
 _atom_site_fract_z
 _atom_site_occupancy
 _atom_site_pbe_bader_charge
 _atom_site_pbe_bader_spin_density
 _atom_site_pbe_cm5_charge
 _atom_site_pbe_ddec_charge
 _atom_site_pbe_ddec_spin_density
 _atom_site_pbe_ddec_sum_bond_order
 _atom_site_pbe_magmom
Mn  Mn0  1  0.76126012  0.29038530  0.14002099  1  1.49566  4.526341  0.611204  0.819586  4.662264  2.506355  4.452
Mn  Mn1  1  0.23873404  0.70960969  0.85997767  1  1.495513  4.526419  0.61119  0.819583  4.662352  2.506191  4.452
H  H2  1  0.52800546  0.10235104  0.05998373  1  0.110665  0.000435  0.1177  0.111639  -2e-06  1.011183  0.0
H  H3  1  0.47199638  0.89763467  0.94001005  1  0.110894  0.000435  0.117653  0.111623  -2e-06  1.011264  0.0
H  H4  1  0.76073991  0.16348937  0.33988379  1  0.147568  0.000384  0.12817  0.088331  -4.3e-05  1.057224  0.0
H  H5  1  0.23924972  0.83650419  0.66011367  1  0.14744  0.000384  0.128178  0.088364  -4.3e-05  1.057108  0.0
H  H6  1  0.75762746  0.39254072  0.93078897  1  0.197483  0.000495  0.129693  0.104192  0.000292  1.068917  0.0
H  H7  1  0.24237124  0.60746068  0.06921645  1  0.197357  0.000495  0.129651  0.104143  0.000292  1.068999  0.0
H  H8  1  0.65295728  0.49331314  0.84178658  1  0.072144  0.0001  0.1012  0.101326  2.2e-05  1.046882  0.0
H  H9  1  0.34705429  0.50667830  0.15820563  1  0.071676  0.0001  0.101202  0.101278  2.2e-05  1.046861  0.0
H  H10  1  0.97069870  0.43375225  0.53357816  1  0.148248  0.000101  0.105348  0.111349  4.1e-05  1.049968  0.0
H  H11  1  0.02933649  0.56625563  0.46642100  1  0.148879  0.000101  0.105341  0.111424  4.1e-05  1.049828  0.0
H  H12  1  0.75949556  0.19234776  0.92861300  1  0.220871  0.000322  0.132398  0.109719  0.000198  1.049129  0.0
H  H13  1  0.24051153  0.80766151  0.07139325  1  0.220973  0.000322  0.132368  0.109728  0.000198  1.049027  0.0
H  H14  1  0.72326768  0.38182073  0.34896153  1  0.115733  0.000674  0.137411  0.097756  0.000345  1.007848  0.0
H  H15  1  0.27674328  0.61817351  0.65104438  1  0.115904  0.000674  0.13738  0.097663  0.000345  1.007942  0.0
H  H16  1  0.84759246  0.11278028  0.81142559  1  0.124597  4.1e-05  0.105314  0.12448  1.5e-05  1.041181  0.0
H  H17  1  0.15238684  0.88722976  0.18856773  1  0.124379  4.1e-05  0.105376  0.124542  1.5e-05  1.041241  0.0
H  H18  1  0.83754774  0.61070972  0.59840138  1  0.100175  7e-05  0.104542  0.110827  1.3e-05  1.020596  0.0
H  H19  1  0.16245967  0.38929738  0.40160982  1  0.100541  7e-05  0.104517  0.110798  1.3e-05  1.020623  0.0
H  H20  1  0.63692726  0.78131380  0.79692023  1  0.080917  6.5e-05  0.10385  0.109247  1.3e-05  1.004738  0.0
H  H21  1  0.36306902  0.21869192  0.20307899  1  0.080817  6.5e-05  0.103772  0.109184  1.3e-05  1.004795  0.0
H  H22  1  0.79111905  0.01425914  0.65963001  1  0.064044  1e-05  0.097191  0.099301  2e-06  1.030526  0.0
H  H23  1  0.20885909  0.98574447  0.34035814  1  0.064024  1e-05  0.09718  0.099266  2e-06  1.030595  0.0
H  H24  1  0.91586926  0.10876554  0.21176904  1  0.138852  0.000407  0.116209  0.111081  3.9e-05  1.01726  0.0
H  H25  1  0.08413693  0.89123015  0.78823352  1  0.138308  0.000407  0.116222  0.111149  3.9e-05  1.017292  0.0
H  H26  1  0.95865689  0.64774354  0.08557383  1  0.142135  0.000705  0.119894  0.129933  0.000419  1.029129  0.0
H  H27  1  0.04133520  0.35225928  0.91443399  1  0.142025  0.000705  0.119919  0.130007  0.000419  1.029031  0.0
H  H28  1  0.95752313  0.16447221  0.38927772  1  0.090888  0.000258  0.10479  0.104148  -7.6e-05  1.017998  0.0
H  H29  1  0.04246710  0.83553710  0.61071781  1  0.09053  0.000258  0.104784  0.104063  -7.6e-05  1.018028  0.0
H  H30  1  0.24338277  0.19001059  0.65485071  1  0.077691  0.000128  0.101517  0.105186  7e-05  1.034161  0.0
H  H31  1  0.75661786  0.80999377  0.34513302  1  0.077912  0.000128  0.101557  0.105183  7e-05  1.034323  0.0
H  H32  1  0.85143145  0.90829357  0.54576853  1  0.070448  2.6e-05  0.103184  0.106555  1.5e-05  1.013419  0.0
H  H33  1  0.14856456  0.09171502  0.45422992  1  0.070373  2.6e-05  0.103164  0.106492  1.5e-05  1.013423  0.0
H  H34  1  0.48685579  0.86643970  0.50639277  1  0.05943  5.8e-05  0.105445  0.107448  3.1e-05  0.987967  0.0
H  H35  1  0.51314360  0.13355599  0.49360798  1  0.059557  5.8e-05  0.105424  0.107408  3.1e-05  0.987907  0.0
H  H36  1  0.81378998  0.51503315  0.44951370  1  0.094784  0.000154  0.108156  0.117092  8.4e-05  1.027928  0.0
H  H37  1  0.18622953  0.48496608  0.55049865  1  0.094952  0.000154  0.108155  0.117002  8.4e-05  1.027919  0.0
H  H38  1  0.02299714  0.36078307  0.69306050  1  0.110719  0.00014  0.114353  0.122753  4.6e-05  0.995264  0.0
H  H39  1  0.97703113  0.63921982  0.30693613  1  0.110629  0.00014  0.114387  0.122777  4.6e-05  0.995222  0.0
H  H40  1  0.48526033  0.60542015  0.31845772  1  0.098169  4.6e-05  0.110364  0.121232  3e-05  1.000563  0.0
H  H41  1  0.51474925  0.39457553  0.68154643  1  0.097971  4.6e-05  0.1103  0.121194  3e-05  1.000568  0.0
H  H42  1  0.91122754  0.77418251  0.77611155  1  0.101728  4.7e-05  0.103654  0.106358  -0.00013  1.014018  0.0
H  H43  1  0.08875358  0.22583527  0.22390791  1  0.101294  4.7e-05  0.103676  0.106416  -0.000131  1.014038  0.0
H  H44  1  0.45783746  0.95998368  0.35763985  1  0.095905  3.7e-05  0.107068  0.114983  2.7e-05  1.014567  0.0
H  H45  1  0.54216188  0.04001131  0.64235672  1  0.09349  3.7e-05  0.107068  0.114996  2.7e-05  1.014614  0.0
H  H46  1  0.45740389  0.22293899  0.72958278  1  0.124758  8.5e-05  0.102145  0.103291  5e-05  1.031504  0.0
H  H47  1  0.54260074  0.77706240  0.27042560  1  0.12472  8.5e-05  0.102179  0.10331  5e-05  1.031564  0.0
H  H48  1  0.95412641  0.49833572  0.21278206  1  0.169366  0.00062  0.114065  0.117545  0.00034  1.049412  0.0
H  H49  1  0.04586788  0.50166066  0.78722358  1  0.169478  0.00062  0.114072  0.117591  0.00034  1.049422  0.0
H  H50  1  0.51452165  0.70761909  0.46440449  1  0.066504  1.6e-05  0.101328  0.102074  1e-06  1.014499  0.0
H  H51  1  0.48548360  0.29238448  0.53559504  1  0.066547  1.6e-05  0.101334  0.102054  1e-06  1.014532  0.0
H  H52  1  0.57945962  0.44481778  0.05747748  1  0.074306  0.000556  0.118402  0.112725  7.7e-05  1.010067  0.0
H  H53  1  0.42053701  0.55518577  0.94252531  1  0.074181  0.000556  0.118397  0.112804  7.7e-05  1.01008  0.0
H  H54  1  0.82281220  0.00271776  0.39664220  1  0.089273  7e-05  0.106459  0.11278  3.2e-05  1.014978  0.0
H  H55  1  0.17717956  0.99728224  0.60335514  1  0.08923  7e-05  0.106491  0.11286  3.2e-05  1.015026  0.0
H  H56  1  0.88734944  0.95654464  0.08160954  1  0.104389  0.000653  0.117743  0.118354  0.00039  1.036447  0.0
H  H57  1  0.11264770  0.04345249  0.91838992  1  0.104678  0.000653  0.117729  0.118322  0.00039  1.036435  0.0
H  H58  1  0.01056640  0.08940010  0.55237156  1  0.100725  -1e-06  0.103503  0.106693  -1.2e-05  1.020187  0.0
H  H59  1  0.98941947  0.91059493  0.44761588  1  0.101139  -1e-06  0.103512  0.106692  -1.2e-05  1.020227  0.0
H  H60  1  0.41561975  0.26732346  0.01008321  1  0.13657  0.000218  0.110148  0.117375  -0.000138  0.997081  0.0
H  H61  1  0.58439333  0.73265644  0.98993022  1  0.136874  0.000218  0.110156  0.11734  -0.000138  0.997181  0.0
H  H62  1  0.54875851  0.58633256  0.17735986  1  0.144733  0.000604  0.117437  0.116366  0.000338  1.056613  0.0
H  H63  1  0.45125748  0.41366596  0.82265016  1  0.144618  0.000604  0.117441  0.116298  0.000338  1.056665  0.0
H  H64  1  0.69394133  0.88128372  0.94901221  1  0.085731  7.7e-05  0.10181  0.105523  5.9e-05  1.043146  0.0
H  H65  1  0.30605156  0.11871341  0.05098611  1  0.085765  7.7e-05  0.101823  0.105519  5.9e-05  1.043171  0.0
H  H66  1  0.59167845  0.57646754  0.68856983  1  0.071294  3.2e-05  0.097389  0.09698  2e-06  1.025539  0.0
H  H67  1  0.40833682  0.42352104  0.31142267  1  0.072161  3.2e-05  0.09739  0.097001  2e-06  1.025412  0.0
H  H68  1  0.97696595  0.68711933  0.92483024  1  0.093232  0.000158  0.108544  0.116176  -0.000182  1.028626  0.0
H  H69  1  0.02301184  0.31290706  0.07518486  1  0.093806  0.000157  0.108558  0.116159  -0.000182  1.028653  0.0
H  H70  1  0.19918676  0.23399331  0.93682970  1  0.123796  4.9e-05  0.10752  0.110188  3.6e-05  1.01456  0.0
H  H71  1  0.80080897  0.76599237  0.06316940  1  0.123692  4.9e-05  0.107539  0.110197  3.6e-05  1.014666  0.0
H  H72  1  0.48318971  0.95479083  0.17950940  1  0.102394  0.000708  0.123726  0.127922  0.000413  1.008212  0.0
H  H73  1  0.51680485  0.04520131  0.82048452  1  0.102539  0.000708  0.123736  0.127937  0.000413  1.008358  0.0
C  C74  1  0.74576457  0.68268291  0.72213967  1  0.005403  0.001219  -0.010992  0.058411  0.000969  4.023099  0.001
C  C75  1  0.25423199  0.31731566  0.27785963  1  0.005487  0.00122  -0.011018  0.058298  0.00097  4.023348  0.001
C  C76  1  0.56961350  0.09291399  0.13613976  1  0.436982  0.003124  0.001217  -0.027192  0.001801  3.997398  0.002
C  C77  1  0.43039046  0.90707815  0.86385458  1  0.435233  0.00313  0.001309  -0.027209  0.001803  3.997479  0.002
C  C78  1  0.81799159  0.58547041  0.89414730  1  0.264698  0.000418  0.095746  0.170434  0.000332  4.009644  0.0
C  C79  1  0.18199699  0.41453668  0.10586444  1  0.264809  0.000418  0.095684  0.170243  0.000332  4.00969  0.0
C  C80  1  0.69317422  0.82698380  0.62826587  1  -0.013485  0.001174  -0.007496  -0.040151  0.000937  3.93153  0.001
C  C81  1  0.30682593  0.17301978  0.37173230  1  -0.014039  0.001173  -0.007521  -0.040169  0.000936  3.931426  0.001
C  C82  1  0.70402461  0.73232619  0.63016428  1  -0.031303  -0.00011  -0.002568  -0.026015  -0.000164  3.935043  0.0
C  C83  1  0.29597383  0.26767808  0.36984038  1  -0.030971  -0.00011  -0.002516  -0.025893  -0.000164  3.934932  0.0
C  C84  1  0.44786898  0.24474083  0.87399463  1  -0.036668  0.002275  -0.017511  -0.035393  0.00157  3.969474  0.001
C  C85  1  0.55213337  0.75525271  0.12600761  1  -0.036892  0.002274  -0.017514  -0.035522  0.001569  3.969391  0.001
C  C86  1  0.69181113  0.12801804  0.27896177  1  0.956058  0.006048  0.138847  0.088954  0.004782  3.91757  0.004
C  C87  1  0.30818431  0.87197480  0.72103724  1  0.956053  0.006051  0.138944  0.088959  0.004784  3.917141  0.004
C  C88  1  0.68060876  0.67044933  0.54132758  1  -0.013832  0.001458  -0.01125  0.063484  0.001134  4.011317  0.001
C  C89  1  0.31939365  0.32954920  0.45867813  1  -0.013516  0.001457  -0.011281  0.063549  0.001133  4.011507  0.001
C  C90  1  0.67127211  0.87932099  0.53587821  1  0.048079  0.000722  -0.003071  0.07657  0.00057  4.000629  0.0
C  C91  1  0.32871909  0.12067546  0.46411273  1  0.048585  0.000721  -0.003076  0.07649  0.00057  4.000516  0.0
C  C92  1  0.01949933  0.22098620  0.63046610  1  -0.216902  0.001582  -0.023978  -0.088423  0.001211  4.009545  0.001
C  C93  1  0.98050398  0.77901527  0.36952460  1  -0.216837  0.001581  -0.024047  -0.08856  0.00121  4.009264  0.001
C  C94  1  0.57759775  0.26756498  0.91647203  1  1.572917  0.007853  0.197608  0.54364  0.00743  4.27632  0.007
C  C95  1  0.42240860  0.73242713  0.08352988  1  1.572802  0.00785  0.197658  0.543895  0.007426  4.276047  0.007
C  C96  1  0.81095785  0.44154892  0.99082829  1  0.911751  0.011804  0.138528  0.087924  0.00982  3.890457  0.008
C  C97  1  0.18903051  0.55845607  0.00917437  1  0.911686  0.011807  0.138588  0.088001  0.009823  3.890471  0.008
C  C98  1  0.71463197  0.88801028  0.71727628  1  0.002659  0.000167  -0.011584  0.060832  0.000132  4.003711  0.0
C  C99  1  0.28535838  0.11199975  0.28271997  1  0.002789  0.000167  -0.011579  0.060823  0.000132  4.003763  0.0
C  C100  1  0.95935810  0.30290774  0.45096768  1  -0.054216  0.002727  -0.01188  -0.023862  0.001669  3.949543  0.001
C  C101  1  0.04064734  0.69709227  0.54902982  1  -0.053665  0.002726  -0.011875  -0.023993  0.001669  3.949055  0.001
C  C102  1  0.71019128  0.55401346  0.82656325  1  0.008314  0.001132  -0.095143  -0.167632  0.000817  4.001272  0.001
C  C103  1  0.28981511  0.44597866  0.17343728  1  0.008911  0.001132  -0.095071  -0.16744  0.000816  4.00109  0.001
C  C104  1  0.77785717  0.00162294  0.89027526  1  0.309851  0.000848  0.091075  0.162882  0.000775  4.037572  0.001
C  C105  1  0.22213996  0.99837848  0.10972419  1  0.309872  0.000848  0.09109  0.162945  0.000775  4.037611  0.001
C  C106  1  0.64813145  0.55402537  0.37443239  1  0.279659  0.000665  0.093089  0.164096  0.000592  4.026741  0.001
C  C107  1  0.35188424  0.44597962  0.62557199  1  0.279207  0.000665  0.09305  0.164032  0.000592  4.026614  0.001
C  C108  1  0.63902650  0.98786813  0.36911987  1  0.284363  0.000667  0.093897  0.164405  0.000595  4.024274  0.0
C  C109  1  0.36097235  0.01212832  0.63087310  1  0.284083  0.000667  0.093903  0.164317  0.000595  4.0243  0.0
C  C110  1  0.21054158  0.20725174  0.79281182  1  -0.209175  0.00098  -0.021359  -0.078133  0.000749  3.989327  0.001
C  C111  1  0.78945589  0.79275044  0.20717870  1  -0.20953  0.00098  -0.021354  -0.078116  0.000748  3.989319  0.001
C  C112  1  0.97732447  0.35795069  0.53649312  1  -0.055171  0.002057  -0.077306  -0.086474  0.001602  3.936991  0.001
C  C113  1  0.02268704  0.64205363  0.46350044  1  -0.056148  0.002057  -0.077353  -0.086557  0.001602  3.936795  0.001
C  C114  1  0.93046410  0.34902111  0.35347308  1  1.614947  0.012439  0.200175  0.547977  0.011752  4.273672  0.01
C  C115  1  0.06953707  0.65097460  0.64652467  1  1.615947  0.01242  0.200234  0.548145  0.011744  4.273884  0.01
C  C116  1  0.80096763  0.15085776  0.98875154  1  0.905211  0.014402  0.143506  0.097579  0.012135  3.865813  0.01
C  C117  1  0.19903899  0.84914437  0.01125043  1  0.905037  0.014397  0.143544  0.097641  0.01213  3.865623  0.01
C  C118  1  0.67995738  0.41648762  0.28473102  1  0.99768  0.013172  0.148742  0.106462  0.011017  3.905306  0.009
C  C119  1  0.32004779  0.58350735  0.71527266  1  0.997358  0.013167  0.148816  0.106636  0.011013  3.905291  0.009
C  C120  1  0.80040567  0.04047286  0.80770334  1  -0.039811  0.000206  -0.093358  -0.164078  0.000115  3.988523  0.0
C  C121  1  0.19958828  0.95952930  0.19229180  1  -0.040193  0.000206  -0.093427  -0.1642  0.000115  3.988559  0.0
C  C122  1  0.76085778  0.61118799  0.53686179  1  -0.006641  -0.000347  -0.083301  -0.098275  -0.000428  3.952749  0.0
C  C123  1  0.23915278  0.38881270  0.46314263  1  -0.007302  -0.000346  -0.083296  -0.098421  -0.000428  3.953071  0.0
C  C124  1  0.68560996  0.85293139  0.79997893  1  -0.006503  0.000149  -0.085432  -0.103507  8.2e-05  3.979012  0.0
C  C125  1  0.31438504  0.14707648  0.20001995  1  -0.006492  0.000149  -0.085379  -0.10345  8.2e-05  3.979003  0.0
C  C126  1  0.76838130  0.98401796  0.72223245  1  -0.048244  0.000444  -0.091447  -0.111633  0.000346  3.974752  0.0
C  C127  1  0.23161222  0.01599064  0.27776256  1  -0.047475  0.000444  -0.091418  -0.111569  0.000346  3.974661  0.0
C  C128  1  0.87991404  0.10404189  0.13347805  1  0.356908  0.005751  -1.3e-05  -0.024755  0.003944  4.009927  0.004
C  C129  1  0.12009089  0.89595595  0.86652348  1  0.357274  0.005749  -5.5e-05  -0.025011  0.003943  4.010166  0.004
C  C130  1  0.91868824  0.57325668  0.07264993  1  0.235022  0.000898  -0.007643  -0.118126  0.000386  3.916886  0.0
C  C131  1  0.08130046  0.42674614  0.92735630  1  0.235663  0.000898  -0.00773  -0.118308  0.000385  3.917  0.0
C  C132  1  0.97107816  0.20601841  0.45648457  1  -0.053113  0.001657  -0.088172  -0.107063  0.00109  3.992133  0.001
C  C133  1  0.02890855  0.79398590  0.54350933  1  -0.052752  0.001657  -0.088236  -0.107022  0.00109  3.991842  0.001
C  C134  1  0.28083798  0.20538077  0.73270045  1  0.064869  0.000127  -0.084604  -0.088657  6.7e-05  3.981448  0.0
C  C135  1  0.71916232  0.79462713  0.26729082  1  0.064702  0.000127  -0.084639  -0.088592  6.7e-05  3.981538  0.0
C  C136  1  0.76527629  0.92002373  0.50469919  1  -0.053261  -7.4e-05  -0.087808  -0.12075  -0.000102  3.9806  0.0
C  C137  1  0.23471755  0.07997343  0.49529453  1  -0.053708  -7.4e-05  -0.087766  -0.120607  -0.000102  3.980434  0.0
C  C138  1  0.56097040  0.89524033  0.48222124  1  -0.034956  1.9e-05  -0.083185  -0.11388  -1.9e-05  3.978694  0.0
C  C139  1  0.43902085  0.10475682  0.51777387  1  -0.035277  1.8e-05  -0.083152  -0.113752  -1.9e-05  3.978439  0.0
C  C140  1  0.74660336  0.55515807  0.45390588  1  -0.028755  0.001498  -0.090638  -0.163677  0.001118  3.977815  0.001
C  C141  1  0.25341564  0.44484621  0.54609730  1  -0.028727  0.001497  -0.090702  -0.163541  0.001117  3.977769  0.001
C  C142  1  0.00765277  0.31753543  0.62670652  1  -0.018646  8.3e-05  -0.073618  -0.069066  -5e-05  3.939091  0.0
C  C143  1  0.99235946  0.68246817  0.37328723  1  -0.018618  8.3e-05  -0.07361  -0.06899  -5e-05  3.938941  0.0
C  C144  1  0.56376801  0.60799980  0.37907503  1  -0.024893  0.000907  -0.091864  -0.165465  0.00071  3.991282  0.001
C  C145  1  0.43624206  0.39200233  0.62092578  1  -0.024533  0.000906  -0.091679  -0.16529  0.00071  3.99108  0.0
C  C146  1  0.85399659  0.71269285  0.79006824  1  -0.045631  -4.4e-05  -0.080302  -0.095052  -0.000229  3.944302  0.0
C  C147  1  0.14599026  0.28732420  0.20995621  1  -0.045538  -4.4e-05  -0.080367  -0.095222  -0.000228  3.944339  0.0
C  C148  1  0.54405264  0.94814226  0.39878840  1  -0.009139  0.000501  -0.085983  -0.151736  0.000399  3.971703  0.0
C  C149  1  0.45594852  0.05184846  0.60120381  1  -0.006774  0.000501  -0.085947  -0.151734  0.000399  3.971651  0.0
C  C150  1  0.39971078  0.22372714  0.77400176  1  -0.15629  0.001507  -0.084132  -0.097751  0.001201  3.984174  0.001
C  C151  1  0.60028683  0.77627283  0.22600199  1  -0.156156  0.001507  -0.084163  -0.09777  0.001201  3.984196  0.001
C  C152  1  0.91587316  0.49982012  0.13464300  1  0.40467  0.005028  -0.00362  -0.030772  0.003587  3.990544  0.004
C  C153  1  0.08412229  0.50018199  0.86536155  1  0.403943  0.00503  -0.003608  -0.030818  0.003588  3.990609  0.004
C  C154  1  0.58089734  0.66614827  0.46161976  1  -0.053977  -3.5e-05  -0.087503  -0.11026  -0.000102  3.977009  0.0
C  C155  1  0.41910552  0.33385242  0.53838469  1  -0.053983  -3.5e-05  -0.087524  -0.110259  -0.000102  3.976982  0.0
C  C156  1  0.60351082  0.45243316  0.13597619  1  0.511784  0.004621  0.000711  -0.027686  0.003051  4.003699  0.003
C  C157  1  0.39650253  0.54756895  0.86403104  1  0.511977  0.00462  0.000706  -0.027855  0.003051  4.003936  0.003
C  C158  1  0.74991991  0.97406216  0.42234661  1  -0.066191  0.000747  -0.090506  -0.16691  0.000555  4.003002  0.0
C  C159  1  0.25007736  0.02593070  0.57764734  1  -0.065587  0.000747  -0.090605  -0.167084  0.000555  4.003248  0.0
C  C160  1  0.86449018  0.02726508  0.07062160  1  0.336299  0.00096  -0.004877  -0.107041  0.000544  3.92213  0.0
C  C161  1  0.13549891  0.97272992  0.92937433  1  0.336065  0.000961  -0.004917  -0.10689  0.000544  3.921983  0.0
C  C162  1  0.00127857  0.16454562  0.54616894  1  -0.026158  0.000115  -0.088552  -0.102167  6.2e-05  4.017117  0.0
C  C163  1  0.99870885  0.83545368  0.45382515  1  -0.02678  0.000115  -0.088476  -0.102018  6.2e-05  4.016895  0.0
C  C164  1  0.37590246  0.24879848  0.93276735  1  -0.002672  0.00077  -0.081447  -0.093213  0.00037  3.956097  0.0
C  C165  1  0.62410005  0.75119149  0.06723423  1  -0.002578  0.000769  -0.081527  -0.093181  0.00037  3.95612  0.0
C  C166  1  0.58644765  0.52195201  0.19373379  1  0.226713  0.000357  -0.003519  -0.107665  -7.7e-05  3.924571  0.0
C  C167  1  0.41356739  0.47804581  0.80627459  1  0.227272  0.000358  -0.003467  -0.107457  -7.6e-05  3.924272  0.0
C  C168  1  0.71772927  0.90858300  0.88579154  1  -0.050876  0.000355  -0.094561  -0.171274  0.000287  4.01178  0.0
C  C169  1  0.28227638  0.09141842  0.11420948  1  -0.051029  0.000355  -0.094606  -0.171325  0.000287  4.0117  0.0
C  C170  1  0.67572584  0.60129599  0.74089614  1  -0.069432  -0.000246  -0.091685  -0.117595  -0.000308  3.991776  0.0
C  C171  1  0.32427453  0.39870471  0.25910487  1  -0.070242  -0.000245  -0.091668  -0.117587  -0.000308  3.991694  0.0
C  C172  1  0.89078786  0.66445103  0.87523318  1  0.011943  0.000922  -0.087045  -0.153453  0.000657  3.951797  0.001
C  C173  1  0.10919967  0.33556461  0.12478660  1  0.011024  0.000923  -0.087001  -0.153241  0.000658  3.951765  0.001
C  C174  1  0.25649970  0.23057723  0.89238850  1  -0.094085  4e-06  -0.083037  -0.098924  -3.9e-05  4.000559  0.0
C  C175  1  0.74349843  0.76941993  0.10760498  1  -0.093984  4e-06  -0.083047  -0.098929  -3.9e-05  4.000724  0.0
C  C176  1  0.54599348  0.01986913  0.19378913  1  0.298944  0.001116  -0.000522  -0.103243  0.000748  3.915801  0.001
C  C177  1  0.45401181  0.98012088  0.80620349  1  0.299832  0.001116  -0.00059  -0.103393  0.000749  3.915919  0.001
S  S178  1  0.05987092  0.16805333  0.74416842  1  2.44749  0.000378  0.473914  0.963356  0.000318  5.743976  0.0
S  S179  1  0.94012676  0.83195456  0.25582562  1  2.447423  0.000378  0.473942  0.963308  0.000318  5.744092  0.0
N  N180  1  0.83935276  0.18038134  0.08192121  1  -1.239062  0.049929  -0.344025  -0.294784  0.03439  3.502721  0.016
N  N181  1  0.16065119  0.81961647  0.91808562  1  -1.238918  0.049927  -0.343918  -0.294696  0.034392  3.502678  0.016
N  N182  1  0.81393805  0.05775904  0.97866408  1  -1.278553  0.00536  -0.229049  0.007736  0.003322  3.805119  0.003
N  N183  1  0.18606033  0.94224023  0.02133709  1  -1.278469  0.005361  -0.229093  0.00764  0.003323  3.805041  0.003
N  N184  1  0.84842491  0.41819746  0.08276742  1  -1.251953  0.05049  -0.342029  -0.294348  0.035025  3.510287  0.015
N  N185  1  0.15156196  0.58180894  0.91723762  1  -1.251702  0.050487  -0.341969  -0.294291  0.03502  3.5102  0.015
N  N186  1  0.85075044  0.53566668  0.98106613  1  -1.246905  0.004825  -0.227186  0.006097  0.002916  3.796211  0.003
N  N187  1  0.14924270  0.46433686  0.01893989  1  -1.246536  0.004826  -0.227214  0.006163  0.002917  3.795925  0.003
N  N188  1  0.66187018  0.38706220  0.19350703  1  -1.251689  0.047565  -0.336155  -0.279898  0.032149  3.503847  0.014
N  N189  1  0.33813124  0.61293133  0.80649843  1  -1.251685  0.047565  -0.336168  -0.279866  0.032148  3.503927  0.014
N  N190  1  0.63592620  0.49873863  0.28891276  1  -1.270478  0.004788  -0.226681  0.007307  0.002915  3.793369  0.002
N  N191  1  0.36409431  0.50126492  0.71109290  1  -1.270752  0.004787  -0.226722  0.007134  0.002914  3.793361  0.002
N  N192  1  0.66007473  0.15988943  0.19014241  1  -1.226402  0.04472  -0.328849  -0.271117  0.031876  3.492747  0.018
N  N193  1  0.33991475  0.84009911  0.80985571  1  -1.22575  0.044702  -0.328811  -0.270985  0.031874  3.492488  0.018
N  N194  1  0.62480290  0.04282512  0.28495171  1  -1.26709  0.003216  -0.229146  0.001366  0.002009  3.804055  0.002
N  N195  1  0.37519398  0.95716560  0.71504075  1  -1.26701  0.003216  -0.229277  0.001444  0.00201  3.803537  0.002
O  O196  1  0.95142767  0.43861173  0.35329935  1  -1.201438  0.01192  -0.319044  -0.546446  0.008541  2.144928  0.009
O  O197  1  0.04856533  0.56138474  0.64668791  1  -1.201563  0.011914  -0.319061  -0.546499  0.008537  2.145042  0.009
O  O198  1  0.88584303  0.29045833  0.27908936  1  -1.202816  0.06211  -0.324911  -0.561677  0.044001  2.330297  0.027
O  O199  1  0.11415017  0.70953955  0.72090142  1  -1.203536  0.0621  -0.324948  -0.561745  0.043999  2.330377  0.027
O  O200  1  0.00478825  0.20659551  0.80889151  1  -1.304236  0.000197  -0.310655  -0.521782  0.000106  2.179054  0.0
O  O201  1  0.99521514  0.79340666  0.19110198  1  -1.304141  0.000197  -0.310686  -0.521791  0.000106  2.178817  0.0
O  O202  1  0.04156503  0.06504581  0.72453710  1  -1.299571  0.000176  -0.31487  -0.524186  7.6e-05  2.162113  0.0
O  O203  1  0.95844145  0.93495424  0.27545235  1  -1.299666  0.000176  -0.314782  -0.524107  7.6e-05  2.162523  0.0
O  O204  1  0.61523425  0.27512457  0.00923947  1  -1.211996  0.056867  -0.318535  -0.562638  0.041607  2.364396  0.027
O  O205  1  0.38477194  0.72485823  0.99076379  1  -1.21188  0.056861  -0.318495  -0.562724  0.041603  2.364305  0.027
O  O206  1  0.63690799  0.27817103  0.85794712  1  -1.167001  0.007747  -0.342276  -0.564207  0.005408  2.110189  0.006
O  O207  1  0.36308703  0.72182756  0.14204484  1  -1.166891  0.007744  -0.34235  -0.564339  0.005406  2.110036  0.006
