# generated using pymatgen
data_CaH22C16(N2O5)2
_symmetry_space_group_name_H-M   'P 1'
_cell_length_a   9.04181757
_cell_length_b   9.04184899
_cell_length_c   11.70300000
_cell_angle_alpha   95.51883219
_cell_angle_beta   95.51885142
_cell_angle_gamma   91.35379582
_symmetry_Int_Tables_number   1
_chemical_formula_structural   CaH22C16(N2O5)2
_chemical_formula_sum   'Ca2 H44 C32 N8 O20'
_cell_volume   947.40435360
_cell_formula_units_Z   2
loop_
 _symmetry_equiv_pos_site_id
 _symmetry_equiv_pos_as_xyz
  1  'x, y, z'
loop_
 _atom_site_type_symbol
 _atom_site_label
 _atom_site_symmetry_multiplicity
 _atom_site_fract_x
 _atom_site_fract_y
 _atom_site_fract_z
 _atom_site_occupancy
 _atom_site_hle17_bader_spin_density
 _atom_site_hle17_ddec_charge
 _atom_site_hle17_ddec_spin_density
 _atom_site_hle17_ddec_sum_bond_order
 _atom_site_hle17_magmom
 _atom_site_hse06_10hf_bader_spin_density
 _atom_site_hse06_10hf_ddec_charge
 _atom_site_hse06_10hf_ddec_spin_density
 _atom_site_hse06_10hf_ddec_sum_bond_order
 _atom_site_hse06_10hf_magmom
 _atom_site_hse06_bader_spin_density
 _atom_site_hse06_ddec_charge
 _atom_site_hse06_ddec_spin_density
 _atom_site_hse06_ddec_sum_bond_order
 _atom_site_hse06_magmom
 _atom_site_pbe_bader_charge
 _atom_site_pbe_bader_spin_density
 _atom_site_pbe_cm5_charge
 _atom_site_pbe_ddec_charge
 _atom_site_pbe_ddec_spin_density
 _atom_site_pbe_ddec_sum_bond_order
 _atom_site_pbe_magmom
Ca  Ca0  1  0.57391109  0.42608652  0.74999991  1  0  1.528919  0  1.082559  0  0  1.378079  0  1.441677  0  0  1.420835  0  1.397447  0  1.662359  0  0.853723  1.346462  0  1.473011  0
Ca  Ca1  1  0.42608805  0.57391341  0.25000019  1  0  1.528946  0  1.08252  0  0  1.37812  0  1.441629  0  0  1.42085  0  1.397436  0  1.662319  0  0.853734  1.346494  0  1.47297  0
H  H2  1  0.33169415  0.96694482  0.93417771  1  0  0.382263  0  0.922257  0  0  0.347132  0  1.008564  0  0  0.360177  0  0.996538  0  0.650162  0  0.292551  0.338102  0  1.016774  0
H  H3  1  0.03305389  0.66830827  0.56582169  1  0  0.382301  0  0.922222  0  0  0.34717  0  1.008524  0  0  0.360217  0  0.996496  0  0.650168  0  0.29256  0.338141  0  1.016733  0
H  H4  1  0.66830720  0.03305510  0.06582170  1  0  0.382259  0  0.92227  0  0  0.347126  0  1.008577  0  0  0.360172  0  0.996551  0  0.65016  0  0.292549  0.338096  0  1.01679  0
H  H5  1  0.96694635  0.33169165  0.43417764  1  0  0.382296  0  0.922226  0  0  0.347168  0  1.008525  0  0  0.360215  0  0.996497  0  0.650165  0  0.292566  0.33814  0  1.016732  0
H  H6  1  0.63383234  0.53074711  0.00544187  1  0  0.423826  0  0.858936  0  0  0.393037  0  0.932028  0  0  0.403056  0  0.916948  0  0.624834  0  0.308864  0.38578  0  0.942964  0
H  H7  1  0.46925283  0.36616643  0.49455821  1  0  0.423754  0  0.859008  0  0  0.392952  0  0.932149  0  0  0.402972  0  0.917068  0  0.624833  0  0.308808  0.385693  0  0.943091  0
H  H8  1  0.36616787  0.46925170  0.99455823  1  0  0.423792  0  0.858965  0  0  0.393001  0  0.932078  0  0  0.40302  0  0.916998  0  0.624826  0  0.308849  0.385745  0  0.943014  0
H  H9  1  0.53074737  0.63383238  0.50544189  1  0  0.423834  0  0.858937  0  0  0.393045  0  0.932021  0  0  0.403064  0  0.916941  0  0.624832  0  0.308852  0.385786  0  0.942962  0
H  H10  1  0.65434727  0.35853996  0.00584530  1  0  0.423232  0  0.875727  0  0  0.388798  0  0.945694  0  0  0.399857  0  0.929423  0  0.641733  0  0.297283  0.380885  0  0.957294  0
H  H11  1  0.64146059  0.34565166  0.49415569  1  0  0.423235  0  0.875729  0  0  0.388799  0  0.9457  0  0  0.399859  0  0.929428  0  0.641725  0  0.297275  0.380887  0  0.957299  0
H  H12  1  0.34565404  0.64145885  0.99415488  1  0  0.423194  0  0.875755  0  0  0.388762  0  0.945721  0  0  0.399821  0  0.92945  0  0.641741  0  0.297259  0.380849  0  0.957322  0
H  H13  1  0.35853961  0.65434715  0.50584441  1  0  0.42322  0  0.875752  0  0  0.388784  0  0.945722  0  0  0.399843  0  0.92945  0  0.641723  0  0.297273  0.380872  0  0.95732  0
H  H14  1  0.66084541  0.79556702  0.68831228  1  0  0.318978  0  0.916865  0  0  0.295822  0  0.983515  0  0  0.304695  0  0.976304  0  0.545874  0  0.321401  0.289776  0  0.988226  0
H  H15  1  0.20443267  0.33915581  0.81168711  1  0  0.318923  0  0.916905  0  0  0.295765  0  0.983564  0  0  0.304637  0  0.976354  0  0.545877  0  0.32138  0.289719  0  0.988274  0
H  H16  1  0.33915483  0.20443290  0.31168876  1  0  0.318979  0  0.916853  0  0  0.295827  0  0.983502  0  0  0.304699  0  0.976292  0  0.545873  0  0.321407  0.28978  0  0.988214  0
H  H17  1  0.79556758  0.66084411  0.18831222  1  0  0.318906  0  0.916926  0  0  0.295761  0  0.983574  0  0  0.304637  0  0.97636  0  0.545868  0  0.32138  0.289715  0  0.988285  0
H  H18  1  0.86975383  0.98832897  0.62336610  1  0  0.096543  0  0.943685  0  0  0.111318  0  1.004993  0  0  0.112623  0  1.005058  0  0.061812  0  0.101222  0.110068  0  1.005614  0
H  H19  1  0.01167312  0.13024820  0.87663181  1  0  0.096477  0  0.943788  0  0  0.111286  0  1.005037  0  0  0.112588  0  1.005103  0  0.062179  0  0.101206  0.110035  0  1.00566  0
H  H20  1  0.13024527  0.01166984  0.37663391  1  0  0.096494  0  0.943744  0  0  0.111293  0  1.005017  0  0  0.112596  0  1.005083  0  0.061819  0  0.101217  0.110043  0  1.005639  0
H  H21  1  0.98832823  0.86975173  0.12336760  1  0  0.096555  0  0.943713  0  0  0.111323  0  1.004992  0  0  0.112627  0  1.005057  0  0.062177  0  0.101221  0.110072  0  1.005614  0
H  H22  1  0.80226554  0.16690419  0.60112292  1  0  0.107921  0  0.933422  0  0  0.124101  0  0.988816  0  0  0.125652  0  0.989118  0  0.065585  0  0.108492  0.123102  0  0.988572  0
H  H23  1  0.83309440  0.19773361  0.89887537  1  0  0.107967  0  0.933439  0  0  0.124123  0  0.988864  0  0  0.125673  0  0.989166  0  0.065674  0  0.108507  0.123125  0  0.988618  0
H  H24  1  0.19773466  0.83309462  0.39887632  1  0  0.107954  0  0.933441  0  0  0.124122  0  0.988858  0  0  0.125673  0  0.989159  0  0.065676  0  0.10851  0.123124  0  0.988612  0
H  H25  1  0.16690584  0.80226631  0.10112481  1  0  0.107935  0  0.933436  0  0  0.124088  0  0.988851  0  0  0.125639  0  0.989153  0  0.065677  0  0.108486  0.12309  0  0.988605  0
H  H26  1  0.65385942  0.87669115  0.47891290  1  0  0.067257  0  0.942158  0  0  0.085358  0  1.004102  0  0  0.086447  0  1.004059  0  0.036337  0  0.091521  0.084393  0  1.004583  0
H  H27  1  0.12330907  0.34613860  0.02108714  1  0  0.067278  0  0.942134  0  0  0.085373  0  1.004109  0  0  0.086464  0  1.004062  0  0.03634  0  0.09153  0.084408  0  1.004591  0
H  H28  1  0.34614079  0.12330766  0.52108720  1  0  0.067267  0  0.942142  0  0  0.085363  0  1.004098  0  0  0.08645  0  1.004055  0  0.036349  0  0.09153  0.084397  0  1.004579  0
H  H29  1  0.87669225  0.65386021  0.97891304  1  0  0.067279  0  0.942148  0  0  0.085369  0  1.004127  0  0  0.086459  0  1.004081  0  0.036341  0  0.091523  0.084404  0  1.004608  0
H  H30  1  0.61590236  0.05978112  0.44764603  1  0  0.061393  0  0.952193  0  0  0.078903  0  1.015957  0  0  0.079395  0  1.017182  0  0.034657  0  0.086881  0.078072  0  1.01598  0
H  H31  1  0.94021826  0.38409532  0.05235307  1  0  0.061253  0  0.952304  0  0  0.078823  0  1.016016  0  0  0.079316  0  1.01724  0  0.034734  0  0.086842  0.078002  0  1.016029  0
H  H32  1  0.38409784  0.94021769  0.55235407  1  0  0.061336  0  0.952227  0  0  0.078879  0  1.015955  0  0  0.079372  0  1.017179  0  0.034706  0  0.086865  0.078049  0  1.015978  0
H  H33  1  0.05978306  0.61590349  0.94764797  1  0  0.061263  0  0.952287  0  0  0.078832  0  1.015998  0  0  0.079325  0  1.017222  0  0.034718  0  0.086827  0.07801  0  1.016011  0
H  H34  1  0.87602614  0.08763888  0.38630990  1  0  0.092617  0  0.974943  0  0  0.113348  0  1.038345  0  0  0.115004  0  1.037984  0  0.022803  0  0.081154  0.111997  0  1.038938  0
H  H35  1  0.91235996  0.12397358  0.11368931  1  0  0.092607  0  0.974923  0  0  0.113333  0  1.038342  0  0  0.114991  0  1.03798  0  0.022838  0  0.08115  0.111983  0  1.038936  0
H  H36  1  0.12397299  0.91236105  0.61368934  1  0  0.092612  0  0.9749  0  0  0.113336  0  1.038322  0  0  0.114995  0  1.037959  0  0.022846  0  0.081147  0.111986  0  1.038915  0
H  H37  1  0.08764025  0.87602523  0.88630994  1  0  0.092591  0  0.974961  0  0  0.113319  0  1.03838  0  0  0.11497  0  1.038024  0  0.02283  0  0.081152  0.111969  0  1.038973  0
H  H38  1  0.77700699  0.93511151  0.30596819  1  0  0.080518  0  0.989057  0  0  0.099357  0  1.057898  0  0  0.099573  0  1.059556  0  -0.019452  0  0.077454  0.099079  0  1.056879  0
H  H39  1  0.06488888  0.22299214  0.19403024  1  0  0.080515  0  0.98908  0  0  0.099352  0  1.057925  0  0  0.099568  0  1.059583  0  -0.019441  0  0.077448  0.09908  0  1.056901  0
H  H40  1  0.22299214  0.06488841  0.69403020  1  0  0.080488  0  0.98907  0  0  0.099323  0  1.057925  0  0  0.099541  0  1.059582  0  -0.019425  0  0.077444  0.09905  0  1.056901  0
H  H41  1  0.93511132  0.77700667  0.80596986  1  0  0.080514  0  0.989073  0  0  0.099353  0  1.057915  0  0  0.099568  0  1.059573  0  -0.019443  0  0.077451  0.09908  0  1.056892  0
H  H42  1  0.91110895  0.90288132  0.42048376  1  0  0.095  0  0.968669  0  0  0.115812  0  1.032309  0  0  0.117071  0  1.03267  0  0.016474  0  0.083135  0.11471  0  1.032539  0
H  H43  1  0.09711948  0.08889069  0.07951644  1  0  0.094981  0  0.968678  0  0  0.115798  0  1.032316  0  0  0.117055  0  1.032679  0  0.016464  0  0.083131  0.114696  0  1.032546  0
H  H44  1  0.08889130  0.09711861  0.57951557  1  0  0.094969  0  0.96869  0  0  0.11578  0  1.032331  0  0  0.117039  0  1.032693  0  0.016446  0  0.083126  0.114678  0  1.032562  0
H  H45  1  0.90288188  0.91110924  0.92048383  1  0  0.094994  0  0.968674  0  0  0.115809  0  1.032313  0  0  0.117065  0  1.032675  0  0.016487  0  0.083139  0.114707  0  1.032542  0
C  C46  1  0.52327236  0.91666900  0.79922974  1  0  0.023037  0  3.692944  0  0  0.004315  0  3.955737  0  0  0.005199  0  3.972226  0  0.382443  0  0.09529  0.004267  0  3.944351  0
C  C47  1  0.08333079  0.47672921  0.70076968  1  0  0.023023  0  3.692972  0  0  0.004274  0  3.955767  0  0  0.00516  0  3.972261  0  0.382447  0  0.095294  0.004223  0  3.944386  0
C  C48  1  0.47672569  0.08333203  0.20077036  1  0  0.023029  0  3.693038  0  0  0.004293  0  3.955816  0  0  0.005176  0  3.972306  0  0.382438  0  0.095292  0.004239  0  3.944436  0
C  C49  1  0.91666842  0.52327294  0.29923059  1  0  0.023027  0  3.693015  0  0  0.004291  0  3.955798  0  0  0.005183  0  3.97229  0  0.382426  0  0.095298  0.004242  0  3.944414  0
C  C50  1  0.50128498  0.06943984  0.81154845  1  0  -0.024464  0  3.820659  0  0  -0.030906  0  4.089192  0  0  -0.034498  0  4.109829  0  0.461347  0  0.079358  -0.028611  0  4.075437  0
C  C51  1  0.93055697  0.49871369  0.68845054  1  0  -0.024466  0  3.820628  0  0  -0.030847  0  4.089138  0  0  -0.034439  0  4.109778  0  0.461217  0  0.07935  -0.028554  0  4.075385  0
C  C52  1  0.49871304  0.93056009  0.18844986  1  0  -0.024435  0  3.820737  0  0  -0.030815  0  4.089167  0  0  -0.034409  0  4.109807  0  0.461343  0  0.079409  -0.028518  0  4.075412  0
C  C53  1  0.06944219  0.50128735  0.31155136  1  0  -0.024492  0  3.820682  0  0  -0.030873  0  4.089184  0  0  -0.034466  0  4.10982  0  0.461315  0  0.079362  -0.028581  0  4.07543  0
C  C54  1  0.66349379  0.03328857  0.68716130  1  0  0.423048  0  3.645783  0  0  0.393043  0  3.922432  0  0  0.408574  0  3.935222  0  1.013568  0  0.247437  0.383084  0  3.913356  0
C  C55  1  0.96671168  0.33650656  0.81283806  1  0  0.423044  0  3.645848  0  0  0.393021  0  3.922505  0  0  0.408565  0  3.935278  0  1.013286  0  0.247449  0.383059  0  3.913433  0
C  C56  1  0.33650642  0.96671025  0.31283880  1  0  0.42307  0  3.645752  0  0  0.393037  0  3.922446  0  0  0.408588  0  3.935207  0  1.013572  0  0.247454  0.383076  0  3.913374  0
C  C57  1  0.03328742  0.66349225  0.18716196  1  0  0.423104  0  3.645734  0  0  0.393072  0  3.922403  0  0  0.408625  0  3.935163  0  1.013301  0  0.24746  0.383109  0  3.913332  0
C  C58  1  0.46628900  0.79021181  0.85540795  1  0  0.65458  0  3.931272  0  0  0.600603  0  4.234603  0  0  0.635288  0  4.223963  0  1.615337  0  0.226122  0.576918  0  4.241179  0
C  C59  1  0.20978622  0.53371098  0.64459122  1  0  0.654551  0  3.93137  0  0  0.600587  0  4.234679  0  0  0.635261  0  4.224055  0  1.615309  0  0.226102  0.576902  0  4.241255  0
C  C60  1  0.53371013  0.20978811  0.14459215  1  0  0.654583  0  3.931239  0  0  0.600585  0  4.234599  0  0  0.635273  0  4.223952  0  1.615342  0  0.226101  0.576902  0  4.241174  0
C  C61  1  0.79021295  0.46629005  0.35540897  1  0  0.654571  0  3.931281  0  0  0.600631  0  4.234562  0  0  0.635298  0  4.223944  0  1.615341  0  0.226125  0.576946  0  4.241138  0
C  C62  1  0.39535508  0.15483079  0.87563455  1  0  0.64902  0  3.860603  0  0  0.590306  0  4.171467  0  0  0.625536  0  4.159921  0  1.524879  0  0.236028  0.566458  0  4.178929  0
C  C63  1  0.84516545  0.60464277  0.62436518  1  0  0.64906  0  3.860726  0  0  0.590268  0  4.171691  0  0  0.625497  0  4.160147  0  1.52466  0  0.236037  0.56642  0  4.179152  0
C  C64  1  0.60464405  0.84516913  0.12436555  1  0  0.648956  0  3.860691  0  0  0.59026  0  4.171497  0  0  0.625489  0  4.159953  0  1.524876  0  0.236006  0.566413  0  4.178957  0
C  C65  1  0.15483368  0.39535716  0.37563492  1  0  0.649026  0  3.860684  0  0  0.590239  0  4.171653  0  0  0.625468  0  4.160107  0  1.524845  0  0.236043  0.566391  0  4.179113  0
C  C66  1  0.76938454  0.04911628  0.59922266  1  0  -0.221944  0  3.68001  0  0  -0.259586  0  3.926865  0  0  -0.26268  0  3.937184  0  -0.009985  0  -0.15091  -0.257702  0  3.920194  0
C  C67  1  0.95088224  0.23061417  0.90077560  1  0  -0.22192  0  3.68011  0  0  -0.259537  0  3.926912  0  0  -0.262631  0  3.937222  0  -0.010008  0  -0.150909  -0.257652  0  3.920244  0
C  C68  1  0.23061566  0.95088253  0.40077829  1  0  -0.221966  0  3.680104  0  0  -0.259603  0  3.926947  0  0  -0.262702  0  3.937258  0  -0.009938  0  -0.150954  -0.25772  0  3.920278  0
C  C69  1  0.04911693  0.76938687  0.09922459  1  0  -0.22198  0  3.680074  0  0  -0.259523  0  3.926814  0  0  -0.262624  0  3.937127  0  -0.010008  0  -0.150882  -0.257638  0  3.920145  0
C  C70  1  0.70511419  0.98762191  0.47658303  1  0  -0.04149  0  3.663206  0  0  -0.077319  0  3.922184  0  0  -0.077664  0  3.936191  0  0.016367  0  -0.166472  -0.076748  0  3.912727  0
C  C71  1  0.01237938  0.29488335  0.02341535  1  0  -0.041378  0  3.663195  0  0  -0.077274  0  3.922219  0  0  -0.077618  0  3.936219  0  0.016167  0  -0.166419  -0.07671  0  3.912764  0
C  C72  1  0.29488383  0.01237801  0.52341614  1  0  -0.041456  0  3.66327  0  0  -0.077309  0  3.922269  0  0  -0.077655  0  3.936276  0  0.016159  0  -0.166442  -0.076738  0  3.912813  0
C  C73  1  0.98762087  0.70511658  0.97658483  1  0  -0.041404  0  3.663195  0  0  -0.077299  0  3.922203  0  0  -0.077641  0  3.936201  0  0.016183  0  -0.166416  -0.076734  0  3.912747  0
C  C74  1  0.82433240  0.97818776  0.39288706  1  0  -0.282701  0  3.701532  0  0  -0.35649  0  3.946971  0  0  -0.35854  0  3.957648  0  -0.03034  0  -0.253721  -0.354645  0  3.939842  0
C  C75  1  0.02181257  0.17566797  0.10711231  1  0  -0.282684  0  3.70153  0  0  -0.356468  0  3.946982  0  0  -0.358522  0  3.95766  0  -0.030336  0  -0.253728  -0.354629  0  3.939853  0
C  C76  1  0.17566677  0.02181328  0.60711142  1  0  -0.282626  0  3.701542  0  0  -0.356399  0  3.946975  0  0  -0.358453  0  3.957652  0  -0.03035  0  -0.2537  -0.354558  0  3.939843  0
C  C77  1  0.97818768  0.82433195  0.89288702  1  0  -0.282652  0  3.701507  0  0  -0.356451  0  3.946981  0  0  -0.3585  0  3.957662  0  -0.030376  0  -0.25373  -0.354612  0  3.939852  0
N  N78  1  0.58988768  0.14008035  0.74249221  1  0  -0.473668  0  3.050051  0  0  -0.430858  0  3.322743  0  0  -0.447968  0  3.339324  0  -1.18725  0  -0.362824  -0.419396  0  3.311681  0
N  N79  1  0.85991852  0.41011316  0.75750709  1  0  -0.473678  0  3.050064  0  0  -0.430881  0  3.322759  0  0  -0.447995  0  3.339337  0  -1.187297  0  -0.362853  -0.419417  0  3.311698  0
N  N80  1  0.41011260  0.85992069  0.25750720  1  0  -0.473661  0  3.050044  0  0  -0.430867  0  3.322728  0  0  -0.447977  0  3.3393  0  -1.187253  0  -0.362849  -0.419403  0  3.311667  0
N  N81  1  0.14008173  0.58988676  0.24249310  1  0  -0.47371  0  3.050046  0  0  -0.430918  0  3.322763  0  0  -0.448031  0  3.339336  0  -1.187237  0  -0.362848  -0.419453  0  3.311701  0
N  N82  1  0.62535198  0.89810754  0.72048462  1  0  -0.331539  0  3.374566  0  0  -0.271462  0  3.604862  0  0  -0.287933  0  3.618145  0  -1.278422  0  -0.360239  -0.260102  0  3.595128  0
N  N83  1  0.10189269  0.37465005  0.77951572  1  0  -0.331445  0  3.37463  0  0  -0.271366  0  3.604942  0  0  -0.287841  0  3.618225  0  -1.278402  0  -0.360203  -0.260005  0  3.595208  0
N  N84  1  0.37464827  0.10189238  0.27951557  1  0  -0.331517  0  3.374604  0  0  -0.271437  0  3.604912  0  0  -0.287914  0  3.618191  0  -1.278427  0  -0.360227  -0.260074  0  3.595181  0
N  N85  1  0.89810756  0.62534987  0.22048531  1  0  -0.331424  0  3.37463  0  0  -0.271382  0  3.604986  0  0  -0.287862  0  3.618262  0  -1.278422  0  -0.360245  -0.260022  0  3.595254  0
O  O86  1  0.52011749  0.66504756  0.83532231  1  0  -0.647578  0  1.994065  0  0  -0.589533  0  2.239576  0  0  -0.614217  0  2.228488  0  -1.200615  0  -0.350167  -0.57188  0  2.246302  0
O  O87  1  0.33495143  0.47988319  0.66467783  1  0  -0.64756  0  1.994105  0  0  -0.589519  0  2.2396  0  0  -0.614197  0  2.228516  0  -1.200846  0  -0.350146  -0.571865  0  2.246326  0
O  O88  1  0.47988272  0.33495125  0.16467864  1  0  -0.647566  0  1.994061  0  0  -0.58952  0  2.239575  0  0  -0.614199  0  2.228485  0  -1.200855  0  -0.350147  -0.571866  0  2.246301  0
O  O89  1  0.66504885  0.52011785  0.33532329  1  0  -0.647571  0  1.994081  0  0  -0.589535  0  2.239562  0  0  -0.614213  0  2.228492  0  -1.200599  0  -0.350149  -0.571882  0  2.24629  0
O  O90  1  0.36518546  0.81752816  0.92501882  1  0  -0.616279  0  2.027556  0  0  -0.550976  0  2.243731  0  0  -0.577517  0  2.234697  0  -1.171607  0  -0.303596  -0.532678  0  2.249198  0
O  O91  1  0.18246965  0.63481515  0.57498208  1  0  -0.616263  0  2.027594  0  0  -0.550952  0  2.243753  0  0  -0.577488  0  2.234723  0  -1.171583  0  -0.303589  -0.532656  0  2.249223  0
O  O92  1  0.63481479  0.18247176  0.07498136  1  0  -0.616282  0  2.027516  0  0  -0.55097  0  2.243696  0  0  -0.577511  0  2.23466  0  -1.171595  0  -0.303593  -0.532671  0  2.249164  0
O  O93  1  0.81752944  0.36518366  0.42501793  1  0  -0.616275  0  2.027536  0  0  -0.550982  0  2.243691  0  0  -0.577515  0  2.234663  0  -1.171578  0  -0.303605  -0.53268  0  2.249151  0
O  O94  1  0.30894860  0.08524754  0.93815051  1  0  -0.534934  0  2.099912  0  0  -0.482897  0  2.33055  0  0  -0.506106  0  2.319219  0  -1.18379  0  -0.31113  -0.466995  0  2.337875  0
O  O95  1  0.91474889  0.69104984  0.56185013  1  0  -0.535004  0  2.099897  0  0  -0.482967  0  2.330613  0  0  -0.506179  0  2.319285  0  -1.183746  0  -0.311162  -0.467063  0  2.337935  0
O  O96  1  0.69105164  0.91475238  0.06184967  1  0  -0.534931  0  2.099897  0  0  -0.482905  0  2.330522  0  0  -0.506114  0  2.319193  0  -1.183782  0  -0.311147  -0.467002  0  2.337847  0
O  O97  1  0.08525024  0.30895008  0.43814912  1  0  -0.534991  0  2.099921  0  0  -0.482951  0  2.330624  0  0  -0.506164  0  2.319297  0  -1.183731  0  -0.31117  -0.467047  0  2.337946  0
O  O98  1  0.38440136  0.29161041  0.86593497  1  0  -0.625917  0  2.033104  0  0  -0.565988  0  2.269353  0  0  -0.588001  0  2.256199  0  -1.187176  0  -0.295801  -0.550843  0  2.277801  0
O  O99  1  0.70838408  0.61559443  0.63406191  1  0  -0.625912  0  2.033202  0  0  -0.565977  0  2.269535  0  0  -0.587988  0  2.256378  0  -1.186933  0  -0.2958  -0.550831  0  2.277984  0
O  O100  1  0.61559889  0.70838951  0.13406521  1  0  -0.62591  0  2.033103  0  0  -0.566013  0  2.269364  0  0  -0.588021  0  2.256209  0  -1.187169  0  -0.295803  -0.550866  0  2.277812  0
O  O101  1  0.29161506  0.38440549  0.36593733  1  0  -0.625904  0  2.033193  0  0  -0.565954  0  2.269479  0  0  -0.587962  0  2.256323  0  -1.187227  0  -0.295817  -0.550807  0  2.277928  0
O  O102  1  0.66629633  0.44329278  0.95967851  1  0  -0.863179  0  1.844049  0  0  -0.814266  0  2.042857  0  0  -0.833431  0  2.011824  0  -1.276625  0  -0.606194  -0.800318  0  2.065216  0
O  O103  1  0.55670762  0.33370166  0.54032240  1  0  -0.86312  0  1.844088  0  0  -0.814196  0  2.042908  0  0  -0.833361  0  2.011875  0  -1.276641  0  -0.606128  -0.800244  0  2.065261  0
O  O104  1  0.33370388  0.55670603  0.04032159  1  0  -0.863105  0  1.844066  0  0  -0.814199  0  2.042894  0  0  -0.833361  0  2.011863  0  -1.276654  0  -0.606159  -0.800248  0  2.065249  0
O  O105  1  0.44329259  0.66629715  0.45967856  1  0  -0.863182  0  1.844073  0  0  -0.814275  0  2.04288  0  0  -0.83344  0  2.011852  0  -1.276649  0  -0.606167  -0.800322  0  2.065235  0
