# generated using pymatgen
data_ZnH8C9SNO4
_symmetry_space_group_name_H-M   'P 1'
_cell_length_a   19.01545279
_cell_length_b   20.66157603
_cell_length_c   20.66156375
_cell_angle_alpha   89.99999899
_cell_angle_beta   89.99998747
_cell_angle_gamma   89.99994273
_symmetry_Int_Tables_number   1
_chemical_formula_structural   ZnH8C9SNO4
_chemical_formula_sum   'Zn16 H128 C144 S16 N16 O64'
_cell_volume   8117.70574177
_cell_formula_units_Z   16
loop_
 _symmetry_equiv_pos_site_id
 _symmetry_equiv_pos_as_xyz
  1  'x, y, z'
loop_
 _atom_site_type_symbol
 _atom_site_label
 _atom_site_symmetry_multiplicity
 _atom_site_fract_x
 _atom_site_fract_y
 _atom_site_fract_z
 _atom_site_occupancy
 _atom_site_pbe_bader_charge
 _atom_site_pbe_bader_spin_density
 _atom_site_pbe_cm5_charge
 _atom_site_pbe_ddec_charge
 _atom_site_pbe_ddec_spin_density
 _atom_site_pbe_ddec_sum_bond_order
 _atom_site_pbe_magmom
Zn  Zn0  1  0.18182142  0.26417482  0.27117984  1  1.294162  0  0.677768  0.832045  0  2.350528  0
Zn  Zn1  1  0.18182112  0.73582471  0.72881993  1  1.29406  0  0.677723  0.831987  0  2.350584  0
Zn  Zn2  1  0.81817908  0.27117980  0.73582515  1  1.294183  0  0.677756  0.83201  0  2.350581  0
Zn  Zn3  1  0.81817888  0.72882011  0.26417449  1  1.294166  0  0.677746  0.83197  0  2.350581  0
Zn  Zn4  1  0.31817838  0.23582503  0.77117974  1  1.29423  0  0.677747  0.832003  0  2.350579  0
Zn  Zn5  1  0.31817868  0.76417486  0.22882001  1  1.294178  0  0.677754  0.832011  0  2.35055  0
Zn  Zn6  1  0.68182111  0.22882056  0.23582525  1  1.294222  0  0.677763  0.832002  0  2.35058  0
Zn  Zn7  1  0.68182128  0.77117996  0.76417538  1  1.294157  0  0.677764  0.832019  0  2.350506  0
Zn  Zn8  1  0.32698548  0.23538944  0.24619333  1  1.28295  0  0.675288  0.83071  0  2.338181  0
Zn  Zn9  1  0.32698567  0.76460996  0.75380592  1  1.28297  0  0.675295  0.830685  0  2.338201  0
Zn  Zn10  1  0.67301452  0.24619387  0.76461001  1  1.282959  0  0.67528  0.830686  0  2.338198  0
Zn  Zn11  1  0.67301430  0.75380714  0.23538917  1  1.282959  0  0.675285  0.830678  0  2.338193  0
Zn  Zn12  1  0.17301432  0.26461042  0.74619326  1  1.282955  0  0.675295  0.83072  0  2.338196  0
Zn  Zn13  1  0.17301465  0.73538912  0.25380652  1  1.282948  0  0.675269  0.830656  0  2.338265  0
Zn  Zn14  1  0.82698566  0.25380697  0.26461057  1  1.282965  0  0.675273  0.830674  0  2.338176  0
Zn  Zn15  1  0.82698534  0.74619342  0.73539003  1  1.282943  0  0.675256  0.830635  0  2.338283  0
H  H16  1  0.10403905  0.93688976  0.31167145  1  0.080613  0  0.106248  0.119628  0  0.996739  0
H  H17  1  0.10403896  0.06311033  0.68833027  1  0.080632  0  0.106245  0.119609  0  0.99675  0
H  H18  1  0.89596008  0.31167087  0.06311129  1  0.080611  0  0.106255  0.119616  0  0.996744  0
H  H19  1  0.89596083  0.68832848  0.93689026  1  0.080692  0  0.106265  0.119669  0  0.996697  0
H  H20  1  0.39595862  0.56311174  0.81167037  1  0.080783  0  0.106246  0.119619  0  0.99676  0
H  H21  1  0.39596034  0.43688904  0.18833081  1  0.080631  0  0.106246  0.119618  0  0.99674  0
H  H22  1  0.60403962  0.18832853  0.56311027  1  0.080627  0  0.106259  0.119654  0  0.996743  0
H  H23  1  0.60404035  0.81167013  0.43688797  1  0.080614  0  0.106236  0.119592  0  0.996753  0
H  H24  1  0.05902652  0.31181452  0.36051965  1  0.068883  0  0.115095  0.103499  0  0.956094  0
H  H25  1  0.05902681  0.68818464  0.63948063  1  0.0688  0  0.115072  0.103476  0  0.956103  0
H  H26  1  0.94097338  0.36051949  0.68818498  1  0.068874  0  0.11508  0.103488  0  0.956097  0
H  H27  1  0.94097327  0.63948031  0.31181463  1  0.068792  0  0.115086  0.103477  0  0.956098  0
H  H28  1  0.44097326  0.18818437  0.86052001  1  0.068991  0  0.115073  0.103485  0  0.956095  0
H  H29  1  0.44097353  0.81181492  0.13948068  1  0.068797  0  0.115092  0.103488  0  0.956095  0
H  H30  1  0.55902682  0.13948087  0.18818512  1  0.068803  0  0.115088  0.103509  0  0.956083  0
H  H31  1  0.55902636  0.86051928  0.81181506  1  0.068877  0  0.115088  0.103495  0  0.9561  0
H  H32  1  0.07018538  0.22699910  0.36633044  1  0.08566  0  0.115822  0.106726  0  0.961752  0
H  H33  1  0.07018558  0.77300005  0.63366984  1  0.085671  0  0.115812  0.10672  0  0.961783  0
H  H34  1  0.92981454  0.36633028  0.77299996  1  0.085672  0  0.115794  0.106714  0  0.961754  0
H  H35  1  0.92981446  0.63367001  0.22699917  1  0.085653  0  0.115831  0.106734  0  0.961785  0
H  H36  1  0.42981439  0.27299978  0.86633031  1  0.085679  0  0.115815  0.106747  0  0.961765  0
H  H37  1  0.42981476  0.72699952  0.13366989  1  0.085669  0  0.115793  0.106712  0  0.961773  0
H  H38  1  0.57018564  0.13366960  0.27300057  1  0.085662  0  0.11582  0.106722  0  0.961749  0
H  H39  1  0.57018571  0.86632958  0.72699960  1  0.085673  0  0.115813  0.106733  0  0.961781  0
H  H40  1  0.06571486  0.16316951  0.26980096  1  0.08598  0  0.109122  0.095936  0  0.994775  0
H  H41  1  0.06571549  0.83683061  0.73019883  1  0.085963  0  0.109109  0.095928  0  0.994783  0
H  H42  1  0.93428464  0.26980134  0.83683056  1  0.085964  0  0.10911  0.095935  0  0.994781  0
H  H43  1  0.93428499  0.73019895  0.16316954  1  0.085975  0  0.109107  0.095922  0  0.994826  0
H  H44  1  0.43428494  0.33683034  0.76980083  1  0.08598  0  0.109123  0.09593  0  0.994778  0
H  H45  1  0.43428536  0.66316944  0.23019985  1  0.085992  0  0.109113  0.095938  0  0.994779  0
H  H46  1  0.56571448  0.23019950  0.33683069  1  0.085978  0  0.109098  0.095925  0  0.994845  0
H  H47  1  0.56571572  0.76980113  0.66316949  1  0.085971  0  0.109089  0.095895  0  0.994817  0
H  H48  1  0.07442250  0.19959848  0.19298151  1  0.077998  0  0.110024  0.102776  0  1.00207  0
H  H49  1  0.07442210  0.80040163  0.80701828  1  0.078007  0  0.110029  0.102786  0  1.002067  0
H  H50  1  0.92557808  0.19298146  0.80040156  1  0.07801  0  0.110038  0.102811  0  1.002036  0
H  H51  1  0.92557729  0.80701884  0.19959853  1  0.077987  0  0.110019  0.10279  0  1.002062  0
H  H52  1  0.42557784  0.30040137  0.69298138  1  0.077997  0  0.110018  0.10276  0  1.002072  0
H  H53  1  0.42557820  0.69959842  0.30701882  1  0.077997  0  0.11001  0.102743  0  1.00207  0
H  H54  1  0.57442209  0.30701842  0.30040121  1  0.078001  0  0.11  0.102763  0  1.002142  0
H  H55  1  0.57442236  0.69298172  0.69959848  1  0.078005  0  0.110013  0.102711  0  1.002111  0
H  H56  1  0.06147612  0.31618011  0.18524008  1  0.04107  0  0.114621  0.101395  0  0.959635  0
H  H57  1  0.06147638  0.68381953  0.81476020  1  0.041065  0  0.114611  0.101392  0  0.959643  0
H  H58  1  0.93852388  0.18524003  0.68381987  1  0.041068  0  0.114621  0.101394  0  0.959635  0
H  H59  1  0.93852411  0.81475929  0.31618071  1  0.04109  0  0.114609  0.101379  0  0.959678  0
H  H60  1  0.43852422  0.18381926  0.68524044  1  0.041089  0  0.114592  0.101353  0  0.959651  0
H  H61  1  0.43852339  0.81618052  0.31475976  1  0.041072  0  0.114615  0.101386  0  0.959645  0
H  H62  1  0.56147579  0.31475985  0.18382000  1  0.041076  0  0.114622  0.101399  0  0.959638  0
H  H63  1  0.56147657  0.68523981  0.81618114  1  0.041069  0  0.114612  0.101392  0  0.959644  0
H  H64  1  0.06680123  0.36469915  0.25555470  1  0.070577  0  0.11387  0.103584  0  0.964311  0
H  H65  1  0.06680103  0.63530048  0.74444558  1  0.070579  0  0.1139  0.103625  0  0.964275  0
H  H66  1  0.93319923  0.25555413  0.63530080  1  0.07058  0  0.113877  0.103584  0  0.964328  0
H  H67  1  0.93319900  0.74444568  0.36469930  1  0.070588  0  0.113879  0.103587  0  0.964317  0
H  H68  1  0.43319910  0.13530070  0.75555458  1  0.070579  0  0.113872  0.103586  0  0.964306  0
H  H69  1  0.43319876  0.86469908  0.24444563  1  0.070582  0  0.11388  0.103589  0  0.964318  0
H  H70  1  0.56680045  0.24444576  0.13530093  1  0.070603  0  0.113891  0.103609  0  0.964313  0
H  H71  1  0.56680114  0.75555439  0.86469973  1  0.070573  0  0.113899  0.10362  0  0.964271  0
H  H72  1  0.10868732  0.06552883  0.32095585  1  0.099018  0  0.105935  0.118746  0  1.001796  0
H  H73  1  0.10868734  0.93447125  0.67904345  1  0.099013  0  0.10593  0.118752  0  1.001817  0
H  H74  1  0.89131218  0.32095719  0.93447225  1  0.099051  0  0.105952  0.118758  0  1.001808  0
H  H75  1  0.89131261  0.67904363  0.06552931  1  0.099009  0  0.105948  0.118782  0  1.001779  0
H  H76  1  0.39131194  0.43447296  0.82095573  1  0.099072  0  0.105952  0.118762  0  1.001832  0
H  H77  1  0.39131194  0.56552831  0.17904545  1  0.099049  0  0.105937  0.118749  0  1.00183  0
H  H78  1  0.60868796  0.17904366  0.43447141  1  0.099038  0  0.105937  0.118741  0  1.001787  0
H  H79  1  0.60868813  0.82095645  0.56552731  1  0.099056  0  0.105946  0.118756  0  1.001847  0
H  H80  1  0.40158108  0.27989472  0.44794621  1  0.090923  0  0.10669  0.12049  0  0.998977  0
H  H81  1  0.40158451  0.72010461  0.55205207  1  0.090907  0  0.106703  0.120509  0  0.998852  0
H  H82  1  0.59841929  0.44794570  0.72010564  1  0.090937  0  0.106654  0.120414  0  0.998946  0
H  H83  1  0.59841666  0.55205441  0.27989453  1  0.09089  0  0.106678  0.120446  0  0.998868  0
H  H84  1  0.09841815  0.22010610  0.94794663  1  0.090934  0  0.106644  0.120409  0  0.998922  0
H  H85  1  0.09841742  0.77989399  0.05205219  1  0.090939  0  0.106699  0.120466  0  0.998896  0
H  H86  1  0.90158300  0.05205321  0.22010570  1  0.090909  0  0.106642  0.120396  0  0.998876  0
H  H87  1  0.90158140  0.94794614  0.77989440  1  0.090931  0  0.106651  0.120411  0  0.998951  0
H  H88  1  0.39725827  0.28029595  0.57676463  1  0.063913  0  0.105144  0.117019  0  1.003412  0
H  H89  1  0.39725963  0.71970241  0.42323316  1  0.063836  0  0.105159  0.117057  0  1.003298  0
H  H90  1  0.60274097  0.57676453  0.71970441  1  0.063883  0  0.105181  0.117065  0  1.003354  0
H  H91  1  0.60274111  0.42323510  0.28029624  1  0.06389  0  0.10518  0.117049  0  1.003359  0
H  H92  1  0.10274158  0.21970342  0.07676572  1  0.063892  0  0.105134  0.117011  0  1.003435  0
H  H93  1  0.10274170  0.78029521  0.92323359  1  0.063888  0  0.105147  0.117034  0  1.003379  0
H  H94  1  0.89725868  0.92323458  0.21970350  1  0.063902  0  0.105168  0.117047  0  1.003346  0
H  H95  1  0.89725855  0.07676478  0.78029612  1  0.063891  0  0.105175  0.117069  0  1.003363  0
H  H96  1  0.94690656  0.20891828  0.35718148  1  0.0581  0  0.114602  0.102925  0  0.958682  0
H  H97  1  0.94690674  0.79108151  0.64281862  1  0.058111  0  0.114589  0.102922  0  0.958645  0
H  H98  1  0.05309338  0.35718134  0.79108145  1  0.058111  0  0.114593  0.102908  0  0.958643  0
H  H99  1  0.05309329  0.64281831  0.20891835  1  0.058095  0  0.114594  0.10292  0  0.95861  0
H  H100  1  0.55309307  0.29108111  0.85718191  1  0.058112  0  0.114597  0.102918  0  0.958622  0
H  H101  1  0.55309345  0.70891856  0.14281875  1  0.058115  0  0.114586  0.102914  0  0.958641  0
H  H102  1  0.44690642  0.14281852  0.29108150  1  0.0581  0  0.1146  0.102911  0  0.958638  0
H  H103  1  0.44690704  0.85718125  0.70891870  1  0.058119  0  0.114598  0.102932  0  0.958636  0
H  H104  1  0.93548265  0.29341136  0.36577231  1  0.069449  0  0.116617  0.106161  0  0.955442  0
H  H105  1  0.93548292  0.70658797  0.63422730  1  0.069429  0  0.11661  0.106149  0  0.95546  0
H  H106  1  0.06451725  0.36577216  0.70658784  1  0.069431  0  0.116601  0.106128  0  0.955455  0
H  H107  1  0.06451768  0.63422845  0.29341147  1  0.069447  0  0.116621  0.10617  0  0.955441  0
H  H108  1  0.56451698  0.20658804  0.86577226  1  0.069434  0  0.116605  0.106139  0  0.955444  0
H  H109  1  0.56451727  0.79341162  0.13422792  1  0.069444  0  0.116607  0.106154  0  0.955444  0
H  H110  1  0.43548257  0.13422770  0.20658887  1  0.069447  0  0.116616  0.106154  0  0.955438  0
H  H111  1  0.43548263  0.86577257  0.79341182  1  0.069431  0  0.116613  0.106152  0  0.955448  0
H  H112  1  0.94246905  0.36091927  0.27091114  1  0.06732  0  0.113431  0.103193  0  0.964437  0
H  H113  1  0.94246937  0.63908053  0.72908847  1  0.067313  0  0.113423  0.103181  0  0.964438  0
H  H114  1  0.05753088  0.27091105  0.63908085  1  0.067317  0  0.113426  0.103186  0  0.964443  0
H  H115  1  0.05753119  0.72908811  0.36091797  1  0.06732  0  0.113416  0.10317  0  0.964459  0
H  H116  1  0.55753113  0.13908061  0.77091110  1  0.067315  0  0.113426  0.103187  0  0.964443  0
H  H117  1  0.55753080  0.86091906  0.22908908  1  0.067318  0  0.113425  0.103184  0  0.964452  0
H  H118  1  0.44246895  0.22908929  0.13908139  1  0.067332  0  0.113435  0.103204  0  0.964444  0
H  H119  1  0.44246910  0.77091097  0.86091930  1  0.067317  0  0.113426  0.103187  0  0.964443  0
H  H120  1  0.93680894  0.32612861  0.19281541  1  0.072255  0  0.11243  0.104051  0  0.98499  0
H  H121  1  0.93680868  0.67387168  0.80718469  1  0.072249  0  0.112432  0.104044  0  0.984977  0
H  H122  1  0.06319211  0.19281536  0.67387154  1  0.072185  0  0.112434  0.10406  0  0.984952  0
H  H123  1  0.06319129  0.80718379  0.32612777  1  0.072219  0  0.112405  0.104025  0  0.985019  0
H  H124  1  0.56319178  0.17387176  0.69281536  1  0.072185  0  0.112429  0.104052  0  0.984966  0
H  H125  1  0.56319200  0.82612839  0.30718481  1  0.07218  0  0.112432  0.104057  0  0.984952  0
H  H126  1  0.43680824  0.30718450  0.17387256  1  0.072195  0  0.112396  0.104043  0  0.985019  0
H  H127  1  0.43680848  0.69281529  0.82612813  1  0.072188  0  0.112436  0.104061  0  0.984947  0
H  H128  1  0.95007979  0.21070808  0.18188739  1  0.042651  0  0.113593  0.102001  0  0.960573  0
H  H129  1  0.95007941  0.78929268  0.81811125  1  0.04272  0  0.113581  0.102012  0  0.960602  0
H  H130  1  0.04992026  0.18188881  0.78929214  1  0.04272  0  0.11356  0.101985  0  0.960621  0
H  H131  1  0.04992051  0.81811278  0.21070718  1  0.04265  0  0.113585  0.101978  0  0.960586  0
H  H132  1  0.54992093  0.28929181  0.68188734  1  0.042654  0  0.113587  0.102003  0  0.960572  0
H  H133  1  0.54992127  0.71070787  0.31811235  1  0.042652  0  0.11359  0.101988  0  0.960583  0
H  H134  1  0.45007953  0.31811250  0.28929219  1  0.042653  0  0.113596  0.102002  0  0.960575  0
H  H135  1  0.45007981  0.68188872  0.71070753  1  0.042719  0  0.113564  0.101984  0  0.960615  0
H  H136  1  0.94247652  0.15989782  0.25016490  1  0.110092  0  0.10953  0.098011  0  0.996827  0
H  H137  1  0.94247610  0.84010246  0.74983423  1  0.110151  0  0.109535  0.098025  0  0.996831  0
H  H138  1  0.05752404  0.25016578  0.84010243  1  0.110154  0  0.109538  0.098015  0  0.99684  0
H  H139  1  0.05752332  0.74983532  0.15989737  1  0.110082  0  0.109533  0.098003  0  0.996827  0
H  H140  1  0.55752366  0.34010206  0.75016484  1  0.110133  0  0.109547  0.09803  0  0.996813  0
H  H141  1  0.55752460  0.65989761  0.24983485  1  0.110117  0  0.109553  0.098008  0  0.996841  0
H  H142  1  0.44247627  0.24983504  0.34010248  1  0.110118  0  0.109535  0.097996  0  0.996828  0
H  H143  1  0.44247649  0.75016522  0.65989772  1  0.110171  0  0.109532  0.09798  0  0.996907  0
C  C144  1  0.26975462  0.28122285  0.38007866  1  1.612602  0  0.207672  0.603507  0  4.216945  0
C  C145  1  0.26975856  0.71877708  0.61992013  1  1.612454  0  0.207707  0.603494  0  4.216603  0
C  C146  1  0.73024580  0.38007909  0.71877756  1  1.612647  0  0.20765  0.603401  0  4.216993  0
C  C147  1  0.73024362  0.61992139  0.28122113  1  1.612462  0  0.20763  0.603388  0  4.216782  0
C  C148  1  0.23024410  0.21877700  0.88007905  1  1.612588  0  0.207649  0.603476  0  4.216842  0
C  C149  1  0.23024336  0.78122249  0.11992071  1  1.612454  0  0.207664  0.603514  0  4.216661  0
C  C150  1  0.76975492  0.11992128  0.21877813  1  1.612604  0  0.207715  0.603573  0  4.216748  0
C  C151  1  0.76975444  0.88007916  0.78122248  1  1.612586  0  0.207653  0.603391  0  4.216964  0
C  C152  1  0.21907912  0.05936855  0.29486004  1  -0.192557  0  -0.025909  -0.118259  0  3.968728  0
C  C153  1  0.21907860  0.94063094  0.70513876  1  -0.192565  0  -0.025896  -0.118276  0  3.968808  0
C  C154  1  0.78092040  0.29486097  0.94063201  1  -0.192944  0  -0.025886  -0.1183  0  3.968747  0
C  C155  1  0.78092133  0.70513994  0.05936860  1  -0.192562  0  -0.025917  -0.118305  0  3.968792  0
C  C156  1  0.28091962  0.44063130  0.79486042  1  -0.192906  0  -0.02596  -0.1184  0  3.968849  0
C  C157  1  0.28092120  0.55936862  0.20514126  1  -0.192891  0  -0.025945  -0.118314  0  3.968787  0
C  C158  1  0.71907922  0.20514036  0.44063162  1  -0.192581  0  -0.025851  -0.11821  0  3.968843  0
C  C159  1  0.71907941  0.79486013  0.55936803  1  -0.192864  0  -0.025869  -0.118215  0  3.968771  0
C  C160  1  0.21494517  0.94008937  0.28689694  1  -0.19237  0  -0.02639  -0.11929  0  3.975383  0
C  C161  1  0.21494507  0.05991014  0.71310428  1  -0.19234  0  -0.026399  -0.119338  0  3.975458  0
C  C162  1  0.78505346  0.28689644  0.05991116  1  -0.192417  0  -0.02642  -0.119281  0  3.975475  0
C  C163  1  0.78505523  0.71310351  0.94008994  1  -0.192323  0  -0.026388  -0.119247  0  3.975321  0
C  C164  1  0.28505251  0.55991117  0.78689636  1  -0.192164  0  -0.026405  -0.119252  0  3.9754  0
C  C165  1  0.28505474  0.44008924  0.21310436  1  -0.192376  0  -0.026412  -0.119364  0  3.975436  0
C  C166  1  0.71494572  0.21310248  0.55991108  1  -0.192361  0  -0.02637  -0.11925  0  3.975388  0
C  C167  1  0.71494700  0.78689608  0.44008810  1  -0.192435  0  -0.026389  -0.119248  0  3.975368  0
C  C168  1  0.15049283  0.96663577  0.30385355  1  -0.04129  0  -0.101525  -0.113275  0  4.02258  0
C  C169  1  0.15049277  0.03336379  0.69614768  1  -0.04129  0  -0.101498  -0.113176  0  4.022517  0
C  C170  1  0.84950682  0.30385349  0.03336524  1  -0.041272  0  -0.101543  -0.11328  0  4.022615  0
C  C171  1  0.84950755  0.69614591  0.96663632  1  -0.04137  0  -0.101568  -0.113349  0  4.02249  0
C  C172  1  0.34950536  0.53336573  0.80385344  1  -0.041594  0  -0.101522  -0.113277  0  4.022594  0
C  C173  1  0.34950652  0.46663559  0.19614823  1  -0.0412  0  -0.101491  -0.113188  0  4.022517  0
C  C174  1  0.65049342  0.19614591  0.53336421  1  -0.041211  0  -0.101545  -0.113345  0  4.022633  0
C  C175  1  0.65049362  0.80385319  0.46663450  1  -0.041185  0  -0.101516  -0.113222  0  4.022528  0
C  C176  1  0.23817251  0.12866335  0.29041700  1  1.620108  0  0.20741  0.60218  0  4.215231  0
C  C177  1  0.23817258  0.87133613  0.70958130  1  1.620058  0  0.207367  0.602063  0  4.215315  0
C  C178  1  0.76182699  0.29041698  0.87133716  1  1.620074  0  0.207475  0.602236  0  4.215021  0
C  C179  1  0.76182737  0.70958347  0.12866346  1  1.620163  0  0.207438  0.602252  0  4.215097  0
C  C180  1  0.26182729  0.37133795  0.79041739  1  1.620043  0  0.207443  0.602268  0  4.214965  0
C  C181  1  0.26182774  0.62866296  0.20958333  1  1.620044  0  0.207398  0.602185  0  4.215144  0
C  C182  1  0.73817317  0.20958338  0.37133774  1  1.620047  0  0.207379  0.602064  0  4.215258  0
C  C183  1  0.73817072  0.79041709  0.62866240  1  1.620104  0  0.207325  0.602014  0  4.215276  0
C  C184  1  0.04370480  0.26538970  0.33888673  1  0.251044  0  -0.065224  -0.090237  0  3.818905  0
C  C185  1  0.04370503  0.73460996  0.66111307  1  0.251103  0  -0.065182  -0.090163  0  3.818939  0
C  C186  1  0.95629566  0.33888706  0.73461032  1  0.251026  0  -0.065183  -0.090189  0  3.818916  0
C  C187  1  0.95629501  0.66111273  0.26538929  1  0.25113  0  -0.065224  -0.090234  0  3.818912  0
C  C188  1  0.45629551  0.23460967  0.83888708  1  0.250904  0  -0.065223  -0.090295  0  3.818968  0
C  C189  1  0.45629530  0.76538961  0.16111311  1  0.251121  0  -0.065186  -0.09019  0  3.818905  0
C  C190  1  0.54370453  0.16111330  0.23461045  1  0.251119  0  -0.065201  -0.090247  0  3.818888  0
C  C191  1  0.54370463  0.83888686  0.76538973  1  0.251036  0  -0.065209  -0.090248  0  3.818941  0
C  C192  1  0.04737975  0.20344235  0.23964884  1  0.195741  0  -0.075188  -0.098439  0  3.830944  0
C  C193  1  0.04737989  0.79655779  0.76035096  1  0.195745  0  -0.07518  -0.098453  0  3.830955  0
C  C194  1  0.95262027  0.23964923  0.79655771  1  0.195742  0  -0.075185  -0.09849  0  3.830968  0
C  C195  1  0.95262006  0.76035153  0.20344238  1  0.195752  0  -0.075216  -0.098559  0  3.831003  0
C  C196  1  0.45262006  0.29655751  0.73964871  1  0.195758  0  -0.075175  -0.098392  0  3.830887  0
C  C197  1  0.45262094  0.70344226  0.26035149  1  0.195741  0  -0.075205  -0.098453  0  3.830896  0
C  C198  1  0.54737990  0.26035113  0.29655784  1  0.195735  0  -0.075189  -0.098529  0  3.831126  0
C  C199  1  0.54738012  0.73964903  0.70344282  1  0.19574  0  -0.075135  -0.098326  0  3.830931  0
C  C200  1  0.04316785  0.32061831  0.23545119  1  0.247904  0  -0.065701  -0.087116  0  3.821251  0
C  C201  1  0.04316812  0.67938184  0.76454909  1  0.247905  0  -0.065728  -0.087185  0  3.821252  0
C  C202  1  0.95683213  0.23545110  0.67938168  1  0.247905  0  -0.065704  -0.087115  0  3.821265  0
C  C203  1  0.95683240  0.76454869  0.32061745  1  0.247898  0  -0.065682  -0.087096  0  3.821226  0
C  C204  1  0.45683249  0.17938203  0.73545154  1  0.24789  0  -0.065677  -0.087064  0  3.821219  0
C  C205  1  0.45683219  0.82061821  0.26454914  1  0.247897  0  -0.065705  -0.087111  0  3.821268  0
C  C206  1  0.54316702  0.26454878  0.17938230  1  0.2479  0  -0.065714  -0.087148  0  3.82123  0
C  C207  1  0.54316775  0.73545090  0.82061837  1  0.247906  0  -0.065719  -0.08718  0  3.821244  0
C  C208  1  0.15291611  0.03450504  0.30863635  1  -0.019996  0  -0.101098  -0.112672  0  4.019802  0
C  C209  1  0.15291608  0.96549452  0.69136343  1  -0.02001  0  -0.101114  -0.11273  0  4.019857  0
C  C210  1  0.84708289  0.30863675  0.96549556  1  -0.019975  0  -0.1011  -0.112666  0  4.019924  0
C  C211  1  0.84708384  0.69136362  0.03450552  1  -0.020012  0  -0.101104  -0.112707  0  4.019822  0
C  C212  1  0.34708263  0.46549578  0.80863624  1  -0.020013  0  -0.101056  -0.112602  0  4.019832  0
C  C213  1  0.34708372  0.53450505  0.19136544  1  -0.020071  0  -0.101074  -0.112654  0  4.019819  0
C  C214  1  0.65291672  0.19136361  0.46549519  1  -0.020064  0  -0.101097  -0.11264  0  4.019875  0
C  C215  1  0.65291638  0.80863646  0.53450400  1  -0.020053  0  -0.101104  -0.11269  0  4.019902  0
C  C216  1  0.28755645  0.28636863  0.44949741  1  -0.235097  0  -0.024306  -0.115974  0  3.972758  0
C  C217  1  0.28755989  0.71363129  0.55050137  1  -0.235086  0  -0.024263  -0.115784  0  3.972591  0
C  C218  1  0.71244393  0.44949781  0.71363081  1  -0.235104  0  -0.024321  -0.116034  0  3.972705  0
C  C219  1  0.71244076  0.55050317  0.28636934  1  -0.235097  0  -0.024317  -0.115976  0  3.972728  0
C  C220  1  0.21244278  0.21362977  0.94949781  1  -0.235085  0  -0.024284  -0.115961  0  3.972797  0
C  C221  1  0.21244205  0.78636876  0.05050196  1  -0.23505  0  -0.024309  -0.115982  0  3.972567  0
C  C222  1  0.78755837  0.05050304  0.21363186  1  -0.235108  0  -0.024283  -0.115866  0  3.972611  0
C  C223  1  0.78755677  0.94949787  0.78636972  1  -0.235091  0  -0.024289  -0.115923  0  3.972655  0
C  C224  1  0.35402555  0.28316652  0.47700887  1  0.030113  0  -0.100625  -0.112731  0  4.01923  0
C  C225  1  0.35402688  0.71683431  0.52298893  1  0.030101  0  -0.100674  -0.112807  0  4.019251  0
C  C226  1  0.64597534  0.47700881  0.71683434  1  0.030129  0  -0.100569  -0.112562  0  4.019142  0
C  C227  1  0.64597431  0.52299030  0.28316630  1  0.030077  0  -0.100631  -0.112681  0  4.019278  0
C  C228  1  0.14597526  0.21683333  0.97700977  1  0.030128  0  -0.100622  -0.112652  0  4.01923  0
C  C229  1  0.14597348  0.78316526  0.02298953  1  0.030089  0  -0.100627  -0.112636  0  4.019023  0
C  C230  1  0.85402538  0.02299011  0.21683442  1  0.030099  0  -0.100637  -0.112662  0  4.019152  0
C  C231  1  0.85402480  0.97700929  0.78316666  1  0.030133  0  -0.100589  -0.112587  0  4.019186  0
C  C232  1  0.23028957  0.87084875  0.27536151  1  1.594918  0  0.208599  0.604106  0  4.212536  0
C  C233  1  0.23028939  0.12915073  0.72463825  1  1.594905  0  0.208617  0.604103  0  4.212553  0
C  C234  1  0.76971330  0.27536199  0.12915181  1  1.59495  0  0.208547  0.603968  0  4.212647  0
C  C235  1  0.76970981  0.72463845  0.87084881  1  1.594915  0  0.208573  0.604037  0  4.212503  0
C  C236  1  0.26971021  0.62915081  0.77536238  1  1.594631  0  0.208592  0.6041  0  4.212654  0
C  C237  1  0.26970989  0.37084864  0.22463834  1  1.594916  0  0.208644  0.604214  0  4.212519  0
C  C238  1  0.73028954  0.22463741  0.62915124  1  1.594909  0  0.208591  0.604103  0  4.212432  0
C  C239  1  0.73028770  0.77536210  0.37084842  1  1.594932  0  0.208567  0.604012  0  4.212537  0
C  C240  1  0.28357441  0.28680228  0.56879428  1  -0.173988  0  -0.02659  -0.121129  0  3.982565  0
C  C241  1  0.28357525  0.71319619  0.43120450  1  -0.17401  0  -0.02658  -0.121143  0  3.982587  0
C  C242  1  0.71642431  0.56879606  0.71319715  1  -0.174054  0  -0.026592  -0.12109  0  3.98255  0
C  C243  1  0.71642496  0.43120588  0.28680251  1  -0.174093  0  -0.026612  -0.121165  0  3.982489  0
C  C244  1  0.21642491  0.21319516  0.06879583  1  -0.174011  0  -0.026536  -0.121048  0  3.98256  0
C  C245  1  0.21642555  0.78680241  0.93120490  1  -0.174043  0  -0.026576  -0.12114  0  3.982508  0
C  C246  1  0.78357377  0.93120595  0.21319723  1  -0.174112  0  -0.026555  -0.121084  0  3.982457  0
C  C247  1  0.78357469  0.06879496  0.78680290  1  -0.17401  0  -0.026582  -0.121077  0  3.982467  0
C  C248  1  0.26199091  0.28183413  0.63724167  1  1.586479  0  0.20721  0.60269  0  4.219393  0
C  C249  1  0.26199228  0.71816581  0.36275809  1  1.586006  0  0.207157  0.602654  0  4.219394  0
C  C250  1  0.73800724  0.63724194  0.71816676  1  1.585995  0  0.207121  0.602633  0  4.219386  0
C  C251  1  0.73800849  0.36275950  0.28183483  1  1.586456  0  0.207109  0.602643  0  4.21941  0
C  C252  1  0.23800892  0.21816476  0.13724176  1  1.58646  0  0.207119  0.60257  0  4.219476  0
C  C253  1  0.23801064  0.78183521  0.86275848  1  1.586492  0  0.207191  0.602671  0  4.219395  0
C  C254  1  0.76199135  0.86275910  0.21816588  1  1.586457  0  0.207141  0.602673  0  4.219478  0
C  C255  1  0.76199221  0.13724183  0.78183426  1  1.585996  0  0.207155  0.602619  0  4.219442  0
C  C256  1  0.35175002  0.28350870  0.54502357  1  -0.021388  0  -0.101528  -0.112142  0  4.023142  0
C  C257  1  0.35175190  0.71649068  0.45497472  1  -0.021439  0  -0.101493  -0.112156  0  4.022985  0
C  C258  1  0.64824924  0.54502395  0.71649168  1  -0.021356  0  -0.101511  -0.112174  0  4.023078  0
C  C259  1  0.64824829  0.45497709  0.28350896  1  -0.021318  0  -0.101481  -0.11208  0  4.023051  0
C  C260  1  0.14824983  0.21649019  0.04502416  1  -0.021409  0  -0.101502  -0.112128  0  4.02316  0
C  C261  1  0.14825047  0.78350792  0.95497513  1  -0.021399  0  -0.10153  -0.112173  0  4.023043  0
C  C262  1  0.85175041  0.95497661  0.21649029  1  -0.021284  0  -0.101542  -0.112215  0  4.023073  0
C  C263  1  0.85175084  0.04502424  0.78350885  1  -0.021391  0  -0.101532  -0.112235  0  4.023118  0
C  C264  1  0.96283148  0.25607440  0.33761665  1  0.233074  0  -0.064412  -0.087564  0  3.820553  0
C  C265  1  0.96283171  0.74392489  0.66238296  1  0.23308  0  -0.064405  -0.087595  0  3.820561  0
C  C266  1  0.03716845  0.33761701  0.74392481  1  0.233067  0  -0.064402  -0.08752  0  3.820466  0
C  C267  1  0.03716886  0.66238314  0.25607451  1  0.233069  0  -0.064412  -0.087575  0  3.820501  0
C  C268  1  0.53716868  0.24392499  0.83761708  1  0.233066  0  -0.064396  -0.087502  0  3.820483  0
C  C269  1  0.53716848  0.75607518  0.16238358  1  0.233072  0  -0.064443  -0.087602  0  3.820558  0
C  C270  1  0.46283136  0.16238333  0.24392534  1  0.233067  0  -0.064409  -0.087544  0  3.820495  0
C  C271  1  0.46283146  0.83761691  0.75607534  1  0.233068  0  -0.06441  -0.087585  0  3.820551  0
C  C272  1  0.96194008  0.32133274  0.24034666  1  0.256364  0  -0.068609  -0.092988  0  3.813818  0
C  C273  1  0.96193983  0.67866704  0.75965343  1  0.256373  0  -0.068611  -0.092959  0  3.813751  0
C  C274  1  0.03806042  0.24034708  0.67866741  1  0.256442  0  -0.068616  -0.092989  0  3.813732  0
C  C275  1  0.03806018  0.75965210  0.32133143  1  0.256415  0  -0.068578  -0.092954  0  3.813894  0
C  C276  1  0.53806011  0.17866714  0.74034662  1  0.256426  0  -0.068618  -0.093008  0  3.813795  0
C  C277  1  0.53806034  0.82133303  0.25965308  1  0.256436  0  -0.068623  -0.092997  0  3.81376  0
C  C278  1  0.46193993  0.25965278  0.17866794  1  0.256389  0  -0.068617  -0.09305  0  3.813962  0
C  C279  1  0.46193960  0.74034698  0.82133274  1  0.256437  0  -0.068615  -0.092993  0  3.813766  0
C  C280  1  0.96689559  0.20450283  0.23234339  1  0.242814  0  -0.072444  -0.09242  0  3.834426  0
C  C281  1  0.96689573  0.79549792  0.76765379  1  0.242714  0  -0.072432  -0.092442  0  3.834512  0
C  C282  1  0.03310391  0.23234624  0.79549787  1  0.242712  0  -0.072417  -0.092395  0  3.834515  0
C  C283  1  0.03310422  0.76765681  0.20450194  1  0.242795  0  -0.072381  -0.092289  0  3.83428  0
C  C284  1  0.53310460  0.29549705  0.73234383  1  0.242783  0  -0.072458  -0.092462  0  3.834468  0
C  C285  1  0.53310496  0.70450264  0.26765635  1  0.242773  0  -0.072433  -0.092366  0  3.834456  0
C  C286  1  0.46689536  0.26765652  0.29549743  1  0.242773  0  -0.072432  -0.092384  0  3.834384  0
C  C287  1  0.46689664  0.73234614  0.70450180  1  0.242699  0  -0.072432  -0.0924  0  3.834557  0
S  S288  1  0.27804540  0.99889560  0.27664456  1  0.290651  0  0.093316  0.157479  0  2.832124  0
S  S289  1  0.27804536  0.00110336  0.72335519  1  0.290658  0  0.093335  0.157533  0  2.83217  0
S  S290  1  0.72195373  0.27664507  0.00110439  1  0.291  0  0.093344  0.157533  0  2.832155  0
S  S291  1  0.72195496  0.72335638  0.99889575  1  0.290651  0  0.093346  0.157516  0  2.832173  0
S  S292  1  0.22195281  0.50110397  0.77664448  1  0.290899  0  0.093325  0.157495  0  2.832114  0
S  S293  1  0.22195392  0.49889601  0.22335625  1  0.290938  0  0.093311  0.157476  0  2.832125  0
S  S294  1  0.77804545  0.22335578  0.50110429  1  0.290644  0  0.093335  0.157501  0  2.832137  0
S  S295  1  0.77804621  0.77664417  0.49889535  1  0.290952  0  0.093336  0.157482  0  2.832147  0
S  S296  1  0.22276966  0.29071295  0.50736622  1  0.299773  0  0.095796  0.160215  0  2.835647  0
S  S297  1  0.22277206  0.70928799  0.49263354  1  0.299914  0  0.095769  0.160146  0  2.835577  0
S  S298  1  0.77722962  0.50736800  0.70928747  1  0.299828  0  0.095785  0.160188  0  2.835522  0
S  S299  1  0.77722863  0.49263437  0.29071266  1  0.299869  0  0.095776  0.160165  0  2.835548  0
S  S300  1  0.27722968  0.20928642  0.00736727  1  0.299819  0  0.095784  0.16016  0  2.835616  0
S  S301  1  0.27722978  0.79071302  0.99263345  1  0.299807  0  0.095785  0.160197  0  2.835509  0
S  S302  1  0.72277003  0.99263498  0.20928853  1  0.299818  0  0.095799  0.160165  0  2.835496  0
S  S303  1  0.72276997  0.00736696  0.79071307  1  0.299789  0  0.095755  0.160144  0  2.835519  0
N  N304  1  0.07186401  0.26413374  0.27162609  1  -1.009252  0  -0.34022  -0.10617  0  3.455355  0
N  N305  1  0.07186423  0.73586590  0.72837370  1  -1.009255  0  -0.340224  -0.10617  0  3.455369  0
N  N306  1  0.92813596  0.27162647  0.73586579  1  -1.009245  0  -0.340218  -0.106183  0  3.455378  0
N  N307  1  0.92813577  0.72837334  0.26413382  1  -1.009259  0  -0.340213  -0.106077  0  3.455237  0
N  N308  1  0.42813579  0.23586564  0.77162645  1  -1.009247  0  -0.34022  -0.106181  0  3.455359  0
N  N309  1  0.42813609  0.76413415  0.22837376  1  -1.009235  0  -0.34022  -0.10618  0  3.455361  0
N  N310  1  0.57186370  0.22837341  0.23586640  1  -1.009249  0  -0.340201  -0.10606  0  3.455247  0
N  N311  1  0.57186439  0.77162625  0.76413425  1  -1.009259  0  -0.340216  -0.106124  0  3.455288  0
N  N312  1  0.93675796  0.25959109  0.26973069  1  -0.98398  0  -0.339503  -0.105706  0  3.449946  0
N  N313  1  0.93675765  0.74040871  0.73026940  1  -0.983987  0  -0.339506  -0.105691  0  3.449988  0
N  N314  1  0.06324254  0.26973060  0.74040910  1  -0.984004  0  -0.339508  -0.105728  0  3.449941  0
N  N315  1  0.06324235  0.73026904  0.25958973  1  -0.983964  0  -0.339536  -0.10575  0  3.449954  0
N  N316  1  0.56324222  0.24040879  0.76973064  1  -0.983981  0  -0.339489  -0.105705  0  3.450039  0
N  N317  1  0.56324253  0.75959087  0.23026953  1  -0.983996  0  -0.339432  -0.105652  0  3.450005  0
N  N318  1  0.43675726  0.23026926  0.24040964  1  -0.983968  0  -0.339511  -0.105672  0  3.449947  0
N  N319  1  0.43675796  0.76973052  0.75959105  1  -0.983987  0  -0.339489  -0.105664  0  3.449987  0
O  O320  1  0.31977816  0.26479040  0.34252389  1  -1.180847  0  -0.315767  -0.55812  0  2.350515  0
O  O321  1  0.31978208  0.73520901  0.65747488  1  -1.180863  0  -0.31583  -0.55816  0  2.350401  0
O  O322  1  0.68022282  0.34252389  0.73520904  1  -1.180855  0  -0.315751  -0.55806  0  2.350547  0
O  O323  1  0.68022007  0.65747567  0.26478724  1  -1.180811  0  -0.315814  -0.558099  0  2.350409  0
O  O324  1  0.18022162  0.23520994  0.84252430  1  -1.180861  0  -0.315756  -0.558095  0  2.35049  0
O  O325  1  0.18021984  0.76478959  0.15747547  1  -1.180786  0  -0.315783  -0.558144  0  2.350433  0
O  O326  1  0.81977947  0.15747647  0.23521009  1  -1.180886  0  -0.315827  -0.558205  0  2.350475  0
O  O327  1  0.81977799  0.84252392  0.76479052  1  -1.180834  0  -0.315783  -0.558113  0  2.350576  0
O  O328  1  0.30053284  0.14250496  0.27197599  1  -1.162634  0  -0.322852  -0.551508  0  2.314397  0
O  O329  1  0.30053292  0.85749446  0.72802230  1  -1.16261  0  -0.322859  -0.551455  0  2.314363  0
O  O330  1  0.69946666  0.27197650  0.85749504  1  -1.162641  0  -0.322905  -0.55155  0  2.314323  0
O  O331  1  0.69946702  0.72802449  0.14250462  1  -1.162651  0  -0.32287  -0.551547  0  2.314388  0
O  O332  1  0.19946591  0.35749441  0.77197688  1  -1.162634  0  -0.322861  -0.551537  0  2.314266  0
O  O333  1  0.19946635  0.64250510  0.22802386  1  -1.162643  0  -0.322824  -0.551492  0  2.314363  0
O  O334  1  0.80053402  0.22802386  0.35749512  1  -1.162659  0  -0.322835  -0.551482  0  2.314411  0
O  O335  1  0.80053369  0.77197510  0.64250549  1  -1.162587  0  -0.322792  -0.551398  0  2.314271  0
O  O336  1  0.18973135  0.16894491  0.30407183  1  -1.179831  0  -0.317745  -0.552742  0  2.329815  0
O  O337  1  0.18972990  0.83105461  0.69592697  1  -1.179814  0  -0.317719  -0.552665  0  2.329815  0
O  O338  1  0.81026969  0.30407081  0.83105511  1  -1.179856  0  -0.317782  -0.552734  0  2.329756  0
O  O339  1  0.81026850  0.69592911  0.16894550  1  -1.179964  0  -0.317751  -0.552737  0  2.329753  0
O  O340  1  0.31026949  0.33105494  0.80407124  1  -1.179848  0  -0.317758  -0.552749  0  2.329671  0
O  O341  1  0.31026885  0.66894495  0.19592947  1  -1.179844  0  -0.31774  -0.552719  0  2.329771  0
O  O342  1  0.68973047  0.19592907  0.33105473  1  -1.179818  0  -0.317781  -0.552688  0  2.329733  0
O  O343  1  0.68973063  0.80407096  0.66894445  1  -1.179943  0  -0.317749  -0.552704  0  2.329867  0
O  O344  1  0.20616896  0.29207104  0.36361524  1  -1.15944  0  -0.322956  -0.543269  0  2.301885  0
O  O345  1  0.20617239  0.70792847  0.63638501  1  -1.159177  0  -0.322958  -0.543308  0  2.301762  0
O  O346  1  0.79383252  0.36361565  0.70792987  1  -1.159391  0  -0.322956  -0.543236  0  2.301915  0
O  O347  1  0.79382873  0.63638477  0.29207074  1  -1.159257  0  -0.322877  -0.543173  0  2.301806  0
O  O348  1  0.29383134  0.20792930  0.86361514  1  -1.159377  0  -0.32295  -0.543261  0  2.301836  0
O  O349  1  0.29382848  0.79207158  0.13638461  1  -1.159257  0  -0.322925  -0.543258  0  2.301807  0
O  O350  1  0.70617031  0.13638520  0.20792998  1  -1.15938  0  -0.32292  -0.543274  0  2.30183  0
O  O351  1  0.70616932  0.86361578  0.79207065  1  -1.159326  0  -0.322924  -0.543204  0  2.301922  0
O  O352  1  0.17807101  0.83239237  0.27933701  1  -1.164741  0  -0.316052  -0.552525  0  2.338532  0
O  O353  1  0.17807079  0.16760765  0.72066276  1  -1.164763  0  -0.316048  -0.552502  0  2.338642  0
O  O354  1  0.82192767  0.27933649  0.16760678  1  -1.164769  0  -0.315994  -0.552426  0  2.338837  0
O  O355  1  0.82192893  0.72066245  0.83239237  1  -1.164757  0  -0.316035  -0.552469  0  2.338483  0
O  O356  1  0.32192457  0.66760671  0.77933594  1  -1.16471  0  -0.316048  -0.5525  0  2.338766  0
O  O357  1  0.32192902  0.33239221  0.22066284  1  -1.164738  0  -0.316092  -0.552604  0  2.338598  0
O  O358  1  0.67807096  0.22066242  0.66760767  1  -1.164773  0  -0.31605  -0.552521  0  2.338485  0
O  O359  1  0.67807174  0.77933568  0.33239296  1  -1.164763  0  -0.316022  -0.55248  0  2.33876  0
O  O360  1  0.29360598  0.85537266  0.26182622  1  -1.16246  0  -0.322283  -0.550119  0  2.31174  0
O  O361  1  0.29360578  0.14462677  0.73817401  1  -1.162444  0  -0.322306  -0.550147  0  2.311658  0
O  O362  1  0.70639059  0.26182578  0.14462886  1  -1.162451  0  -0.32229  -0.550101  0  2.311427  0
O  O363  1  0.70639446  0.73817375  0.85537370  1  -1.162473  0  -0.322274  -0.550118  0  2.311775  0
O  O364  1  0.20638802  0.64462739  0.76182663  1  -1.162205  0  -0.322252  -0.550144  0  2.311593  0
O  O365  1  0.20639402  0.35537260  0.23817362  1  -1.162473  0  -0.322293  -0.550164  0  2.311733  0
O  O366  1  0.79360646  0.23817362  0.64462731  1  -1.162455  0  -0.322294  -0.550142  0  2.311702  0
O  O367  1  0.79360884  0.76182583  0.35537137  1  -1.162462  0  -0.322299  -0.550113  0  2.311429  0
O  O368  1  0.31150906  0.27167903  0.67766648  1  -1.18292  0  -0.317403  -0.56224  0  2.364241  0
O  O369  1  0.31150990  0.72832087  0.32233326  1  -1.182498  0  -0.317409  -0.562246  0  2.3642  0
O  O370  1  0.68849065  0.67766676  0.72832137  1  -1.182508  0  -0.317387  -0.562229  0  2.364296  0
O  O371  1  0.68849089  0.32233327  0.27167926  1  -1.182904  0  -0.317375  -0.562209  0  2.364173  0
O  O372  1  0.18849129  0.22831986  0.17766707  1  -1.182921  0  -0.317388  -0.562209  0  2.364202  0
O  O373  1  0.18849250  0.77168015  0.82233173  1  -1.182863  0  -0.317431  -0.562255  0  2.364155  0
O  O374  1  0.81150900  0.82233428  0.22832048  1  -1.182903  0  -0.317366  -0.562233  0  2.364217  0
O  O375  1  0.81150981  0.17766661  0.77167965  1  -1.182497  0  -0.317371  -0.562222  0  2.364161  0
O  O376  1  0.19682916  0.28655888  0.65078615  1  -1.160408  0  -0.321481  -0.542391  0  2.290316  0
O  O377  1  0.19682844  0.71344161  0.34921362  1  -1.160376  0  -0.321432  -0.542324  0  2.290258  0
O  O378  1  0.80317161  0.65078638  0.71344252  1  -1.160361  0  -0.321434  -0.542358  0  2.290216  0
O  O379  1  0.80317077  0.34921549  0.28655954  1  -1.160387  0  -0.321426  -0.542371  0  2.290312  0
O  O380  1  0.30317172  0.21344147  0.15078575  1  -1.16042  0  -0.321435  -0.542338  0  2.29032  0
O  O381  1  0.30317185  0.78655941  0.84921497  1  -1.160469  0  -0.32144  -0.542354  0  2.290401  0
O  O382  1  0.69682910  0.84921466  0.21344117  1  -1.160399  0  -0.321457  -0.542374  0  2.290349  0
O  O383  1  0.69682994  0.15078633  0.78655849  1  -1.160356  0  -0.321468  -0.542352  0  2.290391  0
