# generated using pymatgen
data_CuH10C10S2N3Cl
_symmetry_space_group_name_H-M   'P 1'
_cell_length_a   7.33245065
_cell_length_b   7.39615493
_cell_length_c   12.34555290
_cell_angle_alpha   89.99866556
_cell_angle_beta   90.00039981
_cell_angle_gamma   111.31318485
_symmetry_Int_Tables_number   1
_chemical_formula_structural   CuH10C10S2N3Cl
_chemical_formula_sum   'Cu2 H20 C20 S4 N6 Cl2'
_cell_volume   623.73299947
_cell_formula_units_Z   2
loop_
 _symmetry_equiv_pos_site_id
 _symmetry_equiv_pos_as_xyz
  1  'x, y, z'
loop_
 _atom_site_type_symbol
 _atom_site_label
 _atom_site_symmetry_multiplicity
 _atom_site_fract_x
 _atom_site_fract_y
 _atom_site_fract_z
 _atom_site_occupancy
 _atom_site_hle17_ddec_charge
 _atom_site_hle17_ddec_spin_density
 _atom_site_hle17_ddec_sum_bond_order
 _atom_site_hle17_magmom
 _atom_site_hse06_10hf_ddec_charge
 _atom_site_hse06_10hf_ddec_spin_density
 _atom_site_hse06_10hf_ddec_sum_bond_order
 _atom_site_hse06_10hf_magmom
 _atom_site_hse06_ddec_charge
 _atom_site_hse06_ddec_spin_density
 _atom_site_hse06_ddec_sum_bond_order
 _atom_site_hse06_magmom
 _atom_site_pbe_cm5_charge
 _atom_site_pbe_ddec_charge
 _atom_site_pbe_ddec_spin_density
 _atom_site_pbe_ddec_sum_bond_order
 _atom_site_pbe_magmom
Cu  Cu0  1  0.59278181  0.32809710  0.45259103  1  0.605373  -0.599542  2.111653  -0.398  0.578848  -0.701918  2.539191  -0.509  0.656818  -0.792796  2.473251  -0.596  0.576209  0.540344  -0.643609  2.578742  -0.458
Cu  Cu1  1  0.59279362  0.82809717  0.54740466  1  0.60539  0.599536  2.111573  0.398  0.578842  0.701895  2.539116  0.508  0.656933  0.792819  2.473193  0.596  0.576225  0.540399  0.643612  2.578653  0.458
H  H2  1  0.83096987  0.00207628  0.96070793  1  0.11569  0.001694  0.978898  0.0  0.127952  0.001505  1.043099  0.0  0.131496  0.001217  1.041717  0.0  0.083484  0.125518  0.00168  1.044061  0.0
H  H3  1  0.83096849  0.50206895  0.03930139  1  0.115763  -0.001694  0.978859  0.0  0.127994  -0.001505  1.043089  0.0  0.131533  -0.001218  1.041707  0.0  0.083471  0.125558  -0.00168  1.044051  0.0
H  H4  1  0.71588151  0.11051119  0.06328986  1  0.102879  -0.000255  1.025075  0.0  0.107395  -0.000385  1.103413  0.0  0.110401  -0.000308  1.103258  0.0  0.077173  0.105324  -0.00043  1.10343  0.0
H  H5  1  0.71588993  0.61050754  0.93671180  1  0.10293  0.000255  1.025065  0.0  0.107415  0.000385  1.103439  0.0  0.110417  0.000308  1.103291  0.0  0.077204  0.105351  0.00043  1.103456  0.0
H  H6  1  0.96274775  0.11221065  0.19800526  1  0.082119  -2.1e-05  0.957264  0.0  0.091159  3.2e-05  1.022681  0.0  0.093009  2.3e-05  1.022664  0.0  0.094796  0.089726  3.6e-05  1.02282  0.0
H  H7  1  0.96274806  0.61220076  0.80200386  1  0.082189  2.1e-05  0.957242  0.0  0.091165  -3.1e-05  1.022736  0.0  0.093015  -2.3e-05  1.022718  0.0  0.094772  0.089726  -3.6e-05  1.02288  0.0
H  H8  1  0.11381123  0.91370915  0.01541719  1  0.084425  6.8e-05  0.972399  0.0  0.099788  -3.2e-05  1.037912  0.0  0.099943  -1.4e-05  1.039009  0.0  0.092217  0.099675  -3.7e-05  1.037155  0.0
H  H9  1  0.11382797  0.41369495  0.98458831  1  0.084367  -7e-05  0.972472  0.0  0.099687  3.3e-05  1.038024  0.0  0.099833  1.4e-05  1.039125  0.0  0.092232  0.099574  3.7e-05  1.037265  0.0
H  H10  1  0.13275631  0.87959117  0.15760875  1  0.108218  5.8e-05  0.952586  0.0  0.121287  -0.000153  1.015124  0.0  0.122023  -7.8e-05  1.015521  0.0  0.103075  0.120696  -0.000227  1.01493  0.0
H  H11  1  0.13275875  0.37958715  0.84239487  1  0.108246  -6e-05  0.952597  0.0  0.121272  0.000153  1.015135  0.0  0.122005  7.8e-05  1.015533  0.0  0.103061  0.120679  0.000227  1.014945  0.0
H  H12  1  0.08417610  0.92015384  0.46284136  1  0.118512  -0.004841  0.955278  -0.006  0.128825  -0.003449  1.014896  -0.004  0.132143  -0.002664  1.009795  -0.003  0.111589  0.126413  -0.003927  1.018416  -0.004
H  H13  1  0.08418611  0.42016182  0.53715745  1  0.118538  0.004843  0.955239  0.006  0.128838  0.00345  1.014861  0.004  0.13214  0.002664  1.009802  0.003  0.1116  0.126425  0.003927  1.01838  0.004
H  H14  1  0.03441322  0.88740334  0.67070176  1  0.115098  -0.001453  0.961807  -0.001  0.12414  -0.001268  1.025808  -0.001  0.127768  -0.000997  1.024101  -0.001  0.099236  0.121447  -0.001447  1.027202  -0.001
H  H15  1  0.03441317  0.38742405  0.32930298  1  0.115193  0.001455  0.961695  0.001  0.124245  0.001268  1.025716  0.001  0.127865  0.000997  1.024026  0.001  0.099266  0.12155  0.001447  1.027118  0.001
H  H16  1  0.16290138  0.00729828  0.85595384  1  0.08498  -0.000101  0.963526  0.0  0.096937  1e-05  1.025592  0.0  0.100237  2.5e-05  1.022743  0.0  0.101298  0.094635  -1.5e-05  1.027567  0.0
H  H17  1  0.16287272  0.50733813  0.14404703  1  0.084857  0.0001  0.963765  0.0  0.096908  -1e-05  1.025725  0.0  0.10021  -2.5e-05  1.022868  0.0  0.101271  0.094606  1.5e-05  1.027693  0.0
H  H18  1  0.49277376  0.27905030  0.87203451  1  0.092462  -0.000433  0.985378  -0.001  0.09936  -0.000422  1.056015  -0.001  0.102952  -0.00031  1.054422  0.0  0.096479  0.096963  -0.000509  1.057072  -0.001
H  H19  1  0.49274569  0.77909224  0.12795660  1  0.092564  0.000435  0.985159  0.001  0.09935  0.000423  1.055922  0.001  0.102925  0.00031  1.054359  0.0  0.096476  0.096952  0.000509  1.056974  0.001
H  H20  1  0.67355193  0.42317319  0.70138942  1  0.082849  -0.001124  0.945997  -0.002  0.089972  -0.001226  1.012695  -0.002  0.092503  -0.000909  1.009968  -0.001  0.110736  0.088047  -0.001485  1.014684  -0.002
H  H21  1  0.67354297  0.92320231  0.29859716  1  0.082787  0.001124  0.945916  0.002  0.089879  0.001226  1.012653  0.002  0.092406  0.000909  1.009937  0.001  0.110692  0.087955  0.001485  1.014638  0.002
C  C22  1  0.83183364  0.05669660  0.04303784  1  -0.269932  -0.004388  3.642237  -0.004  -0.306064  -0.001589  3.876954  -0.001  -0.311885  -0.001212  3.894639  -0.001  -0.185859  -0.301802  -0.002106  3.86474  -0.002
C  C23  1  0.83183494  0.55668785  0.95697234  1  -0.270003  0.004392  3.642175  0.004  -0.306085  0.001589  3.876895  0.001  -0.311901  0.001213  3.894586  0.001  -0.185851  -0.30183  0.002108  3.864674  0.002
C  C24  1  0.96640237  0.05682498  0.11621750  1  -0.009283  0.002495  3.774915  0.002  -0.013135  0.000716  4.023211  0.001  -0.015521  0.000819  4.047348  0.001  -0.101888  -0.011489  0.000679  4.006873  0.001
C  C25  1  0.96640954  0.55681615  0.88378836  1  -0.009366  -0.002498  3.774993  -0.002  -0.013216  -0.000715  4.023253  -0.001  -0.015603  -0.00082  4.047383  -0.001  -0.101918  -0.011563  -0.00068  4.006908  -0.001
C  C26  1  0.12707566  0.98301556  0.09513046  1  -0.148578  -0.005005  3.686591  -0.005  -0.186488  -0.004241  3.932013  -0.004  -0.184374  -0.003209  3.943144  -0.003  -0.147002  -0.187955  -0.005034  3.9246  -0.005
C  C27  1  0.12708174  0.48300464  0.90487494  1  -0.148543  0.005015  3.686815  0.005  -0.186285  0.00424  3.932008  0.004  -0.184154  0.003209  3.943114  0.003  -0.146958  -0.187752  0.005034  3.92459  0.005
C  C28  1  0.42354262  0.20450104  0.23333365  1  0.160848  -0.001641  3.865455  0.003  0.160026  -0.003607  4.174724  0.0  0.182094  -0.002844  4.187394  0.001  0.1195  0.14586  -0.004237  4.165341  0.0
C  C29  1  0.42354602  0.70449689  0.76666551  1  0.160946  0.001645  3.865256  -0.003  0.160106  0.003603  4.174535  0.0  0.182182  0.002844  4.187193  -0.001  0.119518  0.145928  0.004237  4.165179  0.0
C  C30  1  0.22275620  0.03677546  0.48148612  1  0.05282  0.015503  3.586562  0.015  0.004629  0.002438  3.856199  0.003  0.019228  0.004927  3.862626  0.006  0.058764  -0.006492  0.000303  3.855525  0.001
C  C31  1  0.22276999  0.53677811  0.51851134  1  0.052706  -0.015526  3.586545  -0.015  0.004564  -0.002438  3.856212  -0.003  0.019169  -0.004927  3.862625  -0.006  0.05876  -0.006547  -0.000304  3.855536  -0.001
C  C32  1  0.28555897  0.09330229  0.59126222  1  0.193405  -0.002904  3.791283  -0.003  0.190819  -0.002487  4.049453  -0.002  0.194741  -0.001805  4.070941  -0.001  0.107424  0.187935  -0.002848  4.036636  -0.002
C  C33  1  0.28556708  0.59331519  0.40873632  1  0.193311  0.002917  3.791378  0.003  0.190724  0.002486  4.049532  0.002  0.194655  0.001804  4.071025  0.001  0.107383  0.187837  0.002848  4.036725  0.002
C  C34  1  0.17453770  0.00578086  0.68199731  1  -0.111637  0.000301  3.651719  0.0  -0.13174  -0.001475  3.894453  -0.001  -0.135529  -0.000978  3.911723  -0.001  -0.075157  -0.129271  -0.001926  3.882946  -0.002
C  C35  1  0.17453437  0.50579895  0.31800525  1  -0.111784  -0.00032  3.651685  0.0  -0.131912  0.001476  3.894412  0.001  -0.135704  0.000978  3.91169  0.001  -0.075209  -0.129441  0.001926  3.882904  0.002
C  C36  1  0.24752560  0.07327904  0.78431480  1  -0.009053  0.002996  3.728819  0.002  -0.025078  0.001906  3.977583  0.002  -0.019377  0.001922  3.988943  0.002  -0.071319  -0.028595  0.001971  3.969469  0.002
C  C37  1  0.24751061  0.57331298  0.21568387  1  -0.008815  -0.002982  3.728937  -0.002  -0.024886  -0.001906  3.977672  -0.002  -0.019162  -0.001922  3.988976  -0.002  -0.071255  -0.028411  -0.001971  3.969582  -0.002
C  C38  1  0.42925719  0.22319453  0.79363083  1  -0.111342  -0.001744  3.713431  -0.002  -0.125683  -0.002303  3.963388  -0.003  -0.128317  -0.001803  3.976902  -0.003  -0.083163  -0.124035  -0.00276  3.953875  -0.004
C  C39  1  0.42924086  0.72322886  0.20636404  1  -0.111508  0.001728  3.713211  0.002  -0.125786  0.002303  3.963229  0.003  -0.128414  0.001803  3.976737  0.003  -0.083178  -0.124146  0.00276  3.953714  0.004
C  C40  1  0.53195671  0.30423144  0.69928071  1  0.158504  0.003777  3.675749  0.005  0.129409  0.000646  3.928199  0.002  0.139789  0.001548  3.943542  0.003  0.055585  0.122783  -4.2e-05  3.918445  0.001
C  C41  1  0.53195017  0.80425608  0.30071101  1  0.158721  -0.003773  3.675491  -0.005  0.129667  -0.000645  3.927889  -0.002  0.140047  -0.001549  3.943248  -0.003  0.055695  0.12305  4.2e-05  3.918126  -0.001
S  S42  1  0.37063160  0.17634259  0.09540715  1  0.024731  -0.008868  2.383551  -0.005  0.04347  -0.007733  2.719775  -0.004  0.034036  -0.005997  2.720637  -0.003  0.05197  0.049471  -0.008874  2.719769  -0.004
S  S43  1  0.37063684  0.67633878  0.90459057  1  0.024732  0.008868  2.383593  0.005  0.043424  0.007738  2.719791  0.004  0.033987  0.005997  2.72065  0.003  0.051956  0.049442  0.008875  2.719764  0.004
S  S44  1  0.64810735  0.37421984  0.26839331  1  -0.291766  -0.194893  2.098796  -0.184  -0.319632  -0.118287  2.462981  -0.117  -0.358959  -0.097308  2.461384  -0.101  -0.168195  -0.298873  -0.126991  2.465789  -0.121
S  S45  1  0.64811327  0.87421268  0.73160357  1  -0.291788  0.194909  2.098694  0.184  -0.319603  0.118304  2.462833  0.117  -0.358987  0.097308  2.461286  0.101  -0.168178  -0.298867  0.126997  2.465673  0.121
N  N46  1  0.28805967  0.09615597  0.30087667  1  -0.258978  -0.013015  3.06129  -0.012  -0.237168  -0.010151  3.345877  -0.01  -0.256491  -0.006001  3.369997  -0.005  -0.230955  -0.222829  -0.013706  3.328971  -0.013
N  N47  1  0.28806650  0.59615592  0.69912103  1  -0.259151  0.013014  3.061259  0.012  -0.237309  0.010152  3.3459  0.01  -0.256625  0.006002  3.370016  0.005  -0.231003  -0.222965  0.013706  3.329005  0.013
N  N48  1  0.34057132  0.13444492  0.40533680  1  -0.124076  -0.100047  3.46159  -0.12  -0.077655  -0.074215  3.779586  -0.094  -0.100469  -0.065248  3.803584  -0.087  -0.246032  -0.066565  -0.078105  3.766939  -0.096
N  N49  1  0.34058546  0.63444600  0.59466139  1  -0.123903  0.10006  3.46131  0.12  -0.077562  0.074216  3.779356  0.094  -0.100406  0.06524  3.803403  0.087  -0.246053  -0.066493  0.078101  3.76674  0.096
N  N50  1  0.46149265  0.24211431  0.60109261  1  -0.327539  -0.059086  3.316967  -0.069  -0.278258  -0.055864  3.603524  -0.069  -0.306736  -0.04859  3.627562  -0.063  -0.341364  -0.262486  -0.060146  3.590251  -0.072
N  N51  1  0.46150024  0.74212614  0.39890132  1  -0.327564  0.059075  3.316968  0.069  -0.278277  0.055863  3.603537  0.069  -0.306767  0.048587  3.627557  0.063  -0.341359  -0.262515  0.060143  3.590274  0.072
Cl  Cl52  1  0.80838972  0.61775650  0.51000606  1  -0.520765  -0.079809  1.137519  -0.086  -0.493133  -0.056587  1.449262  -0.063  -0.521554  -0.047847  1.419755  -0.055  -0.288605  -0.474468  -0.060617  1.46883  -0.066
Cl  Cl53  1  0.80839658  0.11776493  0.48999183  1  -0.520781  0.079808  1.137515  0.086  -0.493141  0.056586  1.449246  0.063  -0.521568  0.047839  1.419754  0.055  -0.288612  -0.474477  0.060614  1.468813  0.066
