# generated using pymatgen
data_SmH14C6(ClO)3
_symmetry_space_group_name_H-M   'P 1'
_cell_length_a   8.25338156
_cell_length_b   8.58843361
_cell_length_c   16.32177682
_cell_angle_alpha   89.99994911
_cell_angle_beta   94.96955870
_cell_angle_gamma   90.00001380
_symmetry_Int_Tables_number   1
_chemical_formula_structural   SmH14C6(ClO)3
_chemical_formula_sum   'Sm4 H56 C24 Cl12 O12'
_cell_volume   1152.59749852
_cell_formula_units_Z   4
loop_
 _symmetry_equiv_pos_site_id
 _symmetry_equiv_pos_as_xyz
  1  'x, y, z'
loop_
 _atom_site_type_symbol
 _atom_site_label
 _atom_site_symmetry_multiplicity
 _atom_site_fract_x
 _atom_site_fract_y
 _atom_site_fract_z
 _atom_site_occupancy
 _atom_site_hle17_bader_spin_density
 _atom_site_hle17_ddec_charge
 _atom_site_hle17_ddec_spin_density
 _atom_site_hle17_ddec_sum_bond_order
 _atom_site_hle17_magmom
 _atom_site_hse06_10hf_bader_spin_density
 _atom_site_hse06_10hf_ddec_charge
 _atom_site_hse06_10hf_ddec_spin_density
 _atom_site_hse06_10hf_ddec_sum_bond_order
 _atom_site_hse06_10hf_magmom
 _atom_site_hse06_bader_spin_density
 _atom_site_hse06_ddec_charge
 _atom_site_hse06_ddec_spin_density
 _atom_site_hse06_ddec_sum_bond_order
 _atom_site_hse06_magmom
 _atom_site_pbe_bader_spin_density
 _atom_site_pbe_cm5_charge
 _atom_site_pbe_ddec_charge
 _atom_site_pbe_ddec_spin_density
 _atom_site_pbe_ddec_sum_bond_order
 _atom_site_pbe_magmom
Sm  Sm0  1  0.31282407  0.37113505  0.22432740  1  0  1.988288  0  1.846395  0  0  1.876818  0  2.232452  0  0  1.929736  0  2.17781  0  0  1.049194  1.835532  0  2.277277  0
Sm  Sm1  1  0.18717765  0.87113420  0.27567212  1  0  1.988308  0  1.846382  0  0  1.876848  0  2.232428  0  0  1.929766  0  2.177784  0  0  1.049199  1.835566  0  2.277246  0
Sm  Sm2  1  0.68717803  0.62886614  0.77567193  1  0  1.988276  0  1.846413  0  0  1.876802  0  2.23247  0  0  1.929724  0  2.177821  0  0  1.049193  1.835519  0  2.277288  0
Sm  Sm3  1  0.81282201  0.12886583  0.72432711  1  0  1.988258  0  1.846435  0  0  1.876808  0  2.232467  0  0  1.929726  0  2.177821  0  0  1.049189  1.835519  0  2.277294  0
H  H4  1  0.50371314  0.35251289  0.97066889  1  0  0.096021  0  0.951346  0  0  0.11199  0  1.01619  0  0  0.11319  0  1.015857  0  0  0.097464  0.111007  0  1.016559  0
H  H5  1  0.99628937  0.85251136  0.52933077  1  0  0.096025  0  0.951368  0  0  0.11199  0  1.016209  0  0  0.113189  0  1.015877  0  0  0.097477  0.111011  0  1.016582  0
H  H6  1  0.49628896  0.64748830  0.02933106  1  0  0.096038  0  0.951365  0  0  0.112007  0  1.016204  0  0  0.113206  0  1.015871  0  0  0.097475  0.111023  0  1.016573  0
H  H7  1  0.00371516  0.14748634  0.47066989  1  0  0.096026  0  0.951363  0  0  0.111988  0  1.016223  0  0  0.113187  0  1.015892  0  0  0.097474  0.111005  0  1.016591  0
H  H8  1  0.30482460  0.33865317  0.00802674  1  0  0.095129  0  0.993095  0  0  0.110164  0  1.06159  0  0  0.111114  0  1.06152  0  0  0.093539  0.109348  0  1.061815  0
H  H9  1  0.19517589  0.83865079  0.49197274  1  0  0.095091  0  0.99305  0  0  0.110126  0  1.061549  0  0  0.111077  0  1.061479  0  0  0.09352  0.10931  0  1.061775  0
H  H10  1  0.69517506  0.66134802  0.99197249  1  0  0.095106  0  0.993047  0  0  0.110144  0  1.061541  0  0  0.111095  0  1.06147  0  0  0.093527  0.109328  0  1.061766  0
H  H11  1  0.80482621  0.16134690  0.50802721  1  0  0.095055  0  0.993132  0  0  0.11013  0  1.061592  0  0  0.111084  0  1.061519  0  0  0.093514  0.109314  0  1.061818  0
H  H12  1  0.44440323  0.17858324  0.02254777  1  0  0.0789  0  0.934652  0  0  0.096909  0  0.999372  0  0  0.098301  0  0.99794  0  0  0.090517  0.095739  0  1.000601  0
H  H13  1  0.05559846  0.67858202  0.47745184  1  0  0.078923  0  0.934592  0  0  0.096927  0  0.999316  0  0  0.098319  0  0.997884  0  0  0.090529  0.095758  0  1.000546  0
H  H14  1  0.55559766  0.82141795  0.97745274  1  0  0.078913  0  0.934662  0  0  0.096922  0  0.999373  0  0  0.098313  0  0.997943  0  0  0.090528  0.095752  0  1.000603  0
H  H15  1  0.94440486  0.32141568  0.52254877  1  0  0.078907  0  0.934635  0  0  0.09691  0  0.999363  0  0  0.098303  0  0.997931  0  0  0.090517  0.09574  0  1.000592  0
H  H16  1  0.72795788  0.39555179  0.06565249  1  0  0.073237  0  0.928466  0  0  0.08993  0  0.988922  0  0  0.089887  0  0.989376  0  0  0.10639  0.089812  0  0.988857  0
H  H17  1  0.77204360  0.89555186  0.43434723  1  0  0.073171  0  0.928539  0  0  0.089892  0  0.988971  0  0  0.089849  0  0.989424  0  0  0.106386  0.089772  0  0.988906  0
H  H18  1  0.27204300  0.60444940  0.93434740  1  0  0.073183  0  0.928539  0  0  0.089881  0  0.988948  0  0  0.089837  0  0.989401  0  0  0.106385  0.089763  0  0.98888  0
H  H19  1  0.22795728  0.10444700  0.56565327  1  0  0.073231  0  0.928483  0  0  0.08993  0  0.988941  0  0  0.089887  0  0.989393  0  0  0.106402  0.089811  0  0.988875  0
H  H20  1  0.68033620  0.21854973  0.11643997  1  0  0.056452  0  0.934292  0  0  0.071218  0  0.998508  0  0  0.07191  0  0.997698  0  0  0.099214  0.07061  0  0.999249  0
H  H21  1  0.81966525  0.71854990  0.38356045  1  0  0.056462  0  0.934294  0  0  0.071227  0  0.998514  0  0  0.07192  0  0.997703  0  0  0.099208  0.070616  0  0.99926  0
H  H22  1  0.31966590  0.78145146  0.88355998  1  0  0.056447  0  0.934389  0  0  0.07119  0  0.998581  0  0  0.071885  0  0.997768  0  0  0.099216  0.070583  0  0.999321  0
H  H23  1  0.18033686  0.28144780  0.61644133  1  0  0.056469  0  0.934282  0  0  0.071229  0  0.998507  0  0  0.071921  0  0.997699  0  0  0.099229  0.070622  0  0.999247  0
H  H24  1  0.84722865  0.38451009  0.21103481  1  0  0.087296  0  0.952268  0  0  0.097717  0  1.019027  0  0  0.098123  0  1.019231  0  0  0.099354  0.097239  0  1.019209  0
H  H25  1  0.65277161  0.88450921  0.28896548  1  0  0.087289  0  0.952257  0  0  0.097717  0  1.019016  0  0  0.098124  0  1.01922  0  0  0.099356  0.097236  0  1.019202  0
H  H26  1  0.15277344  0.61549110  0.78896453  1  0  0.08729  0  0.952289  0  0  0.097684  0  1.019078  0  0  0.098091  0  1.019285  0  0  0.099352  0.097224  0  1.019243  0
H  H27  1  0.34722806  0.11548733  0.71103620  1  0  0.087311  0  0.952259  0  0  0.097726  0  1.019035  0  0  0.098131  0  1.019239  0  0  0.099379  0.097246  0  1.01922  0
H  H28  1  0.71047559  0.54557321  0.19374584  1  0  0.07549  0  0.927491  0  0  0.089052  0  0.988695  0  0  0.090061  0  0.987897  0  0  0.099498  0.088194  0  0.989513  0
H  H29  1  0.78952583  0.04557159  0.30625466  1  0  0.075481  0  0.927504  0  0  0.089046  0  0.98871  0  0  0.090057  0  0.987909  0  0  0.099493  0.088188  0  0.989527  0
H  H30  1  0.28952651  0.45442798  0.80625595  1  0  0.075502  0  0.927476  0  0  0.08906  0  0.988683  0  0  0.090074  0  0.987879  0  0  0.099493  0.088201  0  0.989502  0
H  H31  1  0.21047506  0.95442494  0.69374646  1  0  0.075495  0  0.927427  0  0  0.089058  0  0.988638  0  0  0.090068  0  0.987837  0  0  0.099504  0.0882  0  0.989456  0
H  H32  1  0.67139794  0.52547745  0.34662800  1  0  0.064798  0  0.929211  0  0  0.076171  0  0.998604  0  0  0.077506  0  0.996704  0  0  0.10423  0.075016  0  1.000247  0
H  H33  1  0.82860226  0.02547493  0.15337245  1  0  0.064807  0  0.929214  0  0  0.076207  0  0.998582  0  0  0.077544  0  0.996678  0  0  0.104242  0.075027  0  1.000251  0
H  H34  1  0.32860172  0.47452723  0.65337123  1  0  0.064806  0  0.929247  0  0  0.076229  0  0.998591  0  0  0.077582  0  0.996668  0  0  0.10426  0.075037  0  1.000273  0
H  H35  1  0.17139254  0.97452277  0.84662902  1  0  0.064828  0  0.929249  0  0  0.076204  0  0.998625  0  0  0.077539  0  0.996724  0  0  0.104235  0.075021  0  1.000297  0
H  H36  1  0.80955983  0.36337456  0.34893349  1  0  0.083487  0  0.917827  0  0  0.100982  0  0.975154  0  0  0.101124  0  0.975323  0  0  0.105468  0.100734  0  0.975237  0
H  H37  1  0.69043800  0.86337276  0.15106793  1  0  0.083502  0  0.917754  0  0  0.100976  0  0.975115  0  0  0.101118  0  0.975285  0  0  0.105452  0.10073  0  0.975194  0
H  H38  1  0.19043983  0.63662663  0.65106635  1  0  0.083473  0  0.917836  0  0  0.100967  0  0.975185  0  0  0.10111  0  0.975355  0  0  0.105455  0.10072  0  0.975262  0
H  H39  1  0.30955925  0.13662377  0.84893487  1  0  0.083477  0  0.917854  0  0  0.101011  0  0.975132  0  0  0.101154  0  0.975301  0  0  0.105468  0.100764  0  0.975212  0
H  H40  1  0.58744538  0.18602202  0.38973745  1  0  0.078551  0  0.923812  0  0  0.090743  0  0.988983  0  0  0.091869  0  0.98813  0  0  0.10504  0.089813  0  0.989762  0
H  H41  1  0.91255363  0.68602034  0.11026165  1  0  0.078532  0  0.923823  0  0  0.090721  0  0.989013  0  0  0.091848  0  0.98816  0  0  0.105041  0.089792  0  0.989792  0
H  H42  1  0.41255551  0.81397567  0.61026367  1  0  0.078574  0  0.923927  0  0  0.09075  0  0.989082  0  0  0.091876  0  0.988232  0  0  0.105055  0.08982  0  0.989861  0
H  H43  1  0.08744481  0.31397736  0.88973630  1  0  0.07854  0  0.923861  0  0  0.090727  0  0.989039  0  0  0.091842  0  0.988198  0  0  0.105041  0.089798  0  0.989817  0
H  H44  1  0.61681994  0.34476454  0.46021481  1  0  0.071218  0  0.926258  0  0  0.088756  0  0.98525  0  0  0.088524  0  0.985698  0  0  0.10917  0.088788  0  0.985077  0
H  H45  1  0.88317545  0.84476296  0.03978407  1  0  0.0712  0  0.926242  0  0  0.088741  0  0.985244  0  0  0.08851  0  0.985688  0  0  0.109162  0.088774  0  0.985071  0
H  H46  1  0.38317851  0.65523898  0.53978437  1  0  0.071192  0  0.926318  0  0  0.088696  0  0.985327  0  0  0.088487  0  0.98575  0  0  0.109143  0.088728  0  0.985154  0
H  H47  1  0.11681692  0.15523939  0.96021608  1  0  0.071222  0  0.926298  0  0  0.088755  0  0.985283  0  0  0.088525  0  0.985726  0  0  0.109151  0.088787  0  0.98511  0
H  H48  1  0.30965883  0.19499680  0.44965943  1  0  0.088467  0  0.967836  0  0  0.100664  0  1.042787  0  0  0.102101  0  1.041837  0  0  0.090644  0.099501  0  1.043661  0
H  H49  1  0.19034042  0.69499982  0.05033884  1  0  0.088346  0  0.968083  0  0  0.100583  0  1.042995  0  0  0.10202  0  1.042044  0  0  0.090579  0.09942  0  1.043869  0
H  H50  1  0.69034082  0.80499973  0.55033734  1  0  0.08841  0  0.967997  0  0  0.100625  0  1.042927  0  0  0.102063  0  1.041977  0  0  0.090617  0.099462  0  1.043802  0
H  H51  1  0.80965560  0.30500253  0.94966024  1  0  0.088436  0  0.967946  0  0  0.100639  0  1.042888  0  0  0.102076  0  1.041934  0  0  0.090627  0.099476  0  1.043761  0
H  H52  1  0.19325575  0.36954202  0.42566251  1  0  0.095835  0  0.971665  0  0  0.112964  0  1.035503  0  0  0.113682  0  1.035358  0  0  0.092739  0.112353  0  1.035701  0
H  H53  1  0.30674232  0.86954387  0.07433747  1  0  0.09582  0  0.971531  0  0  0.112922  0  1.035418  0  0  0.11364  0  1.035271  0  0  0.092713  0.112315  0  1.035604  0
H  H54  1  0.80674513  0.63045451  0.57433555  1  0  0.09586  0  0.971558  0  0  0.112967  0  1.035426  0  0  0.113686  0  1.035281  0  0  0.092741  0.11236  0  1.035611  0
H  H55  1  0.69325126  0.13045616  0.92566211  1  0  0.095858  0  0.971546  0  0  0.112976  0  1.035399  0  0  0.113695  0  1.035251  0  0  0.092741  0.112362  0  1.035603  0
H  H56  1  0.36862868  0.37498069  0.49980366  1  0  0.077547  0  0.940696  0  0  0.096713  0  1.005058  0  0  0.097459  0  1.004497  0  0  0.092866  0.096058  0  1.005596  0
H  H57  1  0.13137061  0.87498262  0.00019637  1  0  0.077523  0  0.940689  0  0  0.096702  0  1.005037  0  0  0.09744  0  1.004483  0  0  0.092852  0.096047  0  1.005576  0
H  H58  1  0.63136855  0.62501584  0.50019486  1  0  0.077578  0  0.940621  0  0  0.096748  0  1.004976  0  0  0.097492  0  1.004416  0  0  0.092859  0.096092  0  1.005516  0
H  H59  1  0.86862784  0.12501857  0.99980403  1  0  0.077517  0  0.94075  0  0  0.096734  0  1.005053  0  0  0.09745  0  1.004523  0  0  0.092851  0.096078  0  1.005593  0
C  C60  1  0.43286369  0.30641097  0.01930453  1  0  -0.091633  0  3.625404  0  0  -0.183866  0  3.886603  0  0  -0.178722  0  3.891338  0  0  -0.152005  -0.187112  0  3.883254  0
C  C61  1  0.06713437  0.80640975  0.48069548  1  0  -0.091624  0  3.625332  0  0  -0.183828  0  3.886518  0  0  -0.178684  0  3.891252  0  0  -0.151993  -0.187083  0  3.883176  0
C  C62  1  0.56713476  0.69359022  0.98069526  1  0  -0.091679  0  3.625418  0  0  -0.183891  0  3.886626  0  0  -0.178747  0  3.891361  0  0  -0.152006  -0.187139  0  3.88328  0
C  C63  1  0.93286773  0.19358911  0.51930508  1  0  -0.091583  0  3.625423  0  0  -0.183815  0  3.88655  0  0  -0.178675  0  3.891288  0  0  -0.151975  -0.187061  0  3.883199  0
C  C64  1  0.66037678  0.34546228  0.11457850  1  0  0.065433  0  3.631257  0  0  0.006768  0  3.895768  0  0  0.013169  0  3.902074  0  0  -0.071833  0.002474  0  3.891328  0
C  C65  1  0.83962469  0.84546245  0.38542186  1  0  0.065485  0  3.631339  0  0  0.006817  0  3.895854  0  0  0.013217  0  3.902164  0  0  -0.071797  0.002521  0  3.89142  0
C  C66  1  0.33962410  0.65454124  0.88542140  1  0  0.065441  0  3.631357  0  0  0.006913  0  3.895658  0  0  0.013317  0  3.901964  0  0  -0.071829  0.002615  0  3.891228  0
C  C67  1  0.16037863  0.15453642  0.61457997  1  0  0.065441  0  3.631272  0  0  0.006772  0  3.895818  0  0  0.01317  0  3.902129  0  0  -0.071838  0.002475  0  3.891383  0
C  C68  1  0.71979610  0.41773151  0.19523871  1  0  0.050643  0  3.61391  0  0  -0.007077  0  3.878009  0  0  -0.000646  0  3.88308  0  0  -0.076371  -0.01145  0  3.874639  0
C  C69  1  0.78020538  0.91773063  0.30476161  1  0  0.050678  0  3.61389  0  0  -0.007068  0  3.878026  0  0  -0.00064  0  3.883104  0  0  -0.076356  -0.011442  0  3.874655  0
C  C70  1  0.28020478  0.58226968  0.80476118  1  0  0.050662  0  3.613927  0  0  -0.007103  0  3.878004  0  0  -0.000667  0  3.883089  0  0  -0.076354  -0.011492  0  3.874626  0
C  C71  1  0.21979551  0.08226706  0.69524012  1  0  0.050625  0  3.613907  0  0  -0.007098  0  3.878048  0  0  -0.000666  0  3.883113  0  0  -0.076395  -0.011472  0  3.874676  0
C  C72  1  0.68098775  0.39838210  0.33874737  1  0  0.059153  0  3.634308  0  0  -0.004477  0  3.910779  0  0  0.002407  0  3.915378  0  0  -0.06988  -0.00907  0  3.90749  0
C  C73  1  0.81901130  0.89838031  0.16125286  1  0  0.05915  0  3.634152  0  0  -0.004498  0  3.910662  0  0  0.002386  0  3.915263  0  0  -0.069871  -0.009072  0  3.907373  0
C  C74  1  0.31901070  0.60161559  0.66125303  1  0  0.059272  0  3.634005  0  0  -0.004445  0  3.910477  0  0  0.002436  0  3.915091  0  0  -0.069847  -0.009013  0  3.907188  0
C  C75  1  0.18098594  0.10161506  0.83874749  1  0  0.059143  0  3.634227  0  0  -0.004505  0  3.910643  0  0  0.002373  0  3.915243  0  0  -0.069844  -0.00908  0  3.907352  0
C  C76  1  0.57894814  0.31346551  0.39598729  1  0  0.050544  0  3.634624  0  0  -0.008745  0  3.903604  0  0  -0.002334  0  3.909105  0  0  -0.070657  -0.012996  0  3.899668  0
C  C77  1  0.92105089  0.81346501  0.10401175  1  0  0.05062  0  3.634477  0  0  -0.008689  0  3.903496  0  0  -0.002276  0  3.908995  0  0  -0.070624  -0.01294  0  3.899555  0
C  C78  1  0.42106125  0.68654034  0.60401296  1  0  0.050463  0  3.634782  0  0  -0.008744  0  3.903701  0  0  -0.002353  0  3.909207  0  0  -0.070664  -0.012992  0  3.899754  0
C  C79  1  0.07894756  0.18653618  0.89598804  1  0  0.050527  0  3.634622  0  0  -0.008755  0  3.903574  0  0  -0.002332  0  3.909071  0  0  -0.070634  -0.013005  0  3.89963  0
C  C80  1  0.31431808  0.32203860  0.44242624  1  0  -0.079476  0  3.631507  0  0  -0.177064  0  3.898419  0  0  -0.171284  0  3.902776  0  0  -0.150435  -0.180821  0  3.895391  0
C  C81  1  0.18567876  0.82203229  0.05757125  1  0  -0.079308  0  3.631466  0  0  -0.176925  0  3.898322  0  0  -0.171137  0  3.902686  0  0  -0.150325  -0.18068  0  3.895297  0
C  C82  1  0.68568035  0.67796608  0.55757048  1  0  -0.079491  0  3.631418  0  0  -0.177093  0  3.898317  0  0  -0.171313  0  3.902678  0  0  -0.150398  -0.180849  0  3.895293  0
C  C83  1  0.81431848  0.17796890  0.94242849  1  0  -0.079508  0  3.631502  0  0  -0.177131  0  3.898414  0  0  -0.171328  0  3.902788  0  0  -0.150429  -0.180888  0  3.895384  0
Cl  Cl84  1  0.42279425  0.67548859  0.21225513  1  0  -0.702765  0  0.996859  0  0  -0.675548  0  1.268061  0  0  -0.689745  0  1.246832  0  0  -0.322532  -0.664262  0  1.283702  0
Cl  Cl85  1  0.07720865  0.17548928  0.28774392  1  0  -0.70277  0  0.996858  0  0  -0.67554  0  1.268039  0  0  -0.689738  0  1.24681  0  0  -0.322539  -0.664253  0  1.283679  0
Cl  Cl86  1  0.57720784  0.32451144  0.78774359  1  0  -0.702752  0  0.996863  0  0  -0.675535  0  1.26806  0  0  -0.689733  0  1.246831  0  0  -0.322532  -0.664246  0  1.283697  0
Cl  Cl87  1  0.92279101  0.82451075  0.71225470  1  0  -0.702763  0  0.99687  0  0  -0.675537  0  1.268049  0  0  -0.689735  0  1.246822  0  0  -0.322541  -0.66425  0  1.283692  0
Cl  Cl88  1  0.09974213  0.56663626  0.30590357  1  0  -0.70615  0  0.987112  0  0  -0.678951  0  1.251744  0  0  -0.693772  0  1.231813  0  0  -0.330482  -0.667224  0  1.266421  0
Cl  Cl89  1  0.40026075  0.06663602  0.19409676  1  0  -0.706142  0  0.987103  0  0  -0.678932  0  1.251721  0  0  -0.693753  0  1.231791  0  0  -0.330474  -0.667207  0  1.266398  0
Cl  Cl90  1  0.90025996  0.43336377  0.69409638  1  0  -0.706136  0  0.987113  0  0  -0.678924  0  1.251719  0  0  -0.693744  0  1.231788  0  0  -0.330477  -0.667198  0  1.2664  0
Cl  Cl91  1  0.59974134  0.93336401  0.80590319  1  0  -0.706136  0  0.987129  0  0  -0.678939  0  1.25176  0  0  -0.69376  0  1.231828  0  0  -0.330475  -0.667211  0  1.266437  0
Cl  Cl92  1  0.08841996  0.40080526  0.09985189  1  0  -0.669136  0  0.818487  0  0  -0.635328  0  1.060319  0  0  -0.650293  0  1.042254  0  0  -0.361719  -0.623848  0  1.07362  0
Cl  Cl93  1  0.41158176  0.90080542  0.40014700  1  0  -0.669139  0  0.818493  0  0  -0.635347  0  1.060337  0  0  -0.650312  0  1.042276  0  0  -0.361725  -0.62386  0  1.073624  0
Cl  Cl94  1  0.91158091  0.59919476  0.90014678  1  0  -0.669119  0  0.818488  0  0  -0.635322  0  1.060332  0  0  -0.650287  0  1.042266  0  0  -0.361717  -0.623843  0  1.073634  0
Cl  Cl95  1  0.58841912  0.09919577  0.59985228  1  0  -0.669114  0  0.818474  0  0  -0.635328  0  1.060321  0  0  -0.650294  0  1.042257  0  0  -0.361716  -0.623843  0  1.073613  0
O  O96  1  0.48881277  0.37436044  0.09733131  1  0  -0.350501  0  2.385638  0  0  -0.269227  0  2.63861  0  0  -0.28824  0  2.643629  0  0  -0.2705  -0.2555  0  2.634693  0
O  O97  1  0.01119016  0.87435934  0.40266887  1  0  -0.350519  0  2.385764  0  0  -0.269273  0  2.638776  0  0  -0.288284  0  2.643791  0  0  -0.270547  -0.255547  0  2.634862  0
O  O98  1  0.51118933  0.62564191  0.90266925  1  0  -0.350467  0  2.385652  0  0  -0.269282  0  2.638631  0  0  -0.288295  0  2.643647  0  0  -0.270538  -0.255555  0  2.634715  0
O  O99  1  0.98881193  0.12563952  0.59733169  1  0  -0.350491  0  2.385629  0  0  -0.269247  0  2.638647  0  0  -0.288259  0  2.643667  0  0  -0.270527  -0.25552  0  2.634732  0
O  O100  1  0.61956120  0.35805467  0.25639057  1  0  -0.376509  0  2.381369  0  0  -0.298921  0  2.635074  0  0  -0.317924  0  2.638524  0  0  -0.277918  -0.285231  0  2.63231  0
O  O101  1  0.88044027  0.85805392  0.24360978  1  0  -0.37656  0  2.381348  0  0  -0.298949  0  2.635057  0  0  -0.317955  0  2.638509  0  0  -0.27795  -0.285257  0  2.632284  0
O  O102  1  0.38044211  0.64194535  0.74360881  1  0  -0.376591  0  2.381295  0  0  -0.298928  0  2.634979  0  0  -0.317969  0  2.638453  0  0  -0.277943  -0.285233  0  2.632206  0
O  O103  1  0.11956061  0.14194377  0.75639134  1  0  -0.376521  0  2.381331  0  0  -0.298936  0  2.63503  0  0  -0.317929  0  2.638474  0  0  -0.277946  -0.285238  0  2.632252  0
O  O104  1  0.41231412  0.36064291  0.37645917  1  0  -0.360321  0  2.389466  0  0  -0.278362  0  2.647582  0  0  -0.297211  0  2.650734  0  0  -0.280994  -0.264713  0  2.644987  0
O  O105  1  0.08768638  0.86064229  0.12354030  1  0  -0.360335  0  2.389275  0  0  -0.278371  0  2.647405  0  0  -0.29722  0  2.650551  0  0  -0.281006  -0.264721  0  2.644808  0
O  O106  1  0.58768798  0.63935711  0.62354016  1  0  -0.360258  0  2.389446  0  0  -0.278312  0  2.647544  0  0  -0.297161  0  2.650701  0  0  -0.280994  -0.264664  0  2.644946  0
O  O107  1  0.91231085  0.13935773  0.87645943  1  0  -0.360258  0  2.38933  0  0  -0.278324  0  2.647462  0  0  -0.29717  0  2.650598  0  0  -0.281005  -0.264672  0  2.644864  0
