# generated using pymatgen
data_MgH20C14S2(NO5)2
_symmetry_space_group_name_H-M   'P 1'
_cell_length_a   6.26572362
_cell_length_b   11.49386017
_cell_length_c   13.02135870
_cell_angle_alpha   90.00024180
_cell_angle_beta   89.99994240
_cell_angle_gamma   93.27152623
_symmetry_Int_Tables_number   1
_chemical_formula_structural   MgH20C14S2(NO5)2
_chemical_formula_sum   'Mg2 H40 C28 S4 N4 O20'
_cell_volume   936.23548844
_cell_formula_units_Z   2
loop_
 _symmetry_equiv_pos_site_id
 _symmetry_equiv_pos_as_xyz
  1  'x, y, z'
loop_
 _atom_site_type_symbol
 _atom_site_label
 _atom_site_symmetry_multiplicity
 _atom_site_fract_x
 _atom_site_fract_y
 _atom_site_fract_z
 _atom_site_occupancy
 _atom_site_hle17_bader_spin_density
 _atom_site_hle17_ddec_charge
 _atom_site_hle17_ddec_spin_density
 _atom_site_hle17_ddec_sum_bond_order
 _atom_site_hle17_magmom
 _atom_site_hse06_10hf_bader_spin_density
 _atom_site_hse06_10hf_ddec_charge
 _atom_site_hse06_10hf_ddec_spin_density
 _atom_site_hse06_10hf_ddec_sum_bond_order
 _atom_site_hse06_10hf_magmom
 _atom_site_hse06_bader_spin_density
 _atom_site_hse06_ddec_charge
 _atom_site_hse06_ddec_spin_density
 _atom_site_hse06_ddec_sum_bond_order
 _atom_site_hse06_magmom
 _atom_site_pbe_bader_spin_density
 _atom_site_pbe_cm5_charge
 _atom_site_pbe_ddec_charge
 _atom_site_pbe_ddec_spin_density
 _atom_site_pbe_ddec_sum_bond_order
 _atom_site_pbe_magmom
Mg  Mg0  1  0.50000086  0.49999975  0.00000157  1  0  1.518493  0  1.078994  0  0  1.416203  0  1.325464  0  0  1.437743  0  1.291306  0  0  0.797074  1.400888  0  1.349464  0
Mg  Mg1  1  0.00000058  0.99999723  0.50000113  1  0  1.518512  0  1.078964  0  0  1.416245  0  1.325392  0  0  1.437784  0  1.291236  0  0  0.797073  1.400934  0  1.349394  0
H  H2  1  0.45088043  0.27188473  0.17271124  1  0  0.126142  0  0.945173  0  0  0.138613  0  0.999371  0  0  0.142284  0  0.997415  0  0  0.113321  0.135966  0  1.000819  0
H  H3  1  0.04912786  0.22811791  0.67270364  1  0  0.126106  0  0.945256  0  0  0.138573  0  0.99946  0  0  0.142242  0  0.997505  0  0  0.113299  0.135931  0  1.000903  0
H  H4  1  0.54912833  0.72811542  0.82728815  1  0  0.126183  0  0.945143  0  0  0.138676  0  0.999314  0  0  0.142349  0  0.997356  0  0  0.113324  0.136031  0  1.00076  0
H  H5  1  0.95086947  0.77187962  0.32728654  1  0  0.126145  0  0.945174  0  0  0.138623  0  0.99937  0  0  0.142291  0  0.997416  0  0  0.113306  0.135977  0  1.000818  0
H  H6  1  0.07907224  0.03040597  0.23742226  1  0  0.314974  0  0.880291  0  0  0.304409  0  0.934327  0  0  0.309577  0  0.931063  0  0  0.306764  0.3007  0  0.936886  0
H  H7  1  0.42092779  0.46959524  0.73742074  1  0  0.315046  0  0.880163  0  0  0.304436  0  0.934292  0  0  0.309603  0  0.931031  0  0  0.306799  0.300728  0  0.936849  0
H  H8  1  0.92092562  0.96959679  0.76258020  1  0  0.315061  0  0.880138  0  0  0.304452  0  0.934256  0  0  0.309619  0  0.930994  0  0  0.306796  0.300744  0  0.936815  0
H  H9  1  0.57906457  0.53040054  0.26257558  1  0  0.315067  0  0.880071  0  0  0.304428  0  0.934261  0  0  0.309593  0  0.931005  0  0  0.306777  0.30072  0  0.93682  0
H  H10  1  0.10654075  0.17330986  0.20967657  1  0  0.314487  0  0.924886  0  0  0.300302  0  0.984274  0  0  0.306387  0  0.979791  0  0  0.294392  0.295895  0  0.987709  0
H  H11  1  0.39346447  0.32669471  0.70967683  1  0  0.314481  0  0.92491  0  0  0.300299  0  0.984297  0  0  0.306387  0  0.97981  0  0  0.294392  0.295894  0  0.987732  0
H  H12  1  0.89346509  0.82669291  0.79032666  1  0  0.314486  0  0.924879  0  0  0.300286  0  0.984288  0  0  0.306372  0  0.979803  0  0  0.29435  0.29588  0  0.987722  0
H  H13  1  0.60652824  0.67330456  0.29032717  1  0  0.314497  0  0.924827  0  0  0.300312  0  0.984232  0  0  0.306391  0  0.979754  0  0  0.294361  0.295904  0  0.987668  0
H  H14  1  0.34956280  0.89837650  0.18278281  1  0  0.114818  0  0.928743  0  0  0.126168  0  0.985468  0  0  0.129867  0  0.983132  0  0  0.106554  0.123521  0  0.987224  0
H  H15  1  0.15044378  0.60162746  0.68278389  1  0  0.114863  0  0.928735  0  0  0.126231  0  0.985442  0  0  0.129934  0  0.9831  0  0  0.106547  0.123584  0  0.9872  0
H  H16  1  0.65044756  0.10162365  0.81721582  1  0  0.114811  0  0.928797  0  0  0.126146  0  0.98553  0  0  0.129846  0  0.983192  0  0  0.106559  0.123501  0  0.987284  0
H  H17  1  0.84954867  0.39836920  0.31722088  1  0  0.114857  0  0.928678  0  0  0.126237  0  0.985373  0  0  0.12994  0  0.98303  0  0  0.106561  0.12359  0  0.987128  0
H  H18  1  0.06951823  0.12909162  0.01095300  1  0  0.08752  0  0.988638  0  0  0.096831  0  1.054675  0  0  0.099787  0  1.052677  0  0  0.097878  0.094764  0  1.056116  0
H  H19  1  0.43047168  0.37091547  0.51096723  1  0  0.087481  0  0.988645  0  0  0.096794  0  1.054679  0  0  0.099748  0  1.052681  0  0  0.097876  0.094727  0  1.056123  0
H  H20  1  0.93047857  0.87091637  0.98903181  1  0  0.087432  0  0.988717  0  0  0.096826  0  1.054669  0  0  0.099781  0  1.052669  0  0  0.097849  0.094753  0  1.056122  0
H  H21  1  0.56951181  0.62908727  0.48903754  1  0  0.087438  0  0.988744  0  0  0.096849  0  1.054663  0  0  0.099801  0  1.052666  0  0  0.097843  0.094779  0  1.056113  0
H  H22  1  0.68492244  0.87793203  0.09215159  1  0  0.101767  0  0.952552  0  0  0.113982  0  1.009881  0  0  0.117129  0  1.008001  0  0  0.103039  0.111732  0  1.011398  0
H  H23  1  0.81508006  0.62207321  0.59215497  1  0  0.10166  0  0.952616  0  0  0.113894  0  1.009929  0  0  0.11704  0  1.008049  0  0  0.103006  0.111644  0  1.011447  0
H  H24  1  0.31508144  0.12206725  0.90784704  1  0  0.101685  0  0.952632  0  0  0.11395  0  1.009896  0  0  0.117097  0  1.008017  0  0  0.10303  0.111697  0  1.011419  0
H  H25  1  0.18491443  0.37792780  0.40785056  1  0  0.101709  0  0.952697  0  0  0.11399  0  1.009943  0  0  0.117137  0  1.008065  0  0  0.103069  0.111739  0  1.011461  0
H  H26  1  0.80817007  0.66808338  0.03811303  1  0  0.419357  0  0.884695  0  0  0.386532  0  0.952488  0  0  0.396456  0  0.937701  0  0  0.294753  0.379567  0  0.962859  0
H  H27  1  0.69183545  0.83191900  0.53811264  1  0  0.419393  0  0.884651  0  0  0.386574  0  0.952434  0  0  0.396496  0  0.937649  0  0  0.294782  0.379608  0  0.962805  0
H  H28  1  0.19183480  0.33192549  0.96189020  1  0  0.419334  0  0.884731  0  0  0.386507  0  0.952537  0  0  0.396427  0  0.937758  0  0  0.294734  0.379541  0  0.962908  0
H  H29  1  0.30816818  0.16807766  0.46189059  1  0  0.419375  0  0.884666  0  0  0.386567  0  0.952434  0  0  0.396492  0  0.937646  0  0  0.294767  0.3796  0  0.962806  0
H  H30  1  0.67688425  0.63353062  0.13643530  1  0  0.398024  0  0.918257  0  0  0.363725  0  0.987694  0  0  0.374264  0  0.972911  0  0  0.2856  0.356557  0  0.997682  0
H  H31  1  0.82311748  0.86646787  0.63643728  1  0  0.398015  0  0.918259  0  0  0.363707  0  0.987717  0  0  0.374245  0  0.972936  0  0  0.285597  0.356541  0  0.997702  0
H  H32  1  0.32312283  0.36646866  0.86356793  1  0  0.397997  0  0.918309  0  0  0.363732  0  0.987682  0  0  0.374273  0  0.972894  0  0  0.285635  0.356565  0  0.997672  0
H  H33  1  0.17688340  0.13353315  0.36356825  1  0  0.398082  0  0.918204  0  0  0.363777  0  0.987623  0  0  0.374315  0  0.972842  0  0  0.285645  0.356609  0  0.997611  0
H  H34  1  0.79367737  0.42001392  0.88841862  1  0  0.434539  0  0.857907  0  0  0.405433  0  0.916974  0  0  0.415286  0  0.902593  0  0  0.304994  0.398495  0  0.927093  0
H  H35  1  0.70632444  0.07998798  0.38841643  1  0  0.434537  0  0.857904  0  0  0.405432  0  0.916972  0  0  0.415288  0  0.902587  0  0  0.304979  0.398493  0  0.927091  0
H  H36  1  0.20632103  0.57999406  0.11158692  1  0  0.434505  0  0.857933  0  0  0.405394  0  0.917005  0  0  0.415247  0  0.902625  0  0  0.30497  0.398453  0  0.927127  0
H  H37  1  0.29368060  0.92000694  0.61158373  1  0  0.43447  0  0.857994  0  0  0.40536  0  0.917065  0  0  0.415214  0  0.902684  0  0  0.304959  0.398422  0  0.927184  0
H  H38  1  0.81111433  0.55550255  0.86289618  1  0  0.435556  0  0.860162  0  0  0.402808  0  0.926382  0  0  0.412788  0  0.911784  0  0  0.300362  0.395795  0  0.93664  0
H  H39  1  0.68888413  0.94449963  0.36289381  1  0  0.435493  0  0.860237  0  0  0.402777  0  0.926407  0  0  0.412749  0  0.911821  0  0  0.300358  0.395775  0  0.936656  0
H  H40  1  0.18888398  0.44450457  0.13710935  1  0  0.435495  0  0.86024  0  0  0.402757  0  0.926434  0  0  0.412737  0  0.911838  0  0  0.300361  0.395737  0  0.936695  0
H  H41  1  0.31111949  0.05549703  0.63710712  1  0  0.435557  0  0.860175  0  0  0.402826  0  0.926357  0  0  0.412809  0  0.911757  0  0  0.300402  0.395823  0  0.936607  0
C  C42  1  0.69312399  0.17319146  0.10258852  1  0  -0.158193  0  3.724711  0  0  -0.138568  0  3.978849  0  0  -0.144415  0  4.000112  0  0  -0.020498  -0.134477  0  3.964831  0
C  C43  1  0.80687540  0.32681257  0.60259574  1  0  -0.158112  0  3.724577  0  0  -0.138469  0  3.978761  0  0  -0.144322  0  4.000028  0  0  -0.020453  -0.134377  0  3.96474  0
C  C44  1  0.30687661  0.82680694  0.89740089  1  0  -0.157932  0  3.724355  0  0  -0.138295  0  3.978525  0  0  -0.144137  0  3.999785  0  0  -0.020427  -0.134204  0  3.964503  0
C  C45  1  0.19311705  0.67318409  0.39740443  1  0  -0.157747  0  3.724288  0  0  -0.13814  0  3.978572  0  0  -0.143951  0  3.999784  0  0  -0.020377  -0.134131  0  3.96466  0
C  C46  1  0.37458509  0.08699521  0.18466436  1  0  0.303388  0  3.800949  0  0  0.298564  0  4.056366  0  0  0.306086  0  4.077542  0  0  0.09476  0.293115  0  4.041771  0
C  C47  1  0.12542496  0.41300924  0.68466508  1  0  0.303189  0  3.801215  0  0  0.298421  0  4.056566  0  0  0.30594  0  4.077744  0  0  0.094711  0.292975  0  4.041965  0
C  C48  1  0.62542226  0.91300669  0.81533043  1  0  0.303294  0  3.801034  0  0  0.298534  0  4.056359  0  0  0.306054  0  4.077538  0  0  0.094739  0.293086  0  4.041763  0
C  C49  1  0.87457042  0.58698480  0.31533585  1  0  0.303191  0  3.80096  0  0  0.298465  0  4.056278  0  0  0.305983  0  4.07746  0  0  0.094817  0.29302  0  4.041674  0
C  C50  1  0.50257188  0.18526360  0.15555541  1  0  -0.165734  0  3.708072  0  0  -0.198974  0  3.961978  0  0  -0.201455  0  3.980623  0  0  -0.096163  -0.196906  0  3.949069  0
C  C51  1  0.99744021  0.31474069  0.65555327  1  0  -0.16569  0  3.708094  0  0  -0.198954  0  3.962017  0  0  -0.201426  0  3.98066  0  0  -0.09619  -0.196887  0  3.949108  0
C  C52  1  0.49743538  0.81473742  0.84443861  1  0  -0.165879  0  3.707884  0  0  -0.199163  0  3.961815  0  0  -0.201647  0  3.980461  0  0  -0.096217  -0.197094  0  3.948907  0
C  C53  1  0.00255561  0.68525772  0.34444382  1  0  -0.165859  0  3.70786  0  0  -0.199123  0  3.96181  0  0  -0.201608  0  3.980439  0  0  -0.096243  -0.19703  0  3.948922  0
C  C54  1  0.44626465  0.97643373  0.16133432  1  0  -0.146577  0  3.70664  0  0  -0.171286  0  3.968064  0  0  -0.174049  0  3.98627  0  0  -0.090859  -0.169423  0  3.956275  0
C  C55  1  0.05374196  0.52357013  0.66133440  1  0  -0.146585  0  3.706665  0  0  -0.17132  0  3.968054  0  0  -0.174082  0  3.986256  0  0  -0.090846  -0.169454  0  3.95626  0
C  C56  1  0.55373950  0.02356817  0.83865970  1  0  -0.146487  0  3.706777  0  0  -0.171198  0  3.9682  0  0  -0.173959  0  3.986404  0  0  -0.090858  -0.169336  0  3.956411  0
C  C57  1  0.94625670  0.47642478  0.33867037  1  0  -0.146532  0  3.706455  0  0  -0.171284  0  3.967868  0  0  -0.174049  0  3.986073  0  0  -0.090897  -0.16942  0  3.956077  0
C  C58  1  0.76834955  0.06274992  0.07677071  1  0  0.064602  0  3.816786  0  0  0.071823  0  4.056145  0  0  0.072714  0  4.081211  0  0  -0.017617  0.070958  0  4.040636  0
C  C59  1  0.73164988  0.43725398  0.57677223  1  0  0.064587  0  3.816808  0  0  0.071705  0  4.056309  0  0  0.072595  0  4.081379  0  0  -0.017576  0.070843  0  4.040795  0
C  C60  1  0.23165593  0.93724936  0.92322638  1  0  0.06457  0  3.816715  0  0  0.07174  0  4.056172  0  0  0.072626  0  4.081238  0  0  -0.017543  0.070878  0  4.040659  0
C  C61  1  0.26833343  0.56274702  0.42323100  1  0  0.064649  0  3.81678  0  0  0.071689  0  4.056455  0  0  0.072567  0  4.081513  0  0  -0.017516  0.07085  0  4.040955  0
C  C62  1  0.96688514  0.05014972  0.02033951  1  0  -0.117556  0  3.760964  0  0  -0.142956  0  4.027208  0  0  -0.144346  0  4.047311  0  0  -0.10117  -0.142382  0  4.014596  0
C  C63  1  0.53311279  0.44985392  0.52034041  1  0  -0.117448  0  3.760652  0  0  -0.142806  0  4.02689  0  0  -0.144192  0  4.046996  0  0  -0.101173  -0.142236  0  4.014284  0
C  C64  1  0.03311920  0.94985392  0.97965604  1  0  -0.117397  0  3.760964  0  0  -0.142853  0  4.027175  0  0  -0.144244  0  4.047298  0  0  -0.101137  -0.142282  0  4.014565  0
C  C65  1  0.46687079  0.55014970  0.47965745  1  0  -0.117504  0  3.760935  0  0  -0.142918  0  4.027174  0  0  -0.144306  0  4.047288  0  0  -0.101138  -0.142345  0  4.014562  0
C  C66  1  0.63738818  0.96556540  0.10943798  1  0  -0.076277  0  3.700878  0  0  -0.094798  0  3.950899  0  0  -0.096196  0  3.970524  0  0  -0.082877  -0.094386  0  3.938776  0
C  C67  1  0.86260774  0.53443818  0.60944562  1  0  -0.076194  0  3.700996  0  0  -0.094696  0  3.951039  0  0  -0.096092  0  3.970667  0  0  -0.082892  -0.094286  0  3.938914  0
C  C68  1  0.36261562  0.03443301  0.89055374  1  0  -0.076323  0  3.701117  0  0  -0.094866  0  3.951159  0  0  -0.096265  0  3.970792  0  0  -0.082972  -0.094453  0  3.939032  0
C  C69  1  0.13738170  0.46556021  0.39056145  1  0  -0.07631  0  3.701015  0  0  -0.094824  0  3.951106  0  0  -0.096225  0  3.970743  0  0  -0.082984  -0.094412  0  3.938976  0
S  S70  1  0.83831793  0.30563114  0.07101675  1  0  1.333179  0  5.565986  0  0  1.226767  0  6.086568  0  0  1.274453  0  6.061514  0  0  0.536335  1.194051  0  6.102707  0
S  S71  1  0.66168444  0.19437013  0.57101818  1  0  1.3332  0  5.565701  0  0  1.226824  0  6.08626  0  0  1.274529  0  6.061199  0  0  0.53638  1.194109  0  6.102397  0
S  S72  1  0.16168321  0.69437249  0.92898341  1  0  1.332924  0  5.566087  0  0  1.226498  0  6.086683  0  0  1.274187  0  6.061633  0  0  0.536289  1.193785  0  6.102812  0
S  S73  1  0.33831111  0.80562566  0.42898198  1  0  1.332843  0  5.565961  0  0  1.226496  0  6.086538  0  0  1.274152  0  6.061489  0  0  0.536342  1.193806  0  6.102679  0
N  N74  1  0.18198892  0.10229077  0.23642785  1  0  -0.65291  0  3.118596  0  0  -0.605176  0  3.330981  0  0  -0.623915  0  3.331059  0  0  -0.586084  -0.591465  0  3.330999  0
N  N75  1  0.31801617  0.39771305  0.73642611  1  0  -0.652887  0  3.118796  0  0  -0.605157  0  3.331217  0  0  -0.623896  0  3.33129  0  0  -0.586104  -0.591458  0  3.331251  0
N  N76  1  0.81801683  0.89771113  0.76357001  1  0  -0.65292  0  3.118673  0  0  -0.60516  0  3.331131  0  0  -0.6239  0  3.331214  0  0  -0.586003  -0.591448  0  3.331141  0
N  N77  1  0.68197956  0.60228448  0.26357328  1  0  -0.652979  0  3.11859  0  0  -0.605218  0  3.331069  0  0  -0.623961  0  3.331158  0  0  -0.586103  -0.591521  0  3.331104  0
O  O78  1  0.69700976  0.40067105  0.09335872  1  0  -0.745959  0  2.051027  0  0  -0.686669  0  2.31575  0  0  -0.706403  0  2.299298  0  0  -0.359722  -0.672866  0  2.326668  0
O  O79  1  0.80299586  0.09933120  0.59335742  1  0  -0.745956  0  2.050998  0  0  -0.686673  0  2.315697  0  0  -0.706404  0  2.299235  0  0  -0.359722  -0.67287  0  2.326618  0
O  O80  1  0.30298287  0.59932735  0.90664759  1  0  -0.745833  0  2.050971  0  0  -0.686567  0  2.315726  0  0  -0.7063  0  2.299276  0  0  -0.359666  -0.672763  0  2.326641  0
O  O81  1  0.19701131  0.90066896  0.40664274  1  0  -0.745868  0  2.051077  0  0  -0.686581  0  2.315767  0  0  -0.70632  0  2.299331  0  0  -0.359692  -0.672776  0  2.326677  0
O  O82  1  0.89937195  0.30250984  0.96124564  1  0  -0.676867  0  1.959662  0  0  -0.613599  0  2.189806  0  0  -0.634874  0  2.174296  0  0  -0.327154  -0.598557  0  2.199921  0
O  O83  1  0.60063995  0.19749853  0.46124240  1  0  -0.676902  0  1.959409  0  0  -0.613675  0  2.189554  0  0  -0.63496  0  2.174044  0  0  -0.327191  -0.598628  0  2.199667  0
O  O84  1  0.10064153  0.69750514  0.03875682  1  0  -0.676888  0  1.959648  0  0  -0.613583  0  2.189759  0  0  -0.63486  0  2.17425  0  0  -0.327209  -0.598538  0  2.19987  0
O  O85  1  0.39935525  0.80249377  0.53875853  1  0  -0.676909  0  1.959486  0  0  -0.613624  0  2.189583  0  0  -0.634905  0  2.174085  0  0  -0.32724  -0.598578  0  2.199691  0
O  O86  1  0.66024343  0.64792862  0.05999554  1  0  -0.895854  0  1.868155  0  0  -0.842134  0  2.052237  0  0  -0.860031  0  2.021794  0  0  -0.622354  -0.829445  0  2.073145  0
O  O87  1  0.83976010  0.85207037  0.55999592  1  0  -0.895884  0  1.868099  0  0  -0.842189  0  2.052232  0  0  -0.860088  0  2.021792  0  0  -0.622386  -0.829498  0  2.073141  0
O  O88  1  0.33976374  0.35207153  0.94000693  1  0  -0.895822  0  1.868228  0  0  -0.842106  0  2.052197  0  0  -0.860004  0  2.021755  0  0  -0.622367  -0.82942  0  2.073101  0
O  O89  1  0.16024210  0.14792803  0.44000731  1  0  -0.895925  0  1.868074  0  0  -0.842223  0  2.052127  0  0  -0.860121  0  2.021678  0  0  -0.622421  -0.829533  0  2.073037  0
O  O90  1  0.70821328  0.48827183  0.87539171  1  0  -0.888313  0  1.835049  0  0  -0.83229  0  2.00904  0  0  -0.84988  0  1.97952  0  0  -0.607149  -0.819921  0  2.029619  0
O  O91  1  0.79178845  0.01172914  0.37539229  1  0  -0.888233  0  1.835102  0  0  -0.832219  0  2.009055  0  0  -0.849812  0  1.97954  0  0  -0.60711  -0.819863  0  2.029606  0
O  O92  1  0.29178494  0.51173442  0.12460922  1  0  -0.888187  0  1.835099  0  0  -0.832182  0  2.009141  0  0  -0.849756  0  1.979587  0  0  -0.607126  -0.819801  0  2.029754  0
O  O93  1  0.20821836  0.98826752  0.62460787  1  0  -0.888211  0  1.835082  0  0  -0.832219  0  2.009118  0  0  -0.84979  0  1.979551  0  0  -0.607157  -0.819863  0  2.029668  0
O  O94  1  0.02908236  0.31202142  0.13813285  1  0  -0.683419  0  1.991198  0  0  -0.617676  0  2.227606  0  0  -0.640452  0  2.214876  0  0  -0.325655  -0.601794  0  2.236075  0
O  O95  1  0.47091623  0.18797932  0.63813333  1  0  -0.68342  0  1.991138  0  0  -0.617655  0  2.227508  0  0  -0.640459  0  2.21479  0  0  -0.325639  -0.601778  0  2.235994  0
O  O96  1  0.97091541  0.68798047  0.86186808  1  0  -0.683307  0  1.99118  0  0  -0.617548  0  2.227597  0  0  -0.640331  0  2.214872  0  0  -0.325613  -0.601677  0  2.23608  0
O  O97  1  0.52907888  0.81201211  0.36186453  1  0  -0.683274  0  1.991189  0  0  -0.617582  0  2.227619  0  0  -0.640309  0  2.214859  0  0  -0.325613  -0.601697  0  2.236085  0
