# generated using pymatgen
data_Zn2H11C27Br2N8Cl
_symmetry_space_group_name_H-M   'P 1'
_cell_length_a   18.54520526
_cell_length_b   18.64528982
_cell_length_c   18.63620784
_cell_angle_alpha   102.47115017
_cell_angle_beta   109.93151827
_cell_angle_gamma   110.29910241
_symmetry_Int_Tables_number   1
_chemical_formula_structural   Zn2H11C27Br2N8Cl
_chemical_formula_sum   'Zn4 H22 C54 Br4 N16 Cl2'
_cell_volume   5257.81611537
_cell_formula_units_Z   2
loop_
 _symmetry_equiv_pos_site_id
 _symmetry_equiv_pos_as_xyz
  1  'x, y, z'
loop_
 _atom_site_type_symbol
 _atom_site_label
 _atom_site_symmetry_multiplicity
 _atom_site_fract_x
 _atom_site_fract_y
 _atom_site_fract_z
 _atom_site_occupancy
 _atom_site_pbe_bader_charge
 _atom_site_pbe_bader_spin_density
 _atom_site_pbe_cm5_charge
 _atom_site_pbe_ddec_charge
 _atom_site_pbe_ddec_spin_density
 _atom_site_pbe_ddec_sum_bond_order
 _atom_site_pbe_magmom
Br  Br0  1  0.80604729  0.52187673  0.18830132  1  -0.005528  0  0.071235  -0.02161  0  1.386385  0
Br  Br1  1  0.80577014  0.18767633  0.52167132  1  -0.00671  0  0.070617  -0.022366  0  1.385238  0
Br  Br2  1  0.81393789  0.45665308  0.67247778  1  0.006154  0  0.071753  -0.021922  0  1.423783  0
Br  Br3  1  0.81448615  0.67246157  0.45692140  1  0.005641  0  0.072035  -0.021381  0  1.424806  0
C  C4  1  0.92217996  0.56896203  0.26478937  1  0.492771  0  0.08818  0.146128  0  4.009513  0
C  C5  1  0.92208321  0.26445618  0.56881590  1  0.489884  0  0.088278  0.147344  0  4.007286  0
C  C6  1  0.06539161  0.73420323  0.59037856  1  0.397536  0  0.02362  -0.021092  0  3.91122  0
C  C7  1  0.06530606  0.59032931  0.73391919  1  0.39806  0  0.023445  -0.021109  0  3.910727  0
C  C8  1  0.92503806  0.51298578  0.68441298  1  0.445495  0  0.088489  0.144233  0  3.982896  0
C  C9  1  0.92531209  0.68445738  0.51313391  1  0.453988  0  0.088486  0.143272  0  3.983796  0
C  C10  1  0.63778570  0.40716082  0.40745609  1  0.124913  0  -0.028116  0.03465  0  4.194108  0
C  C11  1  0.28573628  0.74274920  0.74258697  1  0.071954  0  -0.028169  0.054844  0  4.191271  0
C  C12  1  0.99977193  0.75894910  0.57097038  1  0.17951  0  -0.028619  -0.013  0  4.193775  0
C  C13  1  0.99948449  0.57083675  0.75873525  1  0.180409  0  -0.029353  -0.014787  0  4.195323  0
C  C14  1  0.55916403  0.00358600  0.09049292  1  0.003644  0  -0.155019  -0.182151  0  3.853309  0
C  C15  1  0.55948752  0.09078135  0.00356370  1  0.010064  0  -0.155024  -0.181809  0  3.852591  0
C  C16  1  0.48728392  0.01375277  0.92662018  1  -0.02151  0  -0.154889  -0.182118  0  3.852466  0
C  C17  1  0.48699518  0.92650598  0.01357459  1  -0.020269  0  -0.154717  -0.181167  0  3.854445  0
C  C18  1  0.33233805  0.81498151  0.81489511  1  -0.270655  0  -0.073846  -0.146121  0  4.205391  0
C  C19  1  0.55328345  0.08265966  0.08254726  1  0.117082  0  -0.00165  0.178635  0  3.896628  0
C  C20  1  0.43012479  0.95117311  0.95130566  1  0.147959  0  -0.00156  0.17737  0  3.892908  0
C  C21  1  0.06367103  0.33106094  0.63047624  1  0.597153  0  0.11845  0.183664  0  4.096331  0
C  C22  1  0.06376210  0.63044871  0.33099754  1  0.59563  0  0.118138  0.183316  0  4.097294  0
C  C23  1  0.39051094  0.99481611  0.99501817  1  -0.001562  0  -0.154215  -0.185814  0  3.83532  0
C  C24  1  0.46352118  0.07275008  0.07283198  1  -0.022903  0  -0.153477  -0.185125  0  3.832937  0
C  C25  1  0.36864996  0.87706776  0.87721955  1  -0.084025  0  -0.047357  -0.11647  0  4.065603  0
C  C26  1  0.62652340  0.15380008  0.15367066  1  -0.398742  0  -0.048841  -0.122524  0  4.071343  0
C  C27  1  0.69565059  0.20880441  0.20891736  1  0.027709  0  -0.07017  -0.132571  0  4.1862  0
C  C28  1  0.99913972  0.17985637  0.61007268  1  -0.213761  0  -0.03495  -0.047433  0  4.109705  0
C  C29  1  0.99956043  0.61030434  0.18010483  1  -0.207983  0  -0.035614  -0.049486  0  4.11258  0
C  C30  1  0.00316819  0.11598306  0.61304414  1  0.07436  0  -0.036198  -0.042897  0  4.309219  0
C  C31  1  0.00331186  0.61316201  0.11605689  1  0.070163  0  -0.036292  -0.041761  0  4.310457  0
C  C32  1  0.00637033  0.04550178  0.61377838  1  -0.02133  0  -0.022641  -0.015116  0  4.23284  0
C  C33  1  0.00637206  0.61383094  0.04547333  1  -0.016741  0  -0.022212  -0.015881  0  4.23402  0
C  C34  1  0.00793640  0.97932949  0.61173022  1  -0.048925  0  -0.019968  -0.007813  0  4.234037  0
C  C35  1  0.00789891  0.61176373  0.97925210  1  -0.048684  0  -0.020055  -0.006748  0  4.235706  0
C  C36  1  0.00741412  0.90612064  0.60465819  1  -0.323766  0  -0.040299  -0.053837  0  4.317849  0
C  C37  1  0.00731919  0.60466681  0.90599738  1  -0.199071  0  -0.040511  -0.055019  0  4.317922  0
C  C38  1  0.13545184  0.48334210  0.40676177  1  0.437838  0  0.022669  -0.027445  0  3.905427  0
C  C39  1  0.13528952  0.40689604  0.48329074  1  0.434635  0  0.022715  -0.028462  0  3.904826  0
C  C40  1  0.00583656  0.83799166  0.59393005  1  0.175854  0  -0.026298  -0.045899  0  4.082152  0
C  C41  1  0.00555082  0.59380686  0.83777010  1  0.050331  0  -0.025617  -0.044167  0  4.081183  0
C  C42  1  0.55412092  0.39313997  0.39347405  1  -0.06647  0  -0.027883  -0.056351  0  4.072753  0
C  C43  1  0.48259668  0.38500482  0.38513642  1  -0.115727  0  -0.050343  -0.065855  0  4.337462  0
C  C44  1  0.40733790  0.38056647  0.38063340  1  -0.10028  0  -0.029163  -0.01778  0  4.254001  0
C  C45  1  0.34071921  0.38074898  0.38078496  1  0.008085  0  -0.03037  -0.024023  0  4.252556  0
C  C46  1  0.27326825  0.38737833  0.38736388  1  -0.256117  0  -0.046334  -0.058141  0  4.331389  0
C  C47  1  0.21640485  0.39950247  0.39935678  1  0.089194  0  -0.027621  -0.060469  0  4.060055  0
C  C48  1  0.81489456  0.28002692  0.35615045  1  0.385354  0  0.009808  -0.042157  0  3.923613  0
C  C49  1  0.81515570  0.35628936  0.28031328  1  0.38887  0  0.010334  -0.041172  0  3.922133  0
C  C50  1  0.99543189  0.60443638  0.25191372  1  0.137569  0  -0.031045  -0.069842  0  4.195335  0
C  C51  1  0.99511763  0.25168229  0.60426746  1  0.141647  0  -0.032059  -0.072431  0  4.196406  0
C  C52  1  0.16273588  0.42443322  0.42428721  1  0.150366  0  -0.023315  0.03726  0  4.179212  0
C  C53  1  0.77123742  0.27558244  0.27571462  1  0.150056  0  -0.024805  0.068316  0  4.158081  0
C  C54  1  0.69123571  0.45646688  0.38033868  1  0.450702  0  0.016807  -0.040596  0  3.965021  0
C  C55  1  0.69100804  0.38016935  0.45662367  1  0.459685  0  0.016982  -0.040359  0  3.966251  0
C  C56  1  0.25398615  0.65983947  0.73567402  1  0.437622  0  0.016048  -0.051249  0  3.961813  0
C  C57  1  0.25396692  0.73591970  0.65984583  1  0.434646  0  0.015892  -0.050698  0  3.962866  0
Cl  Cl58  1  0.17156142  0.36185614  0.67861678  1  -0.17629  0  0.027963  -0.04711  0  1.474048  0
Cl  Cl59  1  0.17174337  0.67864662  0.36156599  1  -0.176974  0  0.028008  -0.047106  0  1.475041  0
H  H60  1  0.62316837  0.01059505  0.09904600  1  0.013791  0  0.092586  0.091302  0  0.978828  0
H  H61  1  0.62346747  0.09945140  0.01036005  1  0.008169  0  0.092681  0.091253  0  0.979223  0
H  H62  1  0.55519202  0.14715428  0.99916398  1  0.026375  0  0.091314  0.088013  0  0.980333  0
H  H63  1  0.55465965  0.99904765  0.14680788  1  0.02685  0  0.091148  0.087886  0  0.980038  0
H  H64  1  0.44561468  0.03025087  0.88249041  1  0.023807  0  0.091208  0.087951  0  0.980123  0
H  H65  1  0.44515907  0.88212456  0.03009489  1  0.017692  0  0.091207  0.087805  0  0.980908  0
H  H66  1  0.45809104  0.06801620  0.12873765  1  0.026541  0  0.091969  0.090297  0  0.979645  0
H  H67  1  0.45840621  0.12874317  0.06818291  1  0.026469  0  0.091889  0.090089  0  0.980222  0
H  H68  1  0.34866788  0.95121727  0.01215468  1  0.026904  0  0.091615  0.089997  0  0.980811  0
H  H69  1  0.34906845  0.01202907  0.95156472  1  0.007364  0  0.091818  0.090145  0  0.980498  0
H  H70  1  0.14359202  0.51421283  0.36488181  1  0.097366  0  0.11738  0.108558  0  1.016429  0
H  H71  1  0.14334830  0.36509994  0.51420635  1  0.098661  0  0.11774  0.10943  0  1.016059  0
H  H72  1  0.80281343  0.23140986  0.38035122  1  0.105683  0  0.106559  0.09573  0  1.046674  0
H  H73  1  0.80320917  0.38059596  0.23185694  1  0.107408  0  0.106514  0.095265  0  1.046203  0
H  H74  1  0.67675129  0.49015123  0.34132829  1  0.103741  0  0.117726  0.108324  0  1.00513  0
H  H75  1  0.67627946  0.34106114  0.49028262  1  0.101567  0  0.117415  0.108048  0  1.005952  0
H  H76  1  0.26456961  0.63583251  0.78444092  1  0.09641  0  0.126509  0.11654  0  0.981092  0
H  H77  1  0.26468187  0.78482082  0.63592645  1  0.095608  0  0.126291  0.116007  0  0.981934  0
H  H78  1  0.13343070  0.77145510  0.63293582  1  0.147201  0  0.122796  0.11354  0  1.021095  0
H  H79  1  0.13340097  0.63290248  0.77113286  1  0.149625  0  0.123033  0.114038  0  1.021247  0
H  H80  1  0.51395147  0.89399774  0.98261977  1  0.029767  0  0.091948  0.090526  0  0.9797  0
H  H81  1  0.51416258  0.98288412  0.89390947  1  0.025154  0  0.091927  0.090803  0  0.979191  0
N  N82  1  0.94489286  0.57321344  0.34242725  1  -0.757656  0  -0.262464  -0.21126  0  3.502836  0
N  N83  1  0.94507302  0.34228190  0.57322307  1  -0.752626  0  -0.26124  -0.213137  0  3.493132  0
N  N84  1  0.03402501  0.38424501  0.61230211  1  -0.788629  0  -0.265194  -0.221065  0  3.497555  0
N  N85  1  0.03382633  0.61210582  0.38416408  1  -0.783652  0  -0.26413  -0.222119  0  3.493344  0
N  N86  1  0.09719353  0.50022013  0.45325386  1  -0.731747  0  -0.28108  -0.183791  0  3.607931  0
N  N87  1  0.09708063  0.45327280  0.50021407  1  -0.851923  0  -0.281926  -0.183877  0  3.608697  0
N  N88  1  0.87722564  0.35813507  0.40527650  1  -0.839455  0  -0.289803  -0.203188  0  3.55997  0
N  N89  1  0.87740348  0.40542618  0.35824422  1  -0.730934  0  -0.28975  -0.202892  0  3.557571  0
N  N90  1  0.76902271  0.45878487  0.41135135  1  -0.794328  0  -0.270428  -0.182389  0  3.562867  0
N  N91  1  0.76892348  0.41138710  0.45877409  1  -0.817343  0  -0.269307  -0.183274  0  3.55431  0
N  N92  1  0.20497058  0.60846701  0.65587401  1  -0.855813  0  -0.275144  -0.188534  0  3.53001  0
N  N93  1  0.20491457  0.65598213  0.60849101  1  -0.750052  0  -0.273776  -0.189165  0  3.526806  0
N  N94  1  0.03249618  0.65301502  0.54665316  1  -0.782727  0  -0.274783  -0.177124  0  3.566442  0
N  N95  1  0.03253896  0.54663737  0.65283800  1  -0.790194  0  -0.274637  -0.176923  0  3.566172  0
N  N96  1  0.94544976  0.49948934  0.62195835  1  -0.773005  0  -0.278473  -0.227549  0  3.571024  0
N  N97  1  0.94550923  0.62198644  0.49959758  1  -0.778222  0  -0.278835  -0.227158  0  3.571175  0
Zn  Zn98  1  0.87859044  0.51541500  0.40030277  1  1.200019  0  0.740289  0.65208  0  2.391334  0
Zn  Zn99  1  0.87864128  0.40031638  0.51533611  1  1.199974  0  0.738917  0.655066  0  2.373112  0
Zn  Zn100  1  0.09784389  0.49717930  0.60824820  1  1.198272  0  0.744325  0.632238  0  2.424104  0
Zn  Zn101  1  0.09767996  0.60811456  0.49720374  1  1.199375  0  0.742828  0.633921  0  2.41085  0
