# generated using pymatgen
data_Nd2H16(CO)19
_symmetry_space_group_name_H-M   'P 1'
_cell_length_a   9.69322609
_cell_length_b   10.52910554
_cell_length_c   13.96233325
_cell_angle_alpha   95.93480183
_cell_angle_beta   104.92464466
_cell_angle_gamma   100.06230759
_symmetry_Int_Tables_number   1
_chemical_formula_structural   Nd2H16(CO)19
_chemical_formula_sum   'Nd4 H32 C38 O38'
_cell_volume   1339.16477487
_cell_formula_units_Z   2
loop_
 _symmetry_equiv_pos_site_id
 _symmetry_equiv_pos_as_xyz
  1  'x, y, z'
loop_
 _atom_site_type_symbol
 _atom_site_label
 _atom_site_symmetry_multiplicity
 _atom_site_fract_x
 _atom_site_fract_y
 _atom_site_fract_z
 _atom_site_occupancy
 _atom_site_pbe_bader_charge
 _atom_site_pbe_bader_spin_density
 _atom_site_pbe_cm5_charge
 _atom_site_pbe_ddec_charge
 _atom_site_pbe_ddec_spin_density
 _atom_site_pbe_ddec_sum_bond_order
 _atom_site_pbe_magmom
Nd  Nd0  1  0.24037400  0.02346728  0.96720192  1  2.276272  0  1.489562  2.159677  0  2.05401  0
Nd  Nd1  1  0.75962638  0.97653274  0.03279457  1  2.276273  0  1.489575  2.159651  0  2.054092  0
Nd  Nd2  1  0.13584185  0.55300416  0.64161239  1  2.247387  0  1.500274  2.092475  0  2.123763  0
Nd  Nd3  1  0.86415661  0.44699685  0.35838596  1  2.247248  0  1.500251  2.092396  0  2.123799  0
H  H4  1  0.18615654  0.84732407  0.64660940  1  0.63151  0  0.336258  0.422907  0  0.856396  0
H  H5  1  0.81384710  0.15268083  0.35339306  1  0.631533  0  0.336264  0.422899  0  0.856451  0
H  H6  1  0.11196572  0.83026634  0.73425670  1  0.636482  0  0.317123  0.408756  0  0.914174  0
H  H7  1  0.88803792  0.16973856  0.26574577  1  0.636509  0  0.317148  0.408788  0  0.914125  0
H  H8  1  0.44057983  0.03454006  0.83053029  1  0.651469  0  0.302097  0.40685  0  0.924123  0
H  H9  1  0.55942160  0.96545996  0.16946925  1  0.65148  0  0.302097  0.406855  0  0.924122  0
H  H10  1  0.34470179  0.13931628  0.80609854  1  0.623498  0  0.320317  0.401707  0  0.905329  0
H  H11  1  0.65530116  0.86068570  0.19390285  1  0.623514  0  0.320336  0.401726  0  0.905297  0
H  H12  1  0.16577545  0.26455045  0.84029417  1  0.661976  0  0.303165  0.417589  0  0.896835  0
H  H13  1  0.83422692  0.73545347  0.15970369  1  0.661775  0  0.303156  0.417636  0  0.896784  0
H  H14  1  0.02985028  0.18952489  0.87425507  1  0.633851  0  0.30134  0.408435  0  0.914732  0
H  H15  1  0.97015528  0.81047903  0.12574480  1  0.633812  0  0.301362  0.408473  0  0.914695  0
H  H16  1  0.14248478  0.67575433  0.85417010  1  0.65351  0  0.310138  0.361071  0  0.967212  0
H  H17  1  0.85751558  0.32424569  0.14582924  1  0.65351  0  0.310136  0.361059  0  0.967251  0
H  H18  1  0.46149036  0.02123036  0.66009591  1  0.118546  0  0.11728  0.143936  0  0.993487  0
H  H19  1  0.53850306  0.97877653  0.33990699  1  0.11871  0  0.117287  0.143926  0  0.993557  0
H  H20  1  0.51511779  0.14161323  0.50370879  1  0.121874  0  0.112257  0.137669  0  1.015296  0
H  H21  1  0.48488790  0.85838678  0.49629296  1  0.121811  0  0.112249  0.137708  0  1.015239  0
H  H22  1  0.67090118  0.61415026  0.88931584  1  0.151251  0  0.121402  0.142648  0  1.015982  0
H  H23  1  0.32909717  0.38584587  0.11068570  1  0.151178  0  0.12142  0.142673  0  1.015904  0
H  H24  1  0.81453608  0.46559739  0.01369925  1  0.118995  0  0.118216  0.137073  0  1.022474  0
H  H25  1  0.18546096  0.53439776  0.98630270  1  0.118993  0  0.118183  0.137009  0  1.022517  0
H  H26  1  0.50223923  0.61918330  0.56557644  1  0.172172  0  0.121509  0.154217  0  1.006459  0
H  H27  1  0.49775136  0.38082067  0.43442500  1  0.17217  0  0.121491  0.154163  0  1.006459  0
H  H28  1  0.56492200  0.74912488  0.75545548  1  0.188789  0  0.127654  0.16222  0  0.99421  0
H  H29  1  0.43508521  0.25087709  0.24454741  1  0.188592  0  0.12767  0.162254  0  0.9941  0
H  H30  1  0.85444476  0.52364527  0.78745563  1  0.070951  0  0.100893  0.100519  0  1.000514  0
H  H31  1  0.14555581  0.47635574  0.21254669  1  0.070957  0  0.100884  0.100492  0  1.00052  0
H  H32  1  0.95944481  0.59920664  0.91167986  1  0.043249  0  0.100524  0.096953  0  0.992757  0
H  H33  1  0.04055813  0.40079533  0.08832225  1  0.04328  0  0.100498  0.096937  0  0.992675  0
H  H34  1  0.98393733  0.44402461  0.85819316  1  0.051688  0  0.096205  0.090482  0  1.006657  0
H  H35  1  0.01606300  0.55597542  0.14180976  1  0.051605  0  0.096247  0.090498  0  1.006743  0
C  C36  1  0.72417681  0.09841080  0.84125861  1  1.573407  0  0.195062  0.530853  0  4.322954  0
C  C37  1  0.27581603  0.90158925  0.15874652  1  1.573647  0  0.194984  0.530911  0  4.322818  0
C  C38  1  0.68428279  0.13001914  0.73918931  1  0.419839  0  0.065459  0.07423  0  3.944969  0
C  C39  1  0.31571322  0.86998970  0.26081492  1  0.419764  0  0.065512  0.074187  0  3.945084  0
C  C40  1  0.55975131  0.08839258  0.65950447  1  -0.020337  0  -0.101386  -0.171802  0  3.975503  0
C  C41  1  0.44024639  0.91161429  0.34049706  1  -0.020449  0  -0.101435  -0.171843  0  3.975799  0
C  C42  1  0.58776614  0.14928017  0.57846540  1  0.014254  0  -0.100408  -0.171564  0  3.985917  0
C  C43  1  0.41223834  0.85072375  0.42153642  1  0.014201  0  -0.100374  -0.171576  0  3.985812  0
C  C44  1  0.72712097  0.22469140  0.61360585  1  0.387892  0  0.073931  0.079882  0  3.904275  0
C  C45  1  0.27288151  0.77530862  0.38639531  1  0.388154  0  0.073904  0.079762  0  3.904122  0
C  C46  1  0.81655010  0.31669644  0.56952026  1  1.649231  0  0.229345  0.604532  0  4.246441  0
C  C47  1  0.18345290  0.68329674  0.43048047  1  1.648994  0  0.229372  0.604538  0  4.246273  0
C  C48  1  0.35393370  0.48056121  0.80028942  1  1.593142  0  0.187953  0.529902  0  4.333408  0
C  C49  1  0.64606596  0.51943588  0.19970958  1  1.592968  0  0.187944  0.529892  0  4.333211  0
C  C50  1  0.48346117  0.45287010  0.86985871  1  0.397221  0  0.077408  0.098688  0  3.907286  0
C  C51  1  0.51653742  0.54712700  0.13014152  1  0.397313  0  0.077435  0.098719  0  3.907184  0
C  C52  1  0.62636839  0.52002529  0.90629913  1  0.034932  0  -0.090872  -0.160253  0  3.941983  0
C  C53  1  0.37362783  0.47997084  0.09370131  1  0.03485  0  -0.090879  -0.160283  0  3.941981  0
C  C54  1  0.70060691  0.44307708  0.97102151  1  0.014424  0  -0.090751  -0.14997  0  3.942735  0
C  C55  1  0.29939144  0.55691905  0.02897861  1  0.014388  0  -0.090702  -0.149769  0  3.942559  0
C  C56  1  0.59836170  0.33475269  0.97214635  1  0.351405  0  0.069454  0.058099  0  3.934599  0
C  C57  1  0.40163643  0.66524246  0.02785293  1  0.351483  0  0.069391  0.057887  0  3.934421  0
C  C58  1  0.60094662  0.22320460  0.02638116  1  1.612166  0  0.23142  0.610502  0  4.244297  0
C  C59  1  0.39905257  0.77679055  0.97361831  1  1.612235  0  0.231455  0.610604  0  4.244407  0
C  C60  1  0.78354722  0.61288322  0.50769143  1  1.572998  0  0.203289  0.569687  0  4.276437  0
C  C61  1  0.21644288  0.38711389  0.49230224  1  1.572838  0  0.203222  0.569611  0  4.276632  0
C  C62  1  0.74055149  0.67584285  0.59115426  1  0.35595  0  0.077084  0.084979  0  3.902123  0
C  C63  1  0.25944035  0.32415719  0.40884138  1  0.356228  0  0.077026  0.08486  0  3.902248  0
C  C64  1  0.60891136  0.67013754  0.61318140  1  0.074418  0  -0.087234  -0.154988  0  3.930519  0
C  C65  1  0.39108626  0.32986445  0.38681831  1  0.074419  0  -0.087205  -0.154919  0  3.930358  0
C  C66  1  0.64187709  0.73724692  0.71258780  1  -0.114863  0  -0.087716  -0.16027  0  3.942201  0
C  C67  1  0.35812180  0.26275605  0.28741508  1  -0.114632  0  -0.087686  -0.160171  0  3.942238  0
C  C68  1  0.79155406  0.78090777  0.74488326  1  0.459195  0  0.070558  0.057163  0  3.928153  0
C  C69  1  0.20844927  0.21909127  0.25511655  1  0.459204  0  0.070457  0.056915  0  3.928341  0
C  C70  1  0.89413122  0.85168013  0.83964105  1  1.606069  0  0.234579  0.621558  0  4.224882  0
C  C71  1  0.10587262  0.14832085  0.16035327  1  1.606543  0  0.234682  0.621709  0  4.224674  0
C  C72  1  0.96181440  0.54006726  0.84263423  1  0.380342  0  -0.145006  -0.109206  0  3.93841  0
C  C73  1  0.03818724  0.45993374  0.15736757  1  0.380403  0  -0.145022  -0.109197  0  3.938439  0
O  O74  1  0.62078847  0.03110434  0.86903432  1  -1.194526  0  -0.370772  -0.645669  0  2.329629  0
O  O75  1  0.37920394  0.96889376  0.13096557  1  -1.194567  0  -0.370769  -0.645772  0  2.329696  0
O  O76  1  0.85361122  0.13281135  0.89836210  1  -1.179676  0  -0.312219  -0.593974  0  2.220914  0
O  O77  1  0.14638898  0.86719259  0.10164109  1  -1.179822  0  -0.31216  -0.593888  0  2.220838  0
O  O78  1  0.78670108  0.21328448  0.71169620  1  -1.050081  0  -0.100876  -0.08085  0  2.613937  0
O  O79  1  0.21329828  0.78672043  0.28830620  1  -1.050047  0  -0.100887  -0.080725  0  2.613875  0
O  O80  1  0.92857643  0.39064660  0.63123559  1  -1.18697  0  -0.404954  -0.644441  0  2.32906  0
O  O81  1  0.07143106  0.60934754  0.36876675  1  -1.186952  0  -0.404905  -0.644345  0  2.329086  0
O  O82  1  0.77251141  0.31493320  0.47518525  1  -1.200146  0  -0.377838  -0.638393  0  2.232977  0
O  O83  1  0.22749439  0.68506291  0.52481909  1  -1.200237  0  -0.377905  -0.638464  0  2.232799  0
O  O84  1  0.23559034  0.39394634  0.76964345  1  -1.182801  0  -0.343033  -0.610964  0  2.172859  0
O  O85  1  0.76440981  0.60605270  0.23035291  1  -1.182657  0  -0.343053  -0.610971  0  2.17278  0
O  O86  1  0.36820209  0.59341599  0.77358510  1  -1.170226  0  -0.382203  -0.601281  0  2.210222  0
O  O87  1  0.63179650  0.40658111  0.22641512  1  -1.170208  0  -0.382179  -0.601262  0  2.210082  0
O  O88  1  0.46525766  0.33960104  0.90942077  1  -1.060313  0  -0.103368  -0.12021  0  2.675038  0
O  O89  1  0.53474048  0.66039410  0.09057780  1  -1.06029  0  -0.103351  -0.120183  0  2.674902  0
O  O90  1  0.48087137  0.15109032  0.02388672  1  -1.199234  0  -0.402752  -0.670855  0  2.368189  0
O  O91  1  0.51912843  0.84890287  0.97611200  1  -1.199192  0  -0.40277  -0.67086  0  2.368315  0
O  O92  1  0.72603980  0.20116524  0.07097176  1  -1.191126  0  -0.376389  -0.641624  0  2.314687  0
O  O93  1  0.27395985  0.79883186  0.92902938  1  -1.191165  0  -0.376398  -0.641664  0  2.314701  0
O  O94  1  0.91924356  0.60693216  0.52183226  1  -1.206796  0  -0.432339  -0.745185  0  2.402595  0
O  O95  1  0.08074687  0.39306203  0.47816554  1  -1.207046  0  -0.432417  -0.745211  0  2.402748  0
O  O96  1  0.68806685  0.56248445  0.42609819  1  -1.173156  0  -0.349996  -0.582838  0  2.174664  0
O  O97  1  0.31192121  0.43751756  0.57389476  1  -1.173007  0  -0.349942  -0.582805  0  2.174747  0
O  O98  1  0.85219782  0.74456073  0.67075599  1  -1.05825  0  -0.101573  -0.10351  0  2.678223  0
O  O99  1  0.14779700  0.25543832  0.32924012  1  -1.058379  0  -0.101406  -0.103293  0  2.678205  0
O  O100  1  0.84658455  0.85989364  0.91648375  1  -1.207139  0  -0.414226  -0.692152  0  2.339903  0
O  O101  1  0.15342522  0.14010538  0.08351293  1  -1.20739  0  -0.414344  -0.692266  0  2.339896  0
O  O102  1  0.02491717  0.89834532  0.83977938  1  -1.196239  0  -0.383813  -0.649514  0  2.286999  0
O  O103  1  0.97508680  0.10165175  0.16021538  1  -1.196498  0  -0.383802  -0.649464  0  2.286848  0
O  O104  1  0.16982915  0.79130017  0.69532836  1  -1.230868  0  -0.625965  -0.825476  0  2.112166  0
O  O105  1  0.83017167  0.20870181  0.30467264  1  -1.230883  0  -0.625995  -0.82549  0  2.112221  0
O  O106  1  0.33761837  0.04833695  0.81626205  1  -1.258386  0  -0.622655  -0.832651  0  2.03728  0
O  O107  1  0.66238330  0.95166404  0.18373689  1  -1.258416  0  -0.622664  -0.83265  0  2.037299  0
O  O108  1  0.13563981  0.19866514  0.88078595  1  -1.286808  0  -0.636254  -0.867104  0  2.001802  0
O  O109  1  0.86436340  0.80133781  0.11921270  1  -1.286564  0  -0.636286  -0.867227  0  2.001624  0
O  O110  1  0.06953283  0.60755595  0.80190121  1  -1.182296  0  -0.467133  -0.540477  0  2.479947  0
O  O111  1  0.93046812  0.39244212  0.19809953  1  -1.182304  0  -0.467126  -0.540478  0  2.480014  0
