# generated using pymatgen
data_InPH6C6NO5
_symmetry_space_group_name_H-M   'P 1'
_cell_length_a   6.69799061
_cell_length_b   10.46061885
_cell_length_c   13.82002923
_cell_angle_alpha   106.66148385
_cell_angle_beta   89.99962006
_cell_angle_gamma   90.00080262
_symmetry_Int_Tables_number   1
_chemical_formula_structural   InPH6C6NO5
_chemical_formula_sum   'In4 P4 H24 C24 N4 O20'
_cell_volume   927.64837487
_cell_formula_units_Z   4
loop_
 _symmetry_equiv_pos_site_id
 _symmetry_equiv_pos_as_xyz
  1  'x, y, z'
loop_
 _atom_site_type_symbol
 _atom_site_label
 _atom_site_symmetry_multiplicity
 _atom_site_fract_x
 _atom_site_fract_y
 _atom_site_fract_z
 _atom_site_occupancy
 _atom_site_hle17_bader_spin_density
 _atom_site_hle17_ddec_charge
 _atom_site_hle17_ddec_spin_density
 _atom_site_hle17_ddec_sum_bond_order
 _atom_site_hle17_magmom
 _atom_site_hse06_10hf_bader_spin_density
 _atom_site_hse06_10hf_ddec_charge
 _atom_site_hse06_10hf_ddec_spin_density
 _atom_site_hse06_10hf_ddec_sum_bond_order
 _atom_site_hse06_10hf_magmom
 _atom_site_hse06_bader_spin_density
 _atom_site_hse06_ddec_charge
 _atom_site_hse06_ddec_spin_density
 _atom_site_hse06_ddec_sum_bond_order
 _atom_site_hse06_magmom
 _atom_site_pbe_bader_spin_density
 _atom_site_pbe_cm5_charge
 _atom_site_pbe_ddec_charge
 _atom_site_pbe_ddec_spin_density
 _atom_site_pbe_ddec_sum_bond_order
 _atom_site_pbe_magmom
In  In0  1  0.55092416  0.92402882  0.28260297  1  0  1.700792  0  2.270014  0  0  1.51519  0  2.747684  0  0  1.575603  0  2.69562  0  0  0.800896  1.472655  0  2.783166  0
In  In1  1  0.05092756  0.57596889  0.21739872  1  0  1.700785  0  2.270098  0  0  1.515125  0  2.747777  0  0  1.575549  0  2.695712  0  0  0.800879  1.472598  0  2.783262  0
In  In2  1  0.44906201  0.07597628  0.71740362  1  0  1.700806  0  2.270139  0  0  1.515198  0  2.747841  0  0  1.575587  0  2.695774  0  0  0.800881  1.472638  0  2.783324  0
In  In3  1  0.94907056  0.42402311  0.78259572  1  0  1.700811  0  2.270079  0  0  1.515194  0  2.747763  0  0  1.575611  0  2.695697  0  0  0.800881  1.472658  0  2.783236  0
P  P4  1  0.06416421  0.90404797  0.33060518  1  0  1.47212  0  4.955421  0  0  1.279894  0  5.482126  0  0  1.334084  0  5.440596  0  0  0.308237  1.242332  0  5.51011  0
P  P5  1  0.56416561  0.59595381  0.16939516  1  0  1.472174  0  4.955214  0  0  1.279953  0  5.481894  0  0  1.334144  0  5.44036  0  0  0.308273  1.242423  0  5.509868  0
P  P6  1  0.93582944  0.09595104  0.66939290  1  0  1.472182  0  4.955241  0  0  1.280028  0  5.48189  0  0  1.334196  0  5.440361  0  0  0.308291  1.242496  0  5.509878  0
P  P7  1  0.43583251  0.40404825  0.83060718  1  0  1.472207  0  4.955249  0  0  1.279974  0  5.481945  0  0  1.334165  0  5.440411  0  0  0.308237  1.242421  0  5.509947  0
H  H8  1  0.09621272  0.97578914  0.43292493  1  0  -0.167695  0  0.902874  0  0  -0.134913  0  0.991226  0  0  -0.140278  0  0.987204  0  0  0.08085  -0.131563  0  0.994547  0
H  H9  1  0.59620348  0.52421190  0.06707443  1  0  -0.167646  0  0.902803  0  0  -0.1349  0  0.991203  0  0  -0.140259  0  0.98717  0  0  0.080838  -0.131602  0  0.994577  0
H  H10  1  0.90379884  0.02420190  0.56707220  1  0  -0.16766  0  0.902827  0  0  -0.134953  0  0.991247  0  0  -0.14028  0  0.98718  0  0  0.080824  -0.13167  0  0.99464  0
H  H11  1  0.40379762  0.47579609  0.93292554  1  0  -0.167672  0  0.90286  0  0  -0.134909  0  0.991242  0  0  -0.140272  0  0.987212  0  0  0.080854  -0.131595  0  0.994603  0
H  H12  1  0.80510765  0.35169766  0.27201892  1  0  0.091439  0  0.94185  0  0  0.099671  0  1.003885  0  0  0.101918  0  1.002433  0  0  0.123998  0.098052  0  1.004938  0
H  H13  1  0.30511846  0.14830251  0.22798543  1  0  0.091437  0  0.941864  0  0  0.099675  0  1.003908  0  0  0.10193  0  1.002434  0  0  0.123981  0.098055  0  1.00496  0
H  H14  1  0.19489346  0.64830243  0.72798517  1  0  0.091427  0  0.941891  0  0  0.099666  0  1.003933  0  0  0.101913  0  1.002478  0  0  0.12398  0.09804  0  1.004986  0
H  H15  1  0.69487966  0.85170342  0.77200904  1  0  0.091527  0  0.941901  0  0  0.099756  0  1.003948  0  0  0.102005  0  1.002489  0  0  0.124018  0.098134  0  1.004997  0
H  H16  1  0.34460215  0.53190575  0.37601055  1  0  0.095304  0  0.934088  0  0  0.104074  0  0.995404  0  0  0.10705  0  0.992071  0  0  0.127163  0.101997  0  0.997641  0
H  H17  1  0.84460633  0.96809539  0.12398803  1  0  0.095276  0  0.934117  0  0  0.104064  0  0.995419  0  0  0.107026  0  0.992104  0  0  0.127151  0.101987  0  0.997663  0
H  H18  1  0.65539896  0.46809628  0.62398961  1  0  0.095324  0  0.934125  0  0  0.104112  0  0.99542  0  0  0.107075  0  0.992104  0  0  0.127171  0.102032  0  0.997664  0
H  H19  1  0.15539478  0.03190767  0.87601524  1  0  0.095283  0  0.93413  0  0  0.104092  0  0.99541  0  0  0.107034  0  0.992118  0  0  0.127144  0.102014  0  0.997653  0
H  H20  1  0.81677596  0.21108727  0.39240134  1  0  0.121176  0  0.967737  0  0  0.128646  0  1.02869  0  0  0.132116  0  1.027526  0  0  0.110645  0.126263  0  1.029412  0
H  H21  1  0.31678550  0.28891200  0.10760351  1  0  0.121159  0  0.967676  0  0  0.12865  0  1.028596  0  0  0.132127  0  1.027425  0  0  0.110636  0.126246  0  1.029344  0
H  H22  1  0.18323112  0.78891483  0.60760462  1  0  0.121163  0  0.967654  0  0  0.128582  0  1.028672  0  0  0.13205  0  1.027509  0  0  0.110625  0.126193  0  1.029403  0
H  H23  1  0.68322307  0.71108992  0.89238867  1  0  0.121216  0  0.96755  0  0  0.12868  0  1.028498  0  0  0.132155  0  1.027336  0  0  0.110638  0.126283  0  1.02924  0
H  H24  1  0.10654307  0.24108829  0.51287130  1  0  0.106622  0  0.948821  0  0  0.117563  0  1.008221  0  0  0.119709  0  1.006714  0  0  0.112751  0.115838  0  1.009643  0
H  H25  1  0.60654375  0.25891018  0.98712749  1  0  0.106616  0  0.948831  0  0  0.117542  0  1.008256  0  0  0.119688  0  1.006749  0  0  0.112749  0.115819  0  1.009676  0
H  H26  1  0.89346550  0.75891778  0.48713405  1  0  0.106688  0  0.948668  0  0  0.117521  0  1.008214  0  0  0.119668  0  1.006707  0  0  0.112699  0.115798  0  1.009636  0
H  H27  1  0.39346482  0.74108578  0.01286560  1  0  0.106632  0  0.948752  0  0  0.117526  0  1.008212  0  0  0.119673  0  1.006703  0  0  0.112711  0.115802  0  1.009647  0
H  H28  1  0.37739476  0.40006624  0.50305167  1  0  0.111109  0  0.940434  0  0  0.123165  0  0.995421  0  0  0.126091  0  0.994592  0  0  0.113901  0.121075  0  0.996184  0
H  H29  1  0.87739482  0.09993350  0.99694435  1  0  0.111072  0  0.940459  0  0  0.123132  0  0.995445  0  0  0.126058  0  0.994615  0  0  0.11388  0.121044  0  0.996214  0
H  H30  1  0.62260933  0.59994180  0.49695120  1  0  0.111006  0  0.940501  0  0  0.12304  0  0.995532  0  0  0.125967  0  0.994702  0  0  0.113832  0.120949  0  0.996301  0
H  H31  1  0.12261226  0.90006153  0.00305362  1  0  0.111019  0  0.940541  0  0  0.123078  0  0.995539  0  0  0.126005  0  0.99471  0  0  0.113859  0.12099  0  0.99631  0
C  C32  1  0.92927594  0.35720268  0.32402534  1  0  0.128806  0  3.688021  0  0  0.096019  0  3.936304  0  0  0.103983  0  3.95508  0  0  0.056859  0.09093  0  3.923399  0
C  C33  1  0.42928434  0.14279454  0.17597727  1  0  0.128758  0  3.68786  0  0  0.095966  0  3.93619  0  0  0.103932  0  3.954972  0  0  0.056833  0.090883  0  3.92327  0
C  C34  1  0.07072815  0.64279640  0.67597782  1  0  0.12878  0  3.68804  0  0  0.095965  0  3.936351  0  0  0.103928  0  3.955128  0  0  0.056844  0.090883  0  3.923431  0
C  C35  1  0.57071975  0.85720842  0.82401802  1  0  0.128751  0  3.688007  0  0  0.095942  0  3.936335  0  0  0.103905  0  3.955117  0  0  0.056874  0.090865  0  3.923406  0
C  C36  1  0.23231540  0.45987466  0.38358712  1  0  0.123197  0  3.703387  0  0  0.089292  0  3.955421  0  0  0.096638  0  3.974862  0  0  0.058157  0.084716  0  3.941719  0
C  C37  1  0.73231928  0.04012680  0.11641123  1  0  0.123142  0  3.703275  0  0  0.08924  0  3.955325  0  0  0.096597  0  3.974766  0  0  0.058138  0.084662  0  3.941633  0
C  C38  1  0.76768720  0.54012837  0.61641398  1  0  0.123129  0  3.703373  0  0  0.089211  0  3.955407  0  0  0.096565  0  3.974854  0  0  0.058136  0.084631  0  3.941714  0
C  C39  1  0.26768332  0.95987523  0.88358893  1  0  0.123152  0  3.703287  0  0  0.089228  0  3.955323  0  0  0.096603  0  3.974763  0  0  0.058171  0.084648  0  3.941629  0
C  C40  1  0.93673510  0.28087653  0.39137154  1  0  -0.115279  0  3.7022  0  0  -0.124684  0  3.949261  0  0  -0.132982  0  3.97084  0  0  -0.075969  -0.119149  0  3.934227  0
C  C41  1  0.43674160  0.21911973  0.10862940  1  0  -0.115229  0  3.701953  0  0  -0.124625  0  3.948996  0  0  -0.132931  0  3.970572  0  0  -0.075915  -0.119073  0  3.933971  0
C  C42  1  0.06327049  0.71912555  0.60863297  1  0  -0.115232  0  3.701814  0  0  -0.124566  0  3.948858  0  0  -0.13286  0  3.970434  0  0  -0.075909  -0.119027  0  3.933821  0
C  C43  1  0.56326399  0.78088021  0.89136308  1  0  -0.115374  0  3.701742  0  0  -0.124752  0  3.948805  0  0  -0.133057  0  3.970389  0  0  -0.075992  -0.119204  0  3.933769  0
C  C44  1  0.09878650  0.29648729  0.45724006  1  0  0.023632  0  3.666029  0  0  0.001626  0  3.915846  0  0  0.005947  0  3.934637  0  0  -0.05276  -0.000923  0  3.902938  0
C  C45  1  0.59878898  0.20350905  0.04275764  1  0  0.023574  0  3.666059  0  0  0.001555  0  3.91592  0  0  0.005878  0  3.934712  0  0  -0.052823  -0.00099  0  3.90301  0
C  C46  1  0.90121909  0.70351677  0.54276342  1  0  0.023578  0  3.66575  0  0  0.001624  0  3.915585  0  0  0.005945  0  3.934374  0  0  -0.052739  -0.000929  0  3.902679  0
C  C47  1  0.40121511  0.79648892  0.95723660  1  0  0.023618  0  3.665725  0  0  0.001648  0  3.915541  0  0  0.005967  0  3.934337  0  0  -0.052759  -0.000903  0  3.902644  0
C  C48  1  0.24904751  0.38692266  0.45288377  1  0  -0.112082  0  3.7259  0  0  -0.124842  0  3.978959  0  0  -0.132238  0  4.000558  0  0  -0.07543  -0.120053  0  3.964324  0
C  C49  1  0.74904944  0.11307493  0.04711226  1  0  -0.111944  0  3.725862  0  0  -0.124696  0  3.978908  0  0  -0.132089  0  4.000502  0  0  -0.075343  -0.119912  0  3.964288  0
C  C50  1  0.75095659  0.61308336  0.54711795  1  0  -0.111984  0  3.725896  0  0  -0.124709  0  3.978917  0  0  -0.132102  0  4.00051  0  0  -0.075377  -0.119922  0  3.96429  0
C  C51  1  0.25095465  0.88692110  0.95288592  1  0  -0.111965  0  3.725914  0  0  -0.124735  0  3.97896  0  0  -0.132128  0  4.000547  0  0  -0.075383  -0.119947  0  3.964341  0
C  C52  1  0.50125707  0.92436714  0.49827552  1  0  0.520707  0  3.931205  0  0  0.473251  0  4.235358  0  0  0.502634  0  4.230091  0  0  0.225557  0.453275  0  4.238474  0
C  C53  1  0.00126934  0.57562714  0.00172489  1  0  0.520495  0  3.93104  0  0  0.473062  0  4.235132  0  0  0.502444  0  4.229863  0  0  0.225412  0.453093  0  4.238249  0
C  C54  1  0.49872612  0.07562402  0.50173104  1  0  0.52094  0  3.930916  0  0  0.473417  0  4.235122  0  0  0.5028  0  4.22985  0  0  0.225564  0.453431  0  4.238254  0
C  C55  1  0.99872878  0.42436985  0.99827060  1  0  0.520949  0  3.930924  0  0  0.473436  0  4.235086  0  0  0.50282  0  4.229816  0  0  0.225588  0.453445  0  4.238221  0
N  N56  1  0.07450714  0.44515023  0.32072776  1  0  -0.356966  0  3.292654  0  0  -0.274501  0  3.549012  0  0  -0.296471  0  3.570804  0  0  -0.306835  -0.259565  0  3.533763  0
N  N57  1  0.57451199  0.05484995  0.17927444  1  0  -0.356913  0  3.292435  0  0  -0.274506  0  3.548865  0  0  -0.296474  0  3.570649  0  0  -0.306806  -0.259569  0  3.533613  0
N  N58  1  0.92549696  0.55484983  0.67927416  1  0  -0.356944  0  3.292637  0  0  -0.274503  0  3.549055  0  0  -0.296472  0  3.570842  0  0  -0.306825  -0.25957  0  3.533805  0
N  N59  1  0.42548762  0.94515408  0.82072614  1  0  -0.356879  0  3.292481  0  0  -0.274457  0  3.548908  0  0  -0.296418  0  3.570682  0  0  -0.306807  -0.259513  0  3.533646  0
O  O60  1  0.06501658  0.75785083  0.33291967  1  0  -0.85845  0  2.031465  0  0  -0.768683  0  2.317093  0  0  -0.796833  0  2.295258  0  0  -0.354069  -0.7489  0  2.331277  0
O  O61  1  0.56502271  0.74215197  0.16708160  1  0  -0.858473  0  2.031502  0  0  -0.768719  0  2.317145  0  0  -0.796866  0  2.295307  0  0  -0.354063  -0.748934  0  2.331315  0
O  O62  1  0.93497706  0.24214610  0.66707146  1  0  -0.858442  0  2.031408  0  0  -0.768746  0  2.317072  0  0  -0.796898  0  2.295248  0  0  -0.354091  -0.748955  0  2.331236  0
O  O63  1  0.43497542  0.25785217  0.83292769  1  0  -0.858466  0  2.031453  0  0  -0.768732  0  2.317122  0  0  -0.796877  0  2.295283  0  0  -0.354061  -0.748936  0  2.331293  0
O  O64  1  0.86559336  0.95214454  0.29957016  1  0  -0.877019  0  2.083707  0  0  -0.787113  0  2.377829  0  0  -0.815993  0  2.356198  0  0  -0.359023  -0.76672  0  2.391744  0
O  O65  1  0.36559637  0.54785987  0.20043627  1  0  -0.877017  0  2.083688  0  0  -0.787115  0  2.377816  0  0  -0.816  0  2.356192  0  0  -0.358997  -0.766721  0  2.391719  0
O  O66  1  0.13439431  0.04786159  0.70043954  1  0  -0.877041  0  2.08365  0  0  -0.787141  0  2.377743  0  0  -0.816016  0  2.356116  0  0  -0.359031  -0.766736  0  2.391639  0
O  O67  1  0.63440324  0.45213714  0.79956066  1  0  -0.877098  0  2.083695  0  0  -0.787179  0  2.377806  0  0  -0.816062  0  2.356178  0  0  -0.359026  -0.766776  0  2.391709  0
O  O68  1  0.23386516  0.93949180  0.26832682  1  0  -0.860593  0  2.028981  0  0  -0.772556  0  2.30968  0  0  -0.800943  0  2.289151  0  0  -0.356485  -0.752899  0  2.323227  0
O  O69  1  0.73386943  0.56050638  0.23166932  1  0  -0.860682  0  2.028931  0  0  -0.772591  0  2.309574  0  0  -0.800984  0  2.289059  0  0  -0.35652  -0.752937  0  2.323112  0
O  O70  1  0.76612400  0.06051115  0.73166774  1  0  -0.860689  0  2.029014  0  0  -0.772606  0  2.309635  0  0  -0.800984  0  2.289107  0  0  -0.356493  -0.752955  0  2.323193  0
O  O71  1  0.26613018  0.43948766  0.76832917  1  0  -0.860678  0  2.029008  0  0  -0.772598  0  2.309671  0  0  -0.800974  0  2.289125  0  0  -0.356491  -0.752943  0  2.323224  0
O  O72  1  0.52849324  0.83891752  0.41334556  1  0  -0.568207  0  2.038123  0  0  -0.514066  0  2.281392  0  0  -0.538286  0  2.27117  0  0  -0.267321  -0.497343  0  2.287915  0
O  O73  1  0.02851818  0.66107498  0.08665366  1  0  -0.568164  0  2.037986  0  0  -0.514012  0  2.281267  0  0  -0.538236  0  2.271046  0  0  -0.267276  -0.497293  0  2.287794  0
O  O74  1  0.47148249  0.16107361  0.58665882  1  0  -0.568205  0  2.038047  0  0  -0.514068  0  2.281416  0  0  -0.538289  0  2.271193  0  0  -0.267234  -0.497339  0  2.287941  0
O  O75  1  0.97148293  0.33892100  0.91334089  1  0  -0.568254  0  2.03801  0  0  -0.514134  0  2.281376  0  0  -0.53836  0  2.271156  0  0  -0.267282  -0.497403  0  2.287902  0
O  O76  1  0.47640398  0.89610764  0.58053819  1  0  -0.578636  0  2.076564  0  0  -0.526942  0  2.323654  0  0  -0.551666  0  2.316587  0  0  -0.27106  -0.509906  0  2.328061  0
O  O77  1  0.97641264  0.60388777  0.91946522  1  0  -0.578541  0  2.076489  0  0  -0.526885  0  2.323617  0  0  -0.551613  0  2.316552  0  0  -0.271042  -0.50985  0  2.328027  0
O  O78  1  0.52358519  0.10388455  0.41947075  1  0  -0.578792  0  2.076535  0  0  -0.527128  0  2.32375  0  0  -0.551857  0  2.316677  0  0  -0.271225  -0.510094  0  2.328171  0
O  O79  1  0.02358549  0.39611020  0.08052974  1  0  -0.578672  0  2.07651  0  0  -0.52701  0  2.323701  0  0  -0.551737  0  2.316634  0  0  -0.271141  -0.509974  0  2.328122  0
