# generated using pymatgen
data_ZnH5C7NO5
_symmetry_space_group_name_H-M   'P 1'
_cell_length_a   7.53724514
_cell_length_b   8.57752172
_cell_length_c   13.16724595
_cell_angle_alpha   89.99978838
_cell_angle_beta   90.00007796
_cell_angle_gamma   110.47652878
_symmetry_Int_Tables_number   1
_chemical_formula_structural   ZnH5C7NO5
_chemical_formula_sum   'Zn4 H20 C28 N4 O20'
_cell_volume   797.48682331
_cell_formula_units_Z   4
loop_
 _symmetry_equiv_pos_site_id
 _symmetry_equiv_pos_as_xyz
  1  'x, y, z'
loop_
 _atom_site_type_symbol
 _atom_site_label
 _atom_site_symmetry_multiplicity
 _atom_site_fract_x
 _atom_site_fract_y
 _atom_site_fract_z
 _atom_site_occupancy
 _atom_site_hle17_bader_spin_density
 _atom_site_hle17_ddec_charge
 _atom_site_hle17_ddec_spin_density
 _atom_site_hle17_ddec_sum_bond_order
 _atom_site_hle17_magmom
 _atom_site_hse06_10hf_bader_spin_density
 _atom_site_hse06_10hf_ddec_charge
 _atom_site_hse06_10hf_ddec_spin_density
 _atom_site_hse06_10hf_ddec_sum_bond_order
 _atom_site_hse06_10hf_magmom
 _atom_site_hse06_bader_spin_density
 _atom_site_hse06_ddec_charge
 _atom_site_hse06_ddec_spin_density
 _atom_site_hse06_ddec_sum_bond_order
 _atom_site_hse06_magmom
 _atom_site_pbe_bader_spin_density
 _atom_site_pbe_cm5_charge
 _atom_site_pbe_ddec_charge
 _atom_site_pbe_ddec_spin_density
 _atom_site_pbe_ddec_sum_bond_order
 _atom_site_pbe_magmom
Zn  Zn0  1  0.91316939  0.00739267  0.20400580  1  0  1.118361  0  1.75317  0  0  0.940931  0  2.21939  0  0  0.989827  0  2.159445  0  0  0.689004  0.906529  0  2.260755  0
Zn  Zn1  1  0.58683103  0.49260904  0.70400563  1  0  1.118339  0  1.753223  0  0  0.940929  0  2.219456  0  0  0.989824  0  2.159509  0  0  0.688999  0.906528  0  2.26082  0
Zn  Zn2  1  0.08683179  0.99260775  0.79599369  1  0  1.118374  0  1.753173  0  0  0.940947  0  2.219396  0  0  0.989838  0  2.159454  0  0  0.689009  0.90655  0  2.260763  0
Zn  Zn3  1  0.41316882  0.50739139  0.29599387  1  0  1.118335  0  1.753174  0  0  0.940927  0  2.219399  0  0  0.989819  0  2.159455  0  0  0.688993  0.906526  0  2.260765  0
H  H4  1  0.80242850  0.97398209  0.01025185  1  0  0.434846  0  0.866607  0  0  0.400941  0  0.933754  0  0  0.412875  0  0.916591  0  0  0.292261  0.392498  0  0.945865  0
H  H5  1  0.69757193  0.52601818  0.51025213  1  0  0.434848  0  0.866606  0  0  0.400935  0  0.933766  0  0  0.41287  0  0.916602  0  0  0.292246  0.392492  0  0.945878  0
H  H6  1  0.19757135  0.02601834  0.98974764  1  0  0.434855  0  0.866595  0  0  0.400948  0  0.933743  0  0  0.412882  0  0.916581  0  0  0.292264  0.392506  0  0.945854  0
H  H7  1  0.30242792  0.47398224  0.48974737  1  0  0.434854  0  0.866602  0  0  0.400955  0  0.933737  0  0  0.412889  0  0.916575  0  0  0.292265  0.392511  0  0.94585  0
H  H8  1  0.62584059  0.94916602  0.08670820  1  0  0.44562  0  0.85649  0  0  0.412198  0  0.924285  0  0  0.422808  0  0.908853  0  0  0.300901  0.404695  0  0.935183  0
H  H9  1  0.87415853  0.55083383  0.58670931  1  0  0.445485  0  0.856685  0  0  0.412104  0  0.924412  0  0  0.422714  0  0.90898  0  0  0.300862  0.404601  0  0.93531  0
H  H10  1  0.37415926  0.05083441  0.91329054  1  0  0.445634  0  0.856475  0  0  0.412212  0  0.924269  0  0  0.422822  0  0.908837  0  0  0.30091  0.404708  0  0.935168  0
H  H11  1  0.12583949  0.44916536  0.41329095  1  0  0.445621  0  0.856494  0  0  0.412201  0  0.924285  0  0  0.422811  0  0.908852  0  0  0.300899  0.404696  0  0.935185  0
H  H12  1  0.41218271  0.82138559  0.48778455  1  0  0.110075  0  0.922743  0  0  0.122731  0  0.97746  0  0  0.125665  0  0.975901  0  0  0.115097  0.120546  0  0.978713  0
H  H13  1  0.08781477  0.67861125  0.98778513  1  0  0.110091  0  0.922744  0  0  0.122748  0  0.977464  0  0  0.125683  0  0.975904  0  0  0.115095  0.120564  0  0.978717  0
H  H14  1  0.58781847  0.17861483  0.51221495  1  0  0.110087  0  0.922737  0  0  0.122739  0  0.977458  0  0  0.125673  0  0.975899  0  0  0.115098  0.120553  0  0.978712  0
H  H15  1  0.91218224  0.32138545  0.01221589  1  0  0.110064  0  0.922723  0  0  0.122723  0  0.977443  0  0  0.125654  0  0.975886  0  0  0.115082  0.120538  0  0.978697  0
H  H16  1  0.09751591  0.81424937  0.54951184  1  0  0.124858  0  0.953981  0  0  0.13259  0  1.014238  0  0  0.136233  0  1.012583  0  0  0.115512  0.129977  0  1.015557  0
H  H17  1  0.40248415  0.68574991  0.04951310  1  0  0.124848  0  0.953976  0  0  0.132567  0  1.014248  0  0  0.136209  0  1.012593  0  0  0.115481  0.129954  0  1.015567  0
H  H18  1  0.90248557  0.18574855  0.45048765  1  0  0.124845  0  0.95398  0  0  0.132542  0  1.014268  0  0  0.136183  0  1.012618  0  0  0.11549  0.129928  0  1.015586  0
H  H19  1  0.59751519  0.31424927  0.95048791  1  0  0.12482  0  0.954014  0  0  0.132517  0  1.014306  0  0  0.136159  0  1.012655  0  0  0.115476  0.129905  0  1.015625  0
H  H20  1  0.87327940  0.87154672  0.42561069  1  0  0.083472  0  0.937803  0  0  0.092133  0  1.000532  0  0  0.094732  0  0.998785  0  0  0.119842  0.090175  0  1.001969  0
H  H21  1  0.62672027  0.62845247  0.92560990  1  0  0.083508  0  0.937742  0  0  0.09213  0  1.00051  0  0  0.094729  0  0.998763  0  0  0.11985  0.090174  0  1.001948  0
H  H22  1  0.12672127  0.12845245  0.57439032  1  0  0.083501  0  0.937737  0  0  0.092121  0  1.000508  0  0  0.09472  0  0.998762  0  0  0.119846  0.090163  0  1.001946  0
H  H23  1  0.37327775  0.37154673  0.07438959  1  0  0.083513  0  0.93779  0  0  0.092132  0  1.000559  0  0  0.094732  0  0.998812  0  0  0.119847  0.090176  0  1.001996  0
C  C24  1  0.55348719  0.88824463  0.29708101  1  0  0.684347  0  3.8886  0  0  0.627954  0  4.187382  0  0  0.664967  0  4.176698  0  0  0.220343  0.60262  0  4.194046  0
C  C25  1  0.94651064  0.61175405  0.79708203  1  0  0.684362  0  3.888571  0  0  0.627988  0  4.187322  0  0  0.664999  0  4.176639  0  0  0.220368  0.602654  0  4.193987  0
C  C26  1  0.44651267  0.11175580  0.70291924  1  0  0.684304  0  3.888587  0  0  0.627921  0  4.187369  0  0  0.664935  0  4.176686  0  0  0.220337  0.602588  0  4.194031  0
C  C27  1  0.05348739  0.38824515  0.20291898  1  0  0.684375  0  3.88862  0  0  0.627974  0  4.187411  0  0  0.664987  0  4.176726  0  0  0.220354  0.602639  0  4.194077  0
C  C28  1  0.36300965  0.88577209  0.33380085  1  0  -0.08386  0  3.68184  0  0  -0.0658  0  3.915928  0  0  -0.073279  0  3.934641  0  0  0.006854  -0.061263  0  3.903852  0
C  C29  1  0.13698933  0.61422935  0.83380238  1  0  -0.08391  0  3.681843  0  0  -0.065842  0  3.915907  0  0  -0.073323  0  3.934622  0  0  0.006839  -0.061305  0  3.903831  0
C  C30  1  0.63699102  0.11422708  0.66619789  1  0  -0.083807  0  3.681806  0  0  -0.065768  0  3.915884  0  0  -0.073248  0  3.934598  0  0  0.006851  -0.061232  0  3.903807  0
C  C31  1  0.86301002  0.38576984  0.16619864  1  0  -0.083813  0  3.681741  0  0  -0.065772  0  3.915833  0  0  -0.073252  0  3.934545  0  0  0.006859  -0.061234  0  3.903756  0
C  C32  1  0.31411948  0.84870135  0.43590575  1  0  -0.018825  0  3.669363  0  0  -0.048738  0  3.923954  0  0  -0.045329  0  3.939878  0  0  -0.057762  -0.050856  0  3.913462  0
C  C33  1  0.18588145  0.65129451  0.93590799  1  0  -0.018823  0  3.669471  0  0  -0.048756  0  3.924084  0  0  -0.045346  0  3.940007  0  0  -0.057762  -0.050874  0  3.913593  0
C  C34  1  0.68587936  0.15129659  0.56409375  1  0  -0.018815  0  3.669334  0  0  -0.048723  0  3.923913  0  0  -0.045314  0  3.939838  0  0  -0.057721  -0.05084  0  3.913421  0
C  C35  1  0.81411739  0.34870343  0.06409303  1  0  -0.018808  0  3.669388  0  0  -0.048734  0  3.923999  0  0  -0.045322  0  3.939921  0  0  -0.057737  -0.050853  0  3.91351  0
C  C36  1  0.13813691  0.84407864  0.47074364  1  0  -0.085559  0  3.688909  0  0  -0.103053  0  3.949776  0  0  -0.107107  0  3.967201  0  0  -0.071149  -0.100628  0  3.938337  0
C  C37  1  0.36186616  0.65591576  0.97074373  1  0  -0.08556  0  3.688995  0  0  -0.103045  0  3.949868  0  0  -0.107101  0  3.967298  0  0  -0.07108  -0.10062  0  3.93843  0
C  C38  1  0.86186508  0.15592053  0.52925661  1  0  -0.08557  0  3.688912  0  0  -0.103039  0  3.949785  0  0  -0.107095  0  3.967215  0  0  -0.071146  -0.100613  0  3.938345  0
C  C39  1  0.63813400  0.34408217  0.02925652  1  0  -0.085514  0  3.689007  0  0  -0.102984  0  3.949883  0  0  -0.107038  0  3.967308  0  0  -0.07111  -0.100558  0  3.938445  0
C  C40  1  0.22973948  0.91604077  0.26999091  1  0  0.099448  0  3.689868  0  0  0.093197  0  3.926732  0  0  0.096291  0  3.943994  0  0  0.12115  0.090896  0  3.915402  0
C  C41  1  0.27025797  0.58395729  0.76999110  1  0  0.099632  0  3.689726  0  0  0.093397  0  3.926529  0  0  0.096495  0  3.94379  0  0  0.121277  0.091096  0  3.915198  0
C  C42  1  0.77026169  0.08395964  0.73000935  1  0  0.099393  0  3.690029  0  0  0.093173  0  3.926818  0  0  0.096269  0  3.944079  0  0  0.121116  0.090871  0  3.915488  0
C  C43  1  0.72974006  0.41604190  0.23000916  1  0  0.099467  0  3.689838  0  0  0.093259  0  3.926621  0  0  0.096358  0  3.943883  0  0  0.12119  0.09096  0  3.915288  0
C  C44  1  0.26369456  0.94908114  0.15775556  1  0  0.629025  0  3.920363  0  0  0.571702  0  4.222425  0  0  0.604577  0  4.215352  0  0  0.217016  0.549461  0  4.226414  0
C  C45  1  0.23630175  0.55092131  0.65775353  1  0  0.62882  0  3.920592  0  0  0.571601  0  4.222539  0  0  0.604468  0  4.215475  0  0  0.216989  0.549357  0  4.226528  0
C  C46  1  0.73630183  0.05092056  0.84224469  1  0  0.629008  0  3.920444  0  0  0.571738  0  4.222407  0  0  0.604608  0  4.215339  0  0  0.21709  0.549496  0  4.226396  0
C  C47  1  0.76369728  0.44908037  0.34224521  1  0  0.628907  0  3.920482  0  0  0.571625  0  4.222454  0  0  0.604488  0  4.215396  0  0  0.217018  0.549381  0  4.226442  0
C  C48  1  0.01368126  0.87578839  0.40260098  1  0  0.149389  0  3.676532  0  0  0.113794  0  3.934635  0  0  0.121057  0  3.950649  0  0  0.057388  0.108917  0  3.923917  0
C  C49  1  0.48632118  0.62421139  0.90259897  1  0  0.149314  0  3.676605  0  0  0.113757  0  3.93471  0  0  0.121019  0  3.950724  0  0  0.057326  0.10888  0  3.923996  0
C  C50  1  0.98632123  0.12421202  0.59740003  1  0  0.149357  0  3.676512  0  0  0.113798  0  3.934605  0  0  0.121059  0  3.950621  0  0  0.057359  0.108922  0  3.923887  0
C  C51  1  0.51367867  0.37578904  0.09739977  1  0  0.149287  0  3.676551  0  0  0.11373  0  3.934642  0  0  0.120992  0  3.950656  0  0  0.057336  0.108854  0  3.923925  0
N  N52  1  0.05987866  0.91195849  0.30494121  1  0  -0.341195  0  3.304696  0  0  -0.267646  0  3.578269  0  0  -0.284786  0  3.591461  0  0  -0.318501  -0.256019  0  3.569455  0
N  N53  1  0.44011849  0.58804188  0.80494076  1  0  -0.341248  0  3.304772  0  0  -0.267728  0  3.578361  0  0  -0.284867  0  3.591548  0  0  -0.318586  -0.2561  0  3.569548  0
N  N54  1  0.94012120  0.08804194  0.69505905  1  0  -0.341172  0  3.304853  0  0  -0.267643  0  3.578405  0  0  -0.284781  0  3.591596  0  0  -0.318488  -0.256016  0  3.569593  0
N  N55  1  0.55988055  0.41195980  0.19505874  1  0  -0.341174  0  3.304694  0  0  -0.267642  0  3.578238  0  0  -0.284781  0  3.591427  0  0  -0.318514  -0.256014  0  3.569423  0
O  O56  1  0.68755484  0.02780706  0.29074289  1  0  -0.622482  0  2.003689  0  0  -0.560881  0  2.262716  0  0  -0.590502  0  2.252097  0  0  -0.308113  -0.540049  0  2.269329  0
O  O57  1  0.81244112  0.47219295  0.79074369  1  0  -0.622492  0  2.00365  0  0  -0.560923  0  2.262674  0  0  -0.590547  0  2.252069  0  0  -0.308132  -0.54009  0  2.269289  0
O  O58  1  0.31244501  0.97219337  0.70925737  1  0  -0.622478  0  2.003699  0  0  -0.56089  0  2.262727  0  0  -0.590506  0  2.2521  0  0  -0.308105  -0.540058  0  2.269341  0
O  O59  1  0.18755395  0.52780877  0.20925732  1  0  -0.622478  0  2.00368  0  0  -0.560901  0  2.262723  0  0  -0.590527  0  2.252119  0  0  -0.308118  -0.540068  0  2.269336  0
O  O60  1  0.75138532  0.93683418  0.08032652  1  0  -0.853786  0  1.929038  0  0  -0.785187  0  2.156479  0  0  -0.808224  0  2.11761  0  0  -0.582444  -0.768907  0  2.183457  0
O  O61  1  0.74861431  0.56316695  0.58032598  1  0  -0.853721  0  1.929236  0  0  -0.785103  0  2.15663  0  0  -0.808139  0  2.11776  0  0  -0.582384  -0.768824  0  2.183608  0
O  O62  1  0.24861454  0.06316625  0.91967298  1  0  -0.853817  0  1.929026  0  0  -0.78522  0  2.156473  0  0  -0.808255  0  2.117603  0  0  -0.582453  -0.76894  0  2.183453  0
O  O63  1  0.25138473  0.43683473  0.41967351  1  0  -0.853787  0  1.92903  0  0  -0.785188  0  2.156466  0  0  -0.808222  0  2.117593  0  0  -0.582434  -0.768908  0  2.183447  0
O  O64  1  0.57736988  0.75082313  0.28064571  1  0  -0.640979  0  2.074044  0  0  -0.574984  0  2.353252  0  0  -0.604186  0  2.336936  0  0  -0.311264  -0.554334  0  2.363731  0
O  O65  1  0.92263241  0.74917685  0.78064334  1  0  -0.64103  0  2.074126  0  0  -0.574978  0  2.353263  0  0  -0.604178  0  2.336947  0  0  -0.31128  -0.554326  0  2.363741  0
O  O66  1  0.42262997  0.24917730  0.71935682  1  0  -0.640964  0  2.074075  0  0  -0.574944  0  2.353237  0  0  -0.604145  0  2.336919  0  0  -0.311269  -0.554296  0  2.363722  0
O  O67  1  0.07737008  0.25082356  0.21935539  1  0  -0.641058  0  2.074119  0  0  -0.575006  0  2.353279  0  0  -0.604208  0  2.336963  0  0  -0.311278  -0.554355  0  2.363758  0
O  O68  1  0.13119610  0.97737820  0.10804425  1  0  -0.6389  0  2.062823  0  0  -0.562392  0  2.304085  0  0  -0.591413  0  2.29157  0  0  -0.309188  -0.542062  0  2.312019  0
O  O69  1  0.36880997  0.52262570  0.60804011  1  0  -0.638914  0  2.062812  0  0  -0.562415  0  2.304026  0  0  -0.591436  0  2.291511  0  0  -0.309223  -0.542083  0  2.31196  0
O  O70  1  0.86880589  0.02262096  0.89195753  1  0  -0.638921  0  2.062759  0  0  -0.562429  0  2.303992  0  0  -0.59145  0  2.291477  0  0  -0.309205  -0.542099  0  2.311927  0
O  O71  1  0.63119405  0.47737844  0.39195711  1  0  -0.638883  0  2.062791  0  0  -0.562395  0  2.304038  0  0  -0.591412  0  2.291525  0  0  -0.309207  -0.542062  0  2.311972  0
O  O72  1  0.41343491  0.94479426  0.11968085  1  0  -0.593851  0  2.038472  0  0  -0.53948  0  2.26891  0  0  -0.564192  0  2.262216  0  0  -0.296949  -0.52219  0  2.273051  0
O  O73  1  0.08656781  0.55520461  0.61968324  1  0  -0.593559  0  2.038629  0  0  -0.539392  0  2.269191  0  0  -0.564102  0  2.262502  0  0  -0.296897  -0.522102  0  2.27333  0
O  O74  1  0.58656891  0.05520614  0.88031637  1  0  -0.593793  0  2.03857  0  0  -0.539471  0  2.269028  0  0  -0.564181  0  2.262338  0  0  -0.296983  -0.52218  0  2.273167  0
O  O75  1  0.91343235  0.44479332  0.38031853  1  0  -0.593745  0  2.0386  0  0  -0.539418  0  2.269068  0  0  -0.564127  0  2.262382  0  0  -0.296909  -0.522127  0  2.273206  0
