# generated using pymatgen
data_AlH5C8O5
_symmetry_space_group_name_H-M   'P 1'
_cell_length_a   6.63356681
_cell_length_b   12.88532655
_cell_length_c   19.22007324
_cell_angle_alpha   90.00039860
_cell_angle_beta   96.76714386
_cell_angle_gamma   89.99953321
_symmetry_Int_Tables_number   1
_chemical_formula_structural   AlH5C8O5
_chemical_formula_sum   'Al8 H40 C64 O40'
_cell_volume   1631.40339642
_cell_formula_units_Z   8
loop_
 _symmetry_equiv_pos_site_id
 _symmetry_equiv_pos_as_xyz
  1  'x, y, z'
loop_
 _atom_site_type_symbol
 _atom_site_label
 _atom_site_symmetry_multiplicity
 _atom_site_fract_x
 _atom_site_fract_y
 _atom_site_fract_z
 _atom_site_occupancy
 _atom_site_pbe_bader_charge
 _atom_site_pbe_bader_spin_density
 _atom_site_pbe_cm5_charge
 _atom_site_pbe_ddec_charge
 _atom_site_pbe_ddec_spin_density
 _atom_site_pbe_ddec_sum_bond_order
 _atom_site_pbe_magmom
Al  Al0  1  0.99966060  0.24949172  0.49987651  1  2.500832  0  0.397785  1.651953  0  2.561297  0
Al  Al1  1  0.50031839  0.74948410  0.50012460  1  2.500606  0  0.397798  1.652153  0  2.561007  0
Al  Al2  1  0.00032345  0.75050427  0.50012229  1  2.500644  0  0.397802  1.652057  0  2.56125  0
Al  Al3  1  0.49965510  0.25051887  0.49987588  1  2.500785  0  0.39772  1.652186  0  2.561143  0
Al  Al4  1  0.00001355  0.49999742  0.00000064  1  2.500727  0  0.39767  1.652038  0  2.561942  0
Al  Al5  1  0.49999311  0.99999987  0.99999994  1  2.500628  0  0.397664  1.651953  0  2.562102  0
Al  Al6  1  0.50002817  0.49999081  0.00000212  1  2.500621  0  0.397462  1.651236  0  2.562701  0
Al  Al7  1  0.00000462  0.00000000  0.00000225  1  2.500711  0  0.397523  1.651419  0  2.5623  0
H  H8  1  0.07777623  0.06970886  0.21112614  1  0.118069  0  0.106559  0.109362  0  1.019938  0
H  H9  1  0.42223348  0.56971072  0.78887440  1  0.117997  0  0.106601  0.109481  0  1.020057  0
H  H10  1  0.92221682  0.93029256  0.78886986  1  0.11789  0  0.10658  0.109432  0  1.019884  0
H  H11  1  0.57778882  0.43028993  0.21113464  1  0.11785  0  0.106636  0.109463  0  1.019866  0
H  H12  1  0.04138795  0.08324747  0.33914879  1  0.0976  0  0.111056  0.118568  0  0.992927  0
H  H13  1  0.45860352  0.58324398  0.66085530  1  0.09843  0  0.111002  0.118512  0  0.993013  0
H  H14  1  0.95861444  0.91675162  0.66085431  1  0.098297  0  0.11103  0.118526  0  0.993086  0
H  H15  1  0.54137321  0.41676598  0.33915103  1  0.098125  0  0.111026  0.118567  0  0.992827  0
H  H16  1  0.42154656  0.18043982  0.28883018  1  0.120441  0  0.106847  0.109643  0  1.019166  0
H  H17  1  0.07844683  0.68045648  0.71117705  1  0.120387  0  0.106873  0.109673  0  1.019088  0
H  H18  1  0.57845871  0.81956005  0.71116835  1  0.120269  0  0.106839  0.109663  0  1.019068  0
H  H19  1  0.92153708  0.31955115  0.28881758  1  0.120463  0  0.106873  0.109691  0  1.019136  0
H  H20  1  0.45797648  0.16707272  0.16087305  1  0.092925  0  0.110332  0.116676  0  0.995361  0
H  H21  1  0.04201857  0.66709395  0.83913366  1  0.092737  0  0.110338  0.116701  0  0.995336  0
H  H22  1  0.54202123  0.83293103  0.83912625  1  0.093016  0  0.110345  0.116682  0  0.995262  0
H  H23  1  0.95801545  0.33289971  0.16086333  1  0.092655  0  0.110331  0.116757  0  0.99536  0
H  H24  1  0.57726841  0.31952460  0.71075826  1  0.096875  0  0.10672  0.109784  0  1.019209  0
H  H25  1  0.92271231  0.81951287  0.28923024  1  0.097169  0  0.106779  0.109893  0  1.019122  0
H  H26  1  0.42272586  0.68049545  0.28922895  1  0.0973  0  0.106846  0.109924  0  1.0191  0
H  H27  1  0.07725501  0.18049011  0.71076690  1  0.096983  0  0.10677  0.109899  0  1.019305  0
H  H28  1  0.54177855  0.33227627  0.83880761  1  0.100564  0  0.110471  0.116814  0  0.994471  0
H  H29  1  0.95824615  0.83226230  0.16118620  1  0.100965  0  0.110468  0.116811  0  0.994489  0
H  H30  1  0.45827356  0.66773834  0.16118639  1  0.100791  0  0.110515  0.116808  0  0.994411  0
H  H31  1  0.04173176  0.16774456  0.83881028  1  0.100365  0  0.11047  0.116723  0  0.994526  0
H  H32  1  0.92265174  0.43121014  0.78921764  1  0.097845  0  0.106785  0.109721  0  1.019251  0
H  H33  1  0.57736144  0.93120312  0.21078611  1  0.097783  0  0.106809  0.109701  0  1.019284  0
H  H34  1  0.07737969  0.56877498  0.21079226  1  0.097649  0  0.106786  0.109773  0  1.019327  0
H  H35  1  0.42261659  0.06880607  0.78921403  1  0.097616  0  0.106783  0.109626  0  1.019272  0
H  H36  1  0.95831301  0.41870992  0.66126042  1  0.098031  0  0.10959  0.114797  0  0.997012  0
H  H37  1  0.54168204  0.91871290  0.33874052  1  0.097926  0  0.109577  0.114779  0  0.996926  0
H  H38  1  0.04166363  0.58128141  0.33874330  1  0.097996  0  0.109595  0.1148  0  0.997273  0
H  H39  1  0.45828692  0.08128697  0.66126033  1  0.098132  0  0.109639  0.114786  0  0.996988  0
H  H40  1  0.75422341  0.38964556  0.50823515  1  0.603099  0  0.360699  0.447503  0  0.828037  0
H  H41  1  0.74577366  0.88964058  0.49176989  1  0.603181  0  0.360712  0.447587  0  0.827981  0
H  H42  1  0.24576998  0.61035353  0.49177075  1  0.603104  0  0.360682  0.447423  0  0.828136  0
H  H43  1  0.25421371  0.11035851  0.50823735  1  0.603416  0  0.360668  0.447524  0  0.82809  0
H  H44  1  0.25010626  0.64050472  0.00001993  1  0.649165  0  0.36039  0.447035  0  0.828442  0
H  H45  1  0.24991630  0.14051236  0.99998349  1  0.648563  0  0.360488  0.447184  0  0.828507  0
H  H46  1  0.74994299  0.35948118  0.99997917  1  0.648461  0  0.360505  0.447292  0  0.828191  0
H  H47  1  0.75008318  0.85948286  0.00002315  1  0.648482  0  0.360501  0.447283  0  0.828196  0
C  C48  1  0.77064214  0.11866818  0.17856557  1  0.003164  0  -0.010154  -0.045761  0  3.95359  0
C  C49  1  0.72937203  0.61867904  0.82144090  1  0.002115  0  -0.010048  -0.045465  0  3.953494  0
C  C50  1  0.22936009  0.88134178  0.82143285  1  0.003538  0  -0.010187  -0.045807  0  3.953862  0
C  C51  1  0.27067281  0.38133014  0.17856221  1  0.002005  0  -0.010093  -0.045782  0  3.953657  0
C  C52  1  0.93516265  0.09431632  0.22866865  1  -0.018649  0  -0.078199  -0.08994  0  3.965834  0
C  C53  1  0.56484745  0.59430649  0.77134276  1  -0.018604  0  -0.078336  -0.090148  0  3.966069  0
C  C54  1  0.06483354  0.90569597  0.77133059  1  -0.018908  0  -0.078221  -0.090009  0  3.965788  0
C  C55  1  0.43517785  0.40569105  0.22866535  1  -0.018906  0  -0.078309  -0.089868  0  3.965925  0
C  C56  1  0.91417386  0.10057578  0.29966172  1  -0.066396  0  -0.073693  -0.083717  0  3.949455  0
C  C57  1  0.58580261  0.60058299  0.70034380  1  -0.067242  0  -0.073606  -0.083842  0  3.949495  0
C  C58  1  0.08581164  0.89942952  0.70033504  1  -0.067441  0  -0.073726  -0.083768  0  3.949657  0
C  C59  1  0.41417241  0.39942309  0.29965675  1  -0.066993  0  -0.073685  -0.083923  0  3.949591  0
C  C60  1  0.72872128  0.13168924  0.32137227  1  0.012532  0  -0.010257  -0.04669  0  3.955566  0
C  C61  1  0.77124874  0.63168836  0.67863316  1  0.012695  0  -0.010256  -0.046388  0  3.955344  0
C  C62  1  0.27125521  0.86831994  0.67862676  1  0.012641  0  -0.010219  -0.046629  0  3.955649  0
C  C63  1  0.22873676  0.36831461  0.32136361  1  0.012812  0  -0.010271  -0.046447  0  3.955098  0
C  C64  1  0.56420047  0.15595884  0.27126034  1  -0.102559  0  -0.078098  -0.090331  0  3.966769  0
C  C65  1  0.93579014  0.65595382  0.72873555  1  -0.102135  0  -0.078092  -0.090438  0  3.966678  0
C  C66  1  0.43579538  0.84404646  0.72872848  1  -0.102106  0  -0.078057  -0.090394  0  3.966261  0
C  C67  1  0.06419815  0.34402975  0.27125403  1  -0.102616  0  -0.078173  -0.090428  0  3.966385  0
C  C68  1  0.58518246  0.14968463  0.20029043  1  -0.000805  0  -0.074121  -0.082843  0  3.950979  0
C  C69  1  0.91481299  0.64970138  0.79971185  1  -0.000563  0  -0.074144  -0.082918  0  3.9511  0
C  C70  1  0.41480612  0.85031912  0.79970801  1  -0.000901  0  -0.074163  -0.082818  0  3.950677  0
C  C71  1  0.08521786  0.35030082  0.20028085  1  0.000182  0  -0.074131  -0.083058  0  3.950843  0
C  C72  1  0.78508787  0.10038340  0.10271987  1  1.547768  0  0.27151  0.641858  0  4.090274  0
C  C73  1  0.71493422  0.60038578  0.89728993  1  1.548293  0  0.271352  0.641617  0  4.091086  0
C  C74  1  0.21491291  0.89962112  0.89728058  1  1.547786  0  0.271526  0.641907  0  4.090278  0
C  C75  1  0.28512304  0.39961021  0.10272196  1  1.547546  0  0.271686  0.642094  0  4.090218  0
C  C76  1  0.71425958  0.15020296  0.39719450  1  1.54212  0  0.271753  0.642043  0  4.092614  0
C  C77  1  0.78572236  0.65020669  0.60281198  1  1.542422  0  0.271612  0.641765  0  4.092672  0
C  C78  1  0.28573209  0.84979613  0.60280562  1  1.542556  0  0.271727  0.64205  0  4.092488  0
C  C79  1  0.21425421  0.34979474  0.39718967  1  1.542992  0  0.27168  0.641757  0  4.092334  0
C  C80  1  0.27042851  0.36911490  0.67852138  1  -0.002968  0  -0.009888  -0.045095  0  3.952364  0
C  C81  1  0.22957861  0.86911914  0.32146903  1  -0.002884  0  -0.009855  -0.044794  0  3.951914  0
C  C82  1  0.72957664  0.63088109  0.32147350  1  -0.003128  0  -0.009891  -0.045037  0  3.952103  0
C  C83  1  0.77039946  0.13087995  0.67853215  1  -0.003832  0  -0.009786  -0.044833  0  3.951934  0
C  C84  1  0.43496234  0.34421901  0.72848134  1  0.002678  0  -0.078496  -0.090905  0  3.965592  0
C  C85  1  0.06501789  0.84422430  0.27151161  1  0.002769  0  -0.078583  -0.091277  0  3.965226  0
C  C86  1  0.56504123  0.65578086  0.27151193  1  0.002397  0  -0.078616  -0.091249  0  3.965732  0
C  C87  1  0.93496158  0.15577790  0.72848597  1  0.003455  0  -0.07855  -0.091229  0  3.965345  0
C  C88  1  0.41442992  0.35014864  0.79951976  1  -0.071124  0  -0.074179  -0.082715  0  3.950015  0
C  C89  1  0.08558505  0.85014535  0.20047137  1  -0.072172  0  -0.07404  -0.082488  0  3.949616  0
C  C90  1  0.58560412  0.64984890  0.20047774  1  -0.071848  0  -0.074155  -0.082456  0  3.949856  0
C  C91  1  0.91438999  0.14985917  0.79952970  1  -0.071086  0  -0.074034  -0.082295  0  3.949268  0
C  C92  1  0.22939557  0.38143671  0.82144754  1  0.011373  0  -0.009908  -0.045966  0  3.953308  0
C  C93  1  0.27061002  0.88144320  0.17854704  1  0.011958  0  -0.01006  -0.046319  0  3.953402  0
C  C94  1  0.77062490  0.61855384  0.17855207  1  0.012197  0  -0.01005  -0.046266  0  3.953177  0
C  C95  1  0.72936801  0.11855745  0.82145309  1  0.01156  0  -0.010153  -0.046521  0  3.953709  0
C  C96  1  0.06486616  0.40638693  0.77148410  1  -0.008934  0  -0.078042  -0.089657  0  3.964795  0
C  C97  1  0.43514378  0.90638073  0.22851387  1  -0.009017  0  -0.078002  -0.089398  0  3.964454  0
C  C98  1  0.93516943  0.59361139  0.22851450  1  -0.009318  0  -0.078046  -0.089681  0  3.964562  0
C  C99  1  0.56484200  0.09362457  0.77149123  1  -0.008884  0  -0.078046  -0.089364  0  3.964602  0
C  C100  1  0.08549511  0.40047360  0.70047523  1  -0.071046  0  -0.074694  -0.083156  0  3.95207  0
C  C101  1  0.41451025  0.90046821  0.29951943  1  -0.070995  0  -0.074754  -0.083358  0  3.952077  0
C  C102  1  0.91451479  0.59952162  0.29952555  1  -0.070791  0  -0.074703  -0.083168  0  3.952083  0
C  C103  1  0.58546779  0.09953166  0.70048071  1  -0.071181  0  -0.074796  -0.083375  0  3.952008  0
C  C104  1  0.28438105  0.35104587  0.60261753  1  1.545195  0  0.271501  0.643415  0  4.090652  0
C  C105  1  0.21560518  0.85104008  0.39737619  1  1.545091  0  0.271639  0.643441  0  4.090219  0
C  C106  1  0.71558923  0.64896254  0.39737764  1  1.544716  0  0.271545  0.643436  0  4.090332  0
C  C107  1  0.78437428  0.14895979  0.60262139  1  1.545415  0  0.271814  0.643878  0  4.089871  0
C  C108  1  0.21516063  0.39958180  0.89733948  1  1.548546  0  0.272108  0.642881  0  4.089891  0
C  C109  1  0.28485272  0.89958667  0.10266692  1  1.547629  0  0.272134  0.643201  0  4.089593  0
C  C110  1  0.78487212  0.60040721  0.10266475  1  1.54751  0  0.272171  0.643284  0  4.089836  0
C  C111  1  0.71513141  0.10041552  0.89733396  1  1.547308  0  0.272201  0.643443  0  4.089625  0
O  O112  1  0.75011875  0.31545106  0.50013390  1  -1.403567  0  -0.445856  -0.995724  0  2.18387  0
O  O113  1  0.74985914  0.81544304  0.49985916  1  -1.403515  0  -0.445938  -0.995861  0  2.183801  0
O  O114  1  0.24985766  0.68455037  0.49986305  1  -1.40351  0  -0.445875  -0.99572  0  2.184025  0
O  O115  1  0.25012952  0.18455528  0.50014137  1  -1.403922  0  -0.445799  -0.995724  0  2.183955  0
O  O116  1  0.25003182  0.56535800  0.00000142  1  -1.450199  0  -0.445261  -0.994713  0  2.18635  0
O  O117  1  0.24998816  0.06536679  0.00000696  1  -1.449684  0  -0.445303  -0.994789  0  2.186415  0
O  O118  1  0.75001403  0.43462672  0.00000660  1  -1.449539  0  -0.445305  -0.994892  0  2.186231  0
O  O119  1  0.75000673  0.93462765  0.99999848  1  -1.449554  0  -0.445346  -0.994968  0  2.186113  0
O  O120  1  0.95687571  0.07475220  0.08465161  1  -1.250456  0  -0.234818  -0.58535  0  2.325995  0
O  O121  1  0.54315408  0.57474548  0.91535210  1  -1.250333  0  -0.234847  -0.585365  0  2.326382  0
O  O122  1  0.04312497  0.92525000  0.91534571  1  -1.250428  0  -0.234805  -0.585342  0  2.32592  0
O  O123  1  0.45690297  0.42524197  0.08465354  1  -1.250277  0  -0.234949  -0.585427  0  2.326006  0
O  O124  1  0.62134961  0.10660072  0.06054604  1  -1.274563  0  -0.247991  -0.616232  0  2.338201  0
O  O125  1  0.87868132  0.60659267  0.93945838  1  -1.274966  0  -0.24779  -0.616059  0  2.338659  0
O  O126  1  0.37864957  0.89339527  0.93945175  1  -1.274546  0  -0.247938  -0.616163  0  2.338173  0
O  O127  1  0.12140000  0.39339556  0.06054762  1  -1.274107  0  -0.248052  -0.61631  0  2.338002  0
O  O128  1  0.87759310  0.14332520  0.43945858  1  -1.270963  0  -0.247036  -0.613972  0  2.338583  0
O  O129  1  0.62239353  0.64331762  0.56054959  1  -1.271035  0  -0.246913  -0.613758  0  2.338489  0
O  O130  1  0.12239695  0.85667079  0.56053835  1  -1.271111  0  -0.247089  -0.614017  0  2.338402  0
O  O131  1  0.37759527  0.35667836  0.43945510  1  -1.271231  0  -0.246962  -0.61393  0  2.338469  0
O  O132  1  0.54287844  0.17655126  0.41518505  1  -1.247333  0  -0.233528  -0.581879  0  2.327782  0
O  O133  1  0.95710900  0.67655011  0.58481447  1  -1.24745  0  -0.233476  -0.581834  0  2.327774  0
O  O134  1  0.45710396  0.82345404  0.58480952  1  -1.247652  0  -0.233411  -0.581832  0  2.327905  0
O  O135  1  0.04287175  0.32344743  0.41517640  1  -1.247686  0  -0.233446  -0.581649  0  2.32778  0
O  O136  1  0.45632257  0.32597344  0.58438737  1  -1.252993  0  -0.236294  -0.589857  0  2.327504  0
O  O137  1  0.04367005  0.82596399  0.41560647  1  -1.252943  0  -0.236404  -0.589856  0  2.32738  0
O  O138  1  0.54366447  0.67402643  0.41560997  1  -1.252725  0  -0.236305  -0.589806  0  2.327653  0
O  O139  1  0.95630643  0.17404053  0.58439257  1  -1.252889  0  -0.236573  -0.590065  0  2.327521  0
O  O140  1  0.12009227  0.35662215  0.56066079  1  -1.271909  0  -0.248259  -0.6175  0  2.337381  0
O  O141  1  0.37989702  0.85661524  0.43933568  1  -1.271395  0  -0.24835  -0.61759  0  2.337189  0
O  O142  1  0.87988741  0.64338004  0.43934305  1  -1.271496  0  -0.248319  -0.617539  0  2.336918  0
O  O143  1  0.62007933  0.14338463  0.56065971  1  -1.271789  0  -0.24832  -0.617751  0  2.33712  0
O  O144  1  0.37901977  0.39327523  0.93945685  1  -1.273786  0  -0.24802  -0.616128  0  2.337234  0
O  O145  1  0.12099953  0.89327114  0.06054401  1  -1.273376  0  -0.248095  -0.6163  0  2.336901  0
O  O146  1  0.62101905  0.60672231  0.06054759  1  -1.273188  0  -0.248057  -0.616265  0  2.33705  0
O  O147  1  0.87898912  0.10672563  0.93945600  1  -1.273273  0  -0.248068  -0.616336  0  2.336925  0
O  O148  1  0.04343674  0.42520989  0.91541580  1  -1.251262  0  -0.234902  -0.585748  0  2.326861  0
O  O149  1  0.45658070  0.92520679  0.08458671  1  -1.25116  0  -0.234863  -0.585804  0  2.326681  0
O  O150  1  0.95659440  0.57478377  0.08458577  1  -1.25068  0  -0.234854  -0.585882  0  2.327253  0
O  O151  1  0.54341110  0.07479618  0.91541705  1  -1.250623  0  -0.234918  -0.585986  0  2.326936  0
