# generated using pymatgen
data_CdH9C11N2ClO4
_symmetry_space_group_name_H-M   'P 1'
_cell_length_a   7.05506972
_cell_length_b   13.04985844
_cell_length_c   13.42470000
_cell_angle_alpha   90.00000000
_cell_angle_beta   90.00000000
_cell_angle_gamma   90.47774932
_symmetry_Int_Tables_number   1
_chemical_formula_structural   CdH9C11N2ClO4
_chemical_formula_sum   'Cd4 H36 C44 N8 Cl4 O16'
_cell_volume   1235.93776408
_cell_formula_units_Z   4
loop_
 _symmetry_equiv_pos_site_id
 _symmetry_equiv_pos_as_xyz
  1  'x, y, z'
loop_
 _atom_site_type_symbol
 _atom_site_label
 _atom_site_symmetry_multiplicity
 _atom_site_fract_x
 _atom_site_fract_y
 _atom_site_fract_z
 _atom_site_occupancy
 _atom_site_hle17_bader_spin_density
 _atom_site_hle17_ddec_charge
 _atom_site_hle17_ddec_spin_density
 _atom_site_hle17_ddec_sum_bond_order
 _atom_site_hle17_magmom
 _atom_site_hse06_10hf_bader_spin_density
 _atom_site_hse06_10hf_ddec_charge
 _atom_site_hse06_10hf_ddec_spin_density
 _atom_site_hse06_10hf_ddec_sum_bond_order
 _atom_site_hse06_10hf_magmom
 _atom_site_hse06_bader_spin_density
 _atom_site_hse06_ddec_charge
 _atom_site_hse06_ddec_spin_density
 _atom_site_hse06_ddec_sum_bond_order
 _atom_site_hse06_magmom
 _atom_site_pbe_bader_charge
 _atom_site_pbe_bader_spin_density
 _atom_site_pbe_cm5_charge
 _atom_site_pbe_ddec_charge
 _atom_site_pbe_ddec_spin_density
 _atom_site_pbe_ddec_sum_bond_order
 _atom_site_pbe_magmom
Cd  Cd0  1  0.86142324  0.41292228  0.55866798  1  0  1.162716  0  1.766278  0  0  0.993693  0  2.246064  0  0  1.051224  0  2.182254  0  1.253387  0  0.703207  0.952974  0  2.289643  0
Cd  Cd1  1  0.63857418  0.08707983  0.05866798  1  0  1.162726  0  1.766258  0  0  0.993723  0  2.246037  0  0  1.051252  0  2.182228  0  1.253385  0  0.703235  0.953001  0  2.289619  0
Cd  Cd2  1  0.13857716  0.58707965  0.44133128  1  0  1.162728  0  1.766205  0  0  0.993744  0  2.245973  0  0  1.051274  0  2.182161  0  1.253457  0  0.703262  0.953025  0  2.289551  0
Cd  Cd3  1  0.36142052  0.91291980  0.94133128  1  0  1.162667  0  1.766321  0  0  0.993666  0  2.246116  0  0  1.051197  0  2.182305  0  1.25346  0  0.703237  0.952946  0  2.289695  0
H  H4  1  0.50821755  0.74155413  0.51803988  1  0  0.126254  0  0.932179  0  0  0.135199  0  1.000047  0  0  0.137737  0  0.998538  0  0.138804  0  0.118184  0.133354  0  1.001256  0
H  H5  1  0.99178018  0.75844609  0.01804063  1  0  0.126241  0  0.932214  0  0  0.135215  0  1.000046  0  0  0.137752  0  0.998537  0  0.1386  0  0.118186  0.133369  0  1.001254  0
H  H6  1  0.49178564  0.25844474  0.48195863  1  0  0.12627  0  0.932192  0  0  0.135212  0  1.00006  0  0  0.13775  0  0.998551  0  0.138588  0  0.118199  0.133368  0  1.001262  0
H  H7  1  0.00821596  0.24155508  0.98195937  1  0  0.126244  0  0.932201  0  0  0.135193  0  1.00007  0  0  0.137731  0  0.998561  0  0.13858  0  0.118186  0.133347  0  1.001278  0
H  H8  1  0.54696361  0.71679744  0.64533882  1  0  0.118984  0  0.919344  0  0  0.13115  0  0.979029  0  0  0.13344  0  0.977412  0  0.113722  0  0.12311  0.129432  0  0.980341  0
H  H9  1  0.95303555  0.78320354  0.14533956  1  0  0.119009  0  0.91927  0  0  0.131198  0  0.978931  0  0  0.133487  0  0.977315  0  0.113691  0  0.123121  0.129479  0  0.980244  0
H  H10  1  0.45303536  0.28320372  0.35465969  1  0  0.119015  0  0.919303  0  0  0.131168  0  0.979  0  0  0.13346  0  0.977383  0  0.113699  0  0.123109  0.129449  0  0.980313  0
H  H11  1  0.04696340  0.21679610  0.85466118  1  0  0.119003  0  0.919303  0  0  0.131161  0  0.979005  0  0  0.133452  0  0.97739  0  0.113714  0  0.123116  0.129441  0  0.980321  0
H  H12  1  0.76110057  0.83940457  0.74533509  1  0  0.133573  0  0.904796  0  0  0.143219  0  0.961772  0  0  0.146595  0  0.956868  0  0.20777  0  0.155528  0.140616  0  0.965428  0
H  H13  1  0.73890141  0.66059565  0.24533584  1  0  0.133608  0  0.904727  0  0  0.143248  0  0.96169  0  0  0.146629  0  0.956788  0  0.207747  0  0.155554  0.140646  0  0.965346  0
H  H14  1  0.23890406  0.16059583  0.25466193  1  0  0.133635  0  0.904818  0  0  0.143305  0  0.961739  0  0  0.146687  0  0.956837  0  0.207737  0  0.155563  0.140703  0  0.965394  0
H  H15  1  0.26109893  0.33940245  0.75466416  1  0  0.133633  0  0.904786  0  0  0.143296  0  0.961725  0  0  0.146673  0  0.95682  0  0.207747  0  0.155584  0.140693  0  0.965381  0
H  H16  1  0.60584995  0.85131546  0.37849337  1  0  0.117045  0  0.956341  0  0  0.125092  0  1.018283  0  0  0.128454  0  1.016341  0  0.112926  0  0.099437  0.122626  0  1.019782  0
H  H17  1  0.89415203  0.64868476  0.87849412  1  0  0.117095  0  0.956336  0  0  0.125133  0  1.018282  0  0  0.128496  0  1.016338  0  0.112893  0  0.099464  0.122666  0  1.019782  0
H  H18  1  0.39415039  0.14868264  0.62150588  1  0  0.117035  0  0.956337  0  0  0.125082  0  1.01828  0  0  0.128444  0  1.016337  0  0.112925  0  0.099438  0.122616  0  1.019778  0
H  H19  1  0.10584697  0.35131794  0.12150663  1  0  0.117063  0  0.956348  0  0  0.12512  0  1.018271  0  0  0.128483  0  1.016327  0  0.112952  0  0.099464  0.122654  0  1.019769  0
H  H20  1  0.66481994  0.01480527  0.28514157  1  0  0.095801  0  0.976957  0  0  0.103932  0  1.044452  0  0  0.106806  0  1.042934  0  0.106144  0  0.094766  0.101806  0  1.045643  0
H  H21  1  0.83517748  0.48519608  0.78514231  1  0  0.095805  0  0.976965  0  0  0.103932  0  1.044463  0  0  0.106806  0  1.042945  0  0.106177  0  0.094771  0.101806  0  1.045649  0
H  H22  1  0.33517618  0.98519436  0.71485694  1  0  0.095838  0  0.976939  0  0  0.103966  0  1.044433  0  0  0.106841  0  1.042915  0  0.106195  0  0.094775  0.10183  0  1.045647  0
H  H23  1  0.16482294  0.51480662  0.21485694  1  0  0.095802  0  0.976959  0  0  0.103926  0  1.04446  0  0  0.106799  0  1.042943  0  0.106158  0  0.094767  0.101791  0  1.04567  0
H  H24  1  0.80142944  0.16653020  0.36818551  1  0  0.101755  0  0.957566  0  0  0.108924  0  1.023767  0  0  0.111989  0  1.022325  0  0.120437  0  0.093134  0.106649  0  1.024963  0
H  H25  1  0.69856799  0.33347191  0.86818700  1  0  0.101784  0  0.957541  0  0  0.108948  0  1.023759  0  0  0.112012  0  1.022316  0  0.120468  0  0.093163  0.10667  0  1.024958  0
H  H26  1  0.19856388  0.83347173  0.63181151  1  0  0.101762  0  0.957564  0  0  0.108928  0  1.023763  0  0  0.111991  0  1.022321  0  0.120421  0  0.093156  0.106653  0  1.024958  0
H  H27  1  0.30143806  0.66652848  0.13181151  1  0  0.101749  0  0.957612  0  0  0.108921  0  1.023806  0  0  0.111985  0  1.022364  0  0.1204  0  0.093158  0.106645  0  1.025003  0
H  H28  1  0.87932542  0.16479909  0.54918844  1  0  0.116463  0  0.973269  0  0  0.121473  0  1.043496  0  0  0.125106  0  1.040529  0  0.126912  0  0.100955  0.1188  0  1.045754  0
H  H29  1  0.62067482  0.33520226  0.04918918  1  0  0.116487  0  0.973256  0  0  0.121491  0  1.043479  0  0  0.125124  0  1.040512  0  0.126919  0  0.100962  0.118819  0  1.045735  0
H  H30  1  0.12067213  0.83520208  0.45081007  1  0  0.11644  0  0.973287  0  0  0.121502  0  1.04346  0  0  0.125134  0  1.040495  0  0.126906  0  0.100958  0.118826  0  1.045723  0
H  H31  1  0.37932979  0.66479661  0.95080933  1  0  0.116441  0  0.973311  0  0  0.121508  0  1.043476  0  0  0.125141  0  1.04051  0  0.126907  0  0.100961  0.118833  0  1.045739  0
H  H32  1  0.86033841  0.12652454  0.71708865  1  0  0.121718  0  0.9284  0  0  0.132266  0  0.991738  0  0  0.135198  0  0.989307  0  0.124673  0  0.118547  0.130135  0  0.993603  0
H  H33  1  0.63965900  0.37347604  0.21708567  1  0  0.121695  0  0.928448  0  0  0.132271  0  0.991756  0  0  0.135203  0  0.989324  0  0.124584  0  0.118539  0.130141  0  0.993616  0
H  H34  1  0.13965913  0.87347509  0.28291284  1  0  0.121672  0  0.92842  0  0  0.132231  0  0.991761  0  0  0.135162  0  0.989331  0  0.124643  0  0.118537  0.130103  0  0.993619  0
H  H35  1  0.36034563  0.62652360  0.78291358  1  0  0.121726  0  0.928393  0  0  0.132274  0  0.991737  0  0  0.135206  0  0.989307  0  0.124616  0  0.118544  0.130145  0  0.993597  0
H  H36  1  0.00146463  0.02943659  0.77412829  1  0  0.122349  0  0.933209  0  0  0.129043  0  1.004531  0  0  0.1314  0  1.003164  0  0.118044  0  0.117969  0.127323  0  1.005604  0
H  H37  1  0.49853553  0.47056169  0.27412680  1  0  0.122371  0  0.933217  0  0  0.129054  0  1.004556  0  0  0.131412  0  1.003188  0  0.118059  0  0.11797  0.127334  0  1.005627  0
H  H38  1  0.99853008  0.97056381  0.22587395  1  0  0.122366  0  0.933178  0  0  0.129044  0  1.004544  0  0  0.131404  0  1.003174  0  0.118005  0  0.117968  0.127324  0  1.005618  0
H  H39  1  0.50146904  0.52943488  0.72587246  1  0  0.122345  0  0.933222  0  0  0.129048  0  1.004538  0  0  0.131408  0  1.003166  0  0.117999  0  0.117963  0.127328  0  1.005611  0
C  C40  1  0.76504827  0.66039257  0.54571350  1  0  0.701524  0  3.865853  0  0  0.651907  0  4.167121  0  0  0.686886  0  4.159649  0  1.623915  0  0.212129  0.628115  0  4.171339  0
C  C41  1  0.73495093  0.83961071  0.04571350  1  0  0.70135  0  3.86605  0  0  0.651818  0  4.167192  0  0  0.686797  0  4.159721  0  1.623753  0  0.212107  0.628024  0  4.171413  0
C  C42  1  0.23495927  0.33961242  0.45428948  1  0  0.701657  0  3.865754  0  0  0.652057  0  4.166985  0  0  0.687039  0  4.15951  0  1.624205  0  0.212194  0.628262  0  4.171204  0
C  C43  1  0.26504093  0.16038816  0.95429023  1  0  0.701426  0  3.866009  0  0  0.651926  0  4.167085  0  0  0.686907  0  4.159614  0  1.623937  0  0.212137  0.628132  0  4.171309  0
C  C44  1  0.61750686  0.73993413  0.57637862  1  0  -0.150371  0  3.59572  0  0  -0.209859  0  3.84331  0  0  -0.210576  0  3.848419  0  0.271071  0  -0.049247  -0.209274  0  3.839851  0
C  C45  1  0.88249375  0.76006915  0.07637862  1  0  -0.150381  0  3.595633  0  0  -0.209944  0  3.84322  0  0  -0.210662  0  3.848338  0  0.271301  0  -0.049281  -0.209355  0  3.839757  0
C  C46  1  0.38249496  0.26006780  0.42362213  1  0  -0.150487  0  3.595712  0  0  -0.209983  0  3.843297  0  0  -0.210704  0  3.848411  0  0.271308  0  -0.049302  -0.209403  0  3.839859  0
C  C47  1  0.11750523  0.23993202  0.92362213  1  0  -0.150363  0  3.595701  0  0  -0.209918  0  3.843308  0  0  -0.21064  0  3.848426  0  0.271295  0  -0.049273  -0.209335  0  3.839859  0
C  C48  1  0.75539486  0.88118119  0.67578642  1  0  0.202077  0  3.512784  0  0  0.122217  0  3.7888  0  0  0.143614  0  3.792216  0  1.043728  0  0.195559  0.108199  0  3.786331  0
C  C49  1  0.74460852  0.61881750  0.17578866  1  0  0.202065  0  3.512714  0  0  0.122244  0  3.788685  0  0  0.143633  0  3.792112  0  1.043716  0  0.195595  0.108225  0  3.786215  0
C  C50  1  0.24460834  0.11881845  0.32421134  1  0  0.20198  0  3.51276  0  0  0.122123  0  3.788749  0  0  0.14351  0  3.792174  0  1.043717  0  0.195546  0.108105  0  3.786278  0
C  C51  1  0.25539326  0.38118137  0.82421209  1  0  0.20205  0  3.512688  0  0  0.122198  0  3.788679  0  0  0.143596  0  3.792092  0  1.043727  0  0.195552  0.108179  0  3.786212  0
C  C52  1  0.71025626  0.91871393  0.51615455  1  0  0.107978  0  3.782346  0  0  0.097541  0  4.026518  0  0  0.100737  0  4.049616  0  0.369965  0  0.101362  0.095357  0  4.010918  0
C  C53  1  0.78974713  0.58128552  0.01615530  1  0  0.107986  0  3.78238  0  0  0.097565  0  4.026525  0  0  0.100763  0  4.049621  0  0.369956  0  0.101367  0.09538  0  4.010926  0
C  C54  1  0.28974269  0.08128570  0.48384545  1  0  0.107958  0  3.78234  0  0  0.097526  0  4.026514  0  0  0.100722  0  4.04961  0  0.369968  0  0.101366  0.095341  0  4.010915  0
C  C55  1  0.21025608  0.41871412  0.98384545  1  0  0.107986  0  3.782275  0  0  0.097559  0  4.026458  0  0  0.100756  0  4.049555  0  0.369962  0  0.101369  0.095375  0  4.010859  0
C  C56  1  0.66613317  0.91879210  0.41492622  1  0  -0.131111  0  3.723054  0  0  -0.149254  0  3.975698  0  0  -0.151744  0  3.994953  0  -0.034015  0  -0.090496  -0.147557  0  3.962745  0
C  C57  1  0.83386457  0.58120888  0.91492547  1  0  -0.131169  0  3.723141  0  0  -0.149313  0  3.975787  0  0  -0.151803  0  3.995039  0  -0.033974  0  -0.090509  -0.147616  0  3.962835  0
C  C58  1  0.33386580  0.08120830  0.58507304  1  0  -0.131035  0  3.723085  0  0  -0.149175  0  3.975719  0  0  -0.151665  0  3.994973  0  -0.034051  0  -0.090463  -0.147476  0  3.962764  0
C  C59  1  0.16613441  0.41879305  0.08507453  1  0  -0.131192  0  3.723124  0  0  -0.149343  0  3.975771  0  0  -0.151833  0  3.995025  0  -0.034016  0  -0.090539  -0.147644  0  3.962818  0
C  C60  1  0.69972191  0.01017211  0.36401111  1  0  -0.065518  0  3.745805  0  0  -0.087507  0  4.011088  0  0  -0.089385  0  4.032869  0  -0.013573  0  -0.097176  -0.086217  0  3.996409  0
C  C61  1  0.80027834  0.48982924  0.86401186  1  0  -0.065487  0  3.745827  0  0  -0.087477  0  4.011116  0  0  -0.089353  0  4.032894  0  -0.013593  0  -0.097179  -0.086185  0  3.996435  0
C  C62  1  0.30027566  0.98982982  0.63598740  1  0  -0.065587  0  3.745914  0  0  -0.087586  0  4.011217  0  0  -0.089464  0  4.032998  0  -0.013565  0  -0.09722  -0.086296  0  3.996531  0
C  C63  1  0.19972489  0.51017193  0.13598814  1  0  -0.065438  0  3.745832  0  0  -0.08743  0  4.011126  0  0  -0.089307  0  4.032905  0  -0.013574  0  -0.097179  -0.086141  0  3.996441  0
C  C64  1  0.77549708  0.09747035  0.41200846  1  0  -0.062848  0  3.736646  0  0  -0.084627  0  4.00524  0  0  -0.086691  0  4.02688  0  -0.094149  0  -0.096817  -0.083181  0  3.990644  0
C  C65  1  0.72450033  0.40253100  0.91200846  1  0  -0.062864  0  3.736562  0  0  -0.084647  0  4.005147  0  0  -0.08671  0  4.026786  0  -0.094147  0  -0.096827  -0.083201  0  3.990553  0
C  C66  1  0.22449764  0.90253082  0.58799079  1  0  -0.06287  0  3.736634  0  0  -0.084647  0  4.005242  0  0  -0.08671  0  4.026882  0  -0.094087  0  -0.096847  -0.083199  0  3.990643  0
C  C67  1  0.27550290  0.59747016  0.08799228  1  0  -0.06287  0  3.736779  0  0  -0.084649  0  4.005379  0  0  -0.086712  0  4.027019  0  -0.094143  0  -0.096837  -0.083201  0  3.99078  0
C  C68  1  0.81896309  0.09743126  0.51316975  1  0  -0.132487  0  3.741498  0  0  -0.155685  0  4.0035  0  0  -0.158105  0  4.023265  0  0.018328  0  -0.09222  -0.154019  0  3.990134  0
C  C69  1  0.68103856  0.40256932  0.01317050  1  0  -0.132523  0  3.741497  0  0  -0.15571  0  4.003487  0  0  -0.15813  0  4.023252  0  0.018316  0  -0.092266  -0.154043  0  3.99012  0
C  C70  1  0.18103447  0.90257067  0.48682876  1  0  -0.132451  0  3.741534  0  0  -0.155686  0  4.003527  0  0  -0.158107  0  4.023295  0  0.018305  0  -0.092192  -0.154019  0  3.990161  0
C  C71  1  0.31896890  0.59743031  0.98683174  1  0  -0.132504  0  3.741578  0  0  -0.155743  0  4.003591  0  0  -0.158164  0  4.023357  0  0.018318  0  -0.092248  -0.154076  0  3.990225  0
C  C72  1  0.78320653  0.00649455  0.56456606  1  0  0.096639  0  3.784096  0  0  0.087161  0  4.027381  0  0  0.089774  0  4.051321  0  0.30502  0  0.100078  0.085456  0  4.011079  0
C  C73  1  0.71679510  0.49350450  0.06456681  1  0  0.096573  0  3.784215  0  0  0.087102  0  4.027483  0  0  0.089716  0  4.051421  0  0.304889  0  0.100069  0.085397  0  4.011182  0
C  C74  1  0.21679100  0.99350508  0.43543394  1  0  0.096625  0  3.784117  0  0  0.087126  0  4.027438  0  0  0.089739  0  4.051376  0  0.30496  0  0.100044  0.085421  0  4.011135  0
C  C75  1  0.28320811  0.50649513  0.93543394  1  0  0.096697  0  3.784018  0  0  0.087174  0  4.027379  0  0  0.089787  0  4.051318  0  0.305017  0  0.100073  0.085469  0  4.011078  0
C  C76  1  0.85946109  0.04776923  0.74573287  1  0  -0.155131  0  3.582358  0  0  -0.21274  0  3.826553  0  0  -0.213887  0  3.832434  0  0.264431  0  -0.049017  -0.211932  0  3.822707  0
C  C77  1  0.64053767  0.45222752  0.24573361  1  0  -0.155222  0  3.582268  0  0  -0.212842  0  3.826539  0  0  -0.213992  0  3.832418  0  0.264186  0  -0.049051  -0.21203  0  3.822689  0
C  C78  1  0.14053361  0.95223040  0.25426862  1  0  -0.155061  0  3.582254  0  0  -0.212698  0  3.826518  0  0  -0.213848  0  3.832402  0  0.264408  0  -0.049039  -0.21189  0  3.822672  0
C  C79  1  0.35946548  0.54776905  0.75426713  1  0  -0.155188  0  3.582358  0  0  -0.212803  0  3.826575  0  0  -0.213954  0  3.832458  0  0.264423  0  -0.049036  -0.211993  0  3.822727  0
C  C80  1  0.72174247  0.04157124  0.83449537  1  0  0.705594  0  3.859044  0  0  0.654856  0  4.160229  0  0  0.690043  0  4.15307  0  1.617708  0  0.217909  0.630942  0  4.164178  0
C  C81  1  0.77826053  0.45842474  0.33449463  1  0  0.705834  0  3.858495  0  0  0.654984  0  4.15986  0  0  0.69017  0  4.1527  0  1.617155  0  0.217977  0.631068  0  4.163809  0
C  C82  1  0.27825223  0.95842839  0.16550314  1  0  0.705563  0  3.859016  0  0  0.654817  0  4.160237  0  0  0.690003  0  4.153084  0  1.61697  0  0.217988  0.630901  0  4.164181  0
C  C83  1  0.22174836  0.54157566  0.66550314  1  0  0.705703  0  3.859096  0  0  0.654957  0  4.1603  0  0  0.690143  0  4.153141  0  1.617281  0  0.218034  0.63104  0  4.164249  0
N  N84  1  0.69488471  0.84273576  0.58866418  1  0  -0.065838  0  3.552572  0  0  0.017133  0  3.779049  0  0  0.00234  0  3.802296  0  -1.251427  0  -0.222917  0.026806  0  3.763265  0
N  N85  1  0.80511868  0.65726369  0.08866492  1  0  -0.065805  0  3.552505  0  0  0.017143  0  3.778997  0  0  0.002349  0  3.802245  0  -1.251336  0  -0.222927  0.026816  0  3.763214  0
N  N86  1  0.30511282  0.15726388  0.41133657  1  0  -0.06574  0  3.552454  0  0  0.017227  0  3.778915  0  0  0.002434  0  3.802166  0  -1.251354  0  -0.222869  0.026898  0  3.76313  0
N  N87  1  0.19488311  0.34273594  0.91133582  1  0  -0.065771  0  3.552422  0  0  0.017207  0  3.778886  0  0  0.002414  0  3.802134  0  -1.251358  0  -0.222885  0.026878  0  3.763103  0
N  N88  1  0.80780930  0.97958491  0.66433961  1  0  -0.062394  0  3.538664  0  0  0.021712  0  3.761004  0  0  0.006583  0  3.785012  0  -1.216079  0  -0.223136  0.031567  0  3.744739  0
N  N89  1  0.69219267  0.52041454  0.16434185  1  0  -0.062428  0  3.538698  0  0  0.021674  0  3.761  0  0  0.006543  0  3.785012  0  -1.215936  0  -0.223209  0.031527  0  3.744735  0
N  N90  1  0.19219108  0.02041549  0.33566039  1  0  -0.062437  0  3.538674  0  0  0.021678  0  3.761022  0  0  0.00655  0  3.785027  0  -1.216078  0  -0.223166  0.031533  0  3.744758  0
N  N91  1  0.30781336  0.47958433  0.83566039  1  0  -0.062494  0  3.538662  0  0  0.021612  0  3.761029  0  0  0.006485  0  3.785031  0  -1.216068  0  -0.223188  0.031466  0  3.744766  0
Cl  Cl92  1  0.65078971  0.30545071  0.66407294  1  0  -0.626166  0  0.773455  0  0  -0.555734  0  1.006806  0  0  -0.57575  0  0.984506  0  -0.672413  0  -0.334444  -0.541377  0  1.022208  0
Cl  Cl93  1  0.84921189  0.19454680  0.16407369  1  0  -0.626171  0  0.773478  0  0  -0.555741  0  1.006821  0  0  -0.575757  0  0.984525  0  -0.6724  0  -0.334428  -0.541382  0  1.022225  0
Cl  Cl94  1  0.34921351  0.69455045  0.33592855  1  0  -0.626175  0  0.773477  0  0  -0.555744  0  1.006819  0  0  -0.575752  0  0.984511  0  -0.672407  0  -0.334443  -0.541385  0  1.022224  0
Cl  Cl95  1  0.15078986  0.80545053  0.83592557  1  0  -0.626184  0  0.773502  0  0  -0.55575  0  1.00685  0  0  -0.575766  0  0.984549  0  -0.672412  0  -0.334454  -0.54139  0  1.022254  0
O  O96  1  0.73027453  0.57041069  0.57616781  1  0  -0.646515  0  2.033268  0  0  -0.580898  0  2.289485  0  0  -0.611199  0  2.277062  0  -1.16521  0  -0.326727  -0.559721  0  2.297229  0
O  O97  1  0.76972888  0.92959029  0.07616409  1  0  -0.64642  0  2.033478  0  0  -0.580825  0  2.289631  0  0  -0.611126  0  2.277211  0  -1.165255  0  -0.326703  -0.55965  0  2.297375  0
O  O98  1  0.26973298  0.42959277  0.42383219  1  0  -0.646659  0  2.033314  0  0  -0.581044  0  2.289495  0  0  -0.611344  0  2.27707  0  -1.165339  0  -0.326808  -0.559865  0  2.297241  0
O  O99  1  0.23027293  0.07041087  0.92383368  1  0  -0.646518  0  2.033464  0  0  -0.580942  0  2.289612  0  0  -0.611239  0  2.277186  0  -1.16526  0  -0.326773  -0.559765  0  2.297359  0
O  O100  1  0.90077786  0.69211433  0.49192757  1  0  -0.636583  0  2.026012  0  0  -0.573786  0  2.278993  0  0  -0.603543  0  2.267965  0  -1.163494  0  -0.326157  -0.55297  0  2.285784  0
O  O101  1  0.59920990  0.80788282  0.99193278  1  0  -0.63653  0  2.025976  0  0  -0.573751  0  2.2789  0  0  -0.603508  0  2.267872  0  -1.163329  0  -0.326134  -0.552934  0  2.285691  0
O  O102  1  0.09922683  0.30788990  0.50807839  1  0  -0.636588  0  2.025884  0  0  -0.573776  0  2.278828  0  0  -0.603532  0  2.267799  0  -1.163632  0  -0.326137  -0.552959  0  2.285618  0
O  O103  1  0.40077767  0.19211451  0.00807690  1  0  -0.636551  0  2.025954  0  0  -0.573764  0  2.278837  0  0  -0.603523  0  2.267809  0  -1.163466  0  -0.326131  -0.552947  0  2.285629  0
O  O104  1  0.59311223  0.97367736  0.83265250  1  0  -0.662839  0  2.080489  0  0  -0.598955  0  2.339463  0  0  -0.629259  0  2.328003  0  -1.174188  0  -0.321276  -0.577625  0  2.346393  0
O  O105  1  0.90688251  0.52631289  0.33265473  1  0  -0.662972  0  2.08072  0  0  -0.599067  0  2.339752  0  0  -0.629371  0  2.328302  0  -1.174079  0  -0.321352  -0.577738  0  2.346688  0
O  O106  1  0.40688521  0.02631614  0.16734452  1  0  -0.662952  0  2.080811  0  0  -0.599065  0  2.339794  0  0  -0.629367  0  2.328335  0  -1.174105  0  -0.321344  -0.577737  0  2.346728  0
O  O107  1  0.09311209  0.47368061  0.66734825  1  0  -0.662992  0  2.080562  0  0  -0.599101  0  2.339528  0  0  -0.62942  0  2.328106  0  -1.174081  0  -0.32137  -0.577769  0  2.346457  0
O  O108  1  0.75745408  0.10625006  0.90223320  1  0  -0.632626  0  2.026865  0  0  -0.567453  0  2.282446  0  0  -0.597765  0  2.271607  0  -1.152465  0  -0.322263  -0.546244  0  2.289005  0
O  O109  1  0.74253752  0.39374210  0.40223692  1  0  -0.632669  0  2.026287  0  0  -0.567405  0  2.281871  0  0  -0.597717  0  2.271031  0  -1.151798  0  -0.322189  -0.546209  0  2.288466  0
O  O110  1  0.24252645  0.89374958  0.09776159  1  0  -0.632468  0  2.026552  0  0  -0.567301  0  2.282148  0  0  -0.597611  0  2.27131  0  -1.151752  0  -0.322239  -0.54611  0  2.288746  0
O  O111  1  0.25745993  0.60625217  0.59776755  1  0  -0.632534  0  2.026831  0  0  -0.567377  0  2.28243  0  0  -0.597682  0  2.271583  0  -1.152084  0  -0.322273  -0.546184  0  2.289025  0
