# generated using pymatgen
data_CdH26C30N2O5
_symmetry_space_group_name_H-M   'P 1'
_cell_length_a   8.37779546
_cell_length_b   12.48869192
_cell_length_c   12.48868198
_cell_angle_alpha   84.12712599
_cell_angle_beta   81.73232395
_cell_angle_gamma   81.73250836
_symmetry_Int_Tables_number   1
_chemical_formula_structural   CdH26C30N2O5
_chemical_formula_sum   'Cd2 H52 C60 N4 O10'
_cell_volume   1275.18913089
_cell_formula_units_Z   2
loop_
 _symmetry_equiv_pos_site_id
 _symmetry_equiv_pos_as_xyz
  1  'x, y, z'
loop_
 _atom_site_type_symbol
 _atom_site_label
 _atom_site_symmetry_multiplicity
 _atom_site_fract_x
 _atom_site_fract_y
 _atom_site_fract_z
 _atom_site_occupancy
 _atom_site_hle17_bader_spin_density
 _atom_site_hle17_ddec_charge
 _atom_site_hle17_ddec_spin_density
 _atom_site_hle17_ddec_sum_bond_order
 _atom_site_hle17_magmom
 _atom_site_hse06_10hf_bader_spin_density
 _atom_site_hse06_10hf_ddec_charge
 _atom_site_hse06_10hf_ddec_spin_density
 _atom_site_hse06_10hf_ddec_sum_bond_order
 _atom_site_hse06_10hf_magmom
 _atom_site_hse06_bader_spin_density
 _atom_site_hse06_ddec_charge
 _atom_site_hse06_ddec_spin_density
 _atom_site_hse06_ddec_sum_bond_order
 _atom_site_hse06_magmom
 _atom_site_pbe_bader_spin_density
 _atom_site_pbe_cm5_charge
 _atom_site_pbe_ddec_charge
 _atom_site_pbe_ddec_spin_density
 _atom_site_pbe_ddec_sum_bond_order
 _atom_site_pbe_magmom
Cd  Cd0  1  0.74999865  0.37373435  0.62626684  1  0  1.114253  0  1.686764  0  0  0.916661  0  2.133972  0  0  0.974614  0  2.082066  0  0  0.758183  0.875748  0  2.169144  0
Cd  Cd1  1  0.24999985  0.62626642  0.37373381  1  0  1.11425  0  1.686798  0  0  0.916658  0  2.134017  0  0  0.974612  0  2.082108  0  0  0.758182  0.875745  0  2.169192  0
H  H2  1  0.65857829  0.57188910  0.47162522  1  0  0.421549  0  0.890977  0  0  0.388308  0  0.959324  0  0  0.399907  0  0.942485  0  0  0.281252  0.380112  0  0.971193  0
H  H3  1  0.84142158  0.52837497  0.42811105  1  0  0.421562  0  0.890956  0  0  0.388322  0  0.959299  0  0  0.399921  0  0.942461  0  0  0.281255  0.380126  0  0.971171  0
H  H4  1  0.34142141  0.42811168  0.52837451  1  0  0.421569  0  0.890951  0  0  0.388329  0  0.959293  0  0  0.399928  0  0.942454  0  0  0.281266  0.380133  0  0.971164  0
H  H5  1  0.15857933  0.47162581  0.57188856  1  0  0.421542  0  0.890991  0  0  0.388294  0  0.959348  0  0  0.399894  0  0.942509  0  0  0.281248  0.380098  0  0.97122  0
H  H6  1  0.78320549  0.13203151  0.53628458  1  0  0.082797  0  0.950343  0  0  0.090826  0  1.014759  0  0  0.092818  0  1.013823  0  0  0.114246  0.089305  0  1.015485  0
H  H7  1  0.71679356  0.46371640  0.86796812  1  0  0.082817  0  0.950315  0  0  0.090848  0  1.014726  0  0  0.092839  0  1.013791  0  0  0.114254  0.089326  0  1.015455  0
H  H8  1  0.21679317  0.86796846  0.46371453  1  0  0.082785  0  0.950352  0  0  0.090815  0  1.014764  0  0  0.092807  0  1.013828  0  0  0.114229  0.089293  0  1.015492  0
H  H9  1  0.28320734  0.53628439  0.13203070  1  0  0.082802  0  0.950326  0  0  0.090833  0  1.014738  0  0  0.092825  0  1.013802  0  0  0.114246  0.089311  0  1.015468  0
H  H10  1  0.94745068  0.02072798  0.39464514  1  0  0.103085  0  0.954488  0  0  0.114723  0  1.013052  0  0  0.117708  0  1.012951  0  0  0.104868  0.11257  0  1.013304  0
H  H11  1  0.55254877  0.60535544  0.97927237  1  0  0.103097  0  0.954469  0  0  0.114733  0  1.01303  0  0  0.117718  0  1.012928  0  0  0.104874  0.112581  0  1.013288  0
H  H12  1  0.05254661  0.97927280  0.60535322  1  0  0.103074  0  0.954499  0  0  0.114694  0  1.01307  0  0  0.11768  0  1.012969  0  0  0.104864  0.112544  0  1.013318  0
H  H13  1  0.44745110  0.39464452  0.02072742  1  0  0.103116  0  0.954485  0  0  0.11475  0  1.013044  0  0  0.117736  0  1.012943  0  0  0.104872  0.112597  0  1.0133  0
H  H14  1  0.21736292  0.29252151  0.29329013  1  0  0.106296  0  0.955644  0  0  0.117001  0  1.015371  0  0  0.119611  0  1.016026  0  0  0.1065  0.115048  0  1.015195  0
H  H15  1  0.28263642  0.70670968  0.70747887  1  0  0.106284  0  0.955654  0  0  0.116989  0  1.015387  0  0  0.119599  0  1.016042  0  0  0.106509  0.115038  0  1.01521  0
H  H16  1  0.78263920  0.70747927  0.70670936  1  0  0.106282  0  0.955719  0  0  0.116977  0  1.01546  0  0  0.119587  0  1.016113  0  0  0.106493  0.115023  0  1.015281  0
H  H17  1  0.71736328  0.29329110  0.29252086  1  0  0.106266  0  0.955694  0  0  0.116966  0  1.015434  0  0  0.119577  0  1.016089  0  0  0.10649  0.115018  0  1.015249  0
H  H18  1  0.04609741  0.39037697  0.43817800  1  0  0.090907  0  0.966184  0  0  0.099682  0  1.02983  0  0  0.102538  0  1.026766  0  0  0.117316  0.097535  0  1.032132  0
H  H19  1  0.45390224  0.56182251  0.60962264  1  0  0.090884  0  0.966219  0  0  0.099693  0  1.029824  0  0  0.102548  0  1.026763  0  0  0.11732  0.097544  0  1.032127  0
H  H20  1  0.95390246  0.60962299  0.56182259  1  0  0.090886  0  0.966215  0  0  0.099694  0  1.029822  0  0  0.102549  0  1.026763  0  0  0.117322  0.097545  0  1.032124  0
H  H21  1  0.54609746  0.43817827  0.39037629  1  0  0.090878  0  0.966226  0  0  0.099655  0  1.029869  0  0  0.10251  0  1.026808  0  0  0.117288  0.097507  0  1.032176  0
H  H22  1  0.19914447  0.99318225  0.26391463  1  0  0.104315  0  0.941712  0  0  0.118384  0  0.998443  0  0  0.121387  0  0.997326  0  0  0.107849  0.116222  0  0.999368  0
H  H23  1  0.30085471  0.73608488  0.00681951  1  0  0.104292  0  0.941685  0  0  0.118376  0  0.998399  0  0  0.121379  0  0.997281  0  0  0.10786  0.116214  0  0.999329  0
H  H24  1  0.80085524  0.00681853  0.73608430  1  0  0.104334  0  0.941701  0  0  0.118399  0  0.99843  0  0  0.121403  0  0.997313  0  0  0.107859  0.116239  0  0.999355  0
H  H25  1  0.69914532  0.26391427  0.99318115  1  0  0.104314  0  0.941697  0  0  0.118379  0  0.998436  0  0  0.121382  0  0.997319  0  0  0.107843  0.116212  0  0.999366  0
H  H26  1  0.28002543  0.20969902  0.14203994  1  0  0.077776  0  0.965838  0  0  0.088859  0  1.033044  0  0  0.090808  0  1.032362  0  0  0.097041  0.087451  0  1.033605  0
H  H27  1  0.21997331  0.85796041  0.79030038  1  0  0.077773  0  0.96582  0  0  0.088831  0  1.033048  0  0  0.090781  0  1.032366  0  0  0.097034  0.087423  0  1.033612  0
H  H28  1  0.71997443  0.79030095  0.85796066  1  0  0.077778  0  0.965806  0  0  0.088859  0  1.033016  0  0  0.090808  0  1.032334  0  0  0.097034  0.087451  0  1.033578  0
H  H29  1  0.78002519  0.14204037  0.20969947  1  0  0.077771  0  0.965834  0  0  0.088854  0  1.033042  0  0  0.090803  0  1.03236  0  0  0.097037  0.087441  0  1.03361  0
H  H30  1  0.40902879  0.19627285  0.96062664  1  0  0.082241  0  0.953658  0  0  0.095108  0  1.013683  0  0  0.097693  0  1.012498  0  0  0.09721  0.093242  0  1.0146  0
H  H31  1  0.09096957  0.03937260  0.80372749  1  0  0.08217  0  0.953625  0  0  0.095058  0  1.013638  0  0  0.097644  0  1.012453  0  0  0.097185  0.093193  0  1.014567  0
H  H32  1  0.59097108  0.80372711  0.03937476  1  0  0.082226  0  0.953629  0  0  0.09509  0  1.013659  0  0  0.097676  0  1.012474  0  0  0.097194  0.09323  0  1.014581  0
H  H33  1  0.90902668  0.96062735  0.19627426  1  0  0.082214  0  0.953645  0  0  0.095082  0  1.013673  0  0  0.097668  0  1.012487  0  0  0.097202  0.093214  0  1.014601  0
H  H34  1  0.41178650  0.90352099  0.17883057  1  0  0.111231  0  0.990243  0  0  0.118724  0  1.054184  0  0  0.12267  0  1.051395  0  0  0.099949  0.115867  0  1.056248  0
H  H35  1  0.08820955  0.82116897  0.09648110  1  0  0.111262  0  0.990277  0  0  0.118765  0  1.054193  0  0  0.122711  0  1.051406  0  0  0.09997  0.115904  0  1.056261  0
H  H36  1  0.58821095  0.09647897  0.82116945  1  0  0.111216  0  0.99026  0  0  0.118726  0  1.054187  0  0  0.122674  0  1.051394  0  0  0.099953  0.115866  0  1.056248  0
H  H37  1  0.91178839  0.17882854  0.90352152  1  0  0.11119  0  0.990307  0  0  0.118722  0  1.054211  0  0  0.122672  0  1.051412  0  0  0.099952  0.115863  0  1.05628  0
H  H38  1  0.07148696  0.29989710  0.02579060  1  0  0.088815  0  0.963988  0  0  0.100678  0  1.02699  0  0  0.103172  0  1.026678  0  0  0.096933  0.098909  0  1.027241  0
H  H39  1  0.42851354  0.97420924  0.70010322  1  0  0.088826  0  0.96398  0  0  0.100677  0  1.026996  0  0  0.10317  0  1.026686  0  0  0.096923  0.098894  0  1.02726  0
H  H40  1  0.92851411  0.70010287  0.97420828  1  0  0.088822  0  0.963996  0  0  0.100671  0  1.027016  0  0  0.103166  0  1.026701  0  0  0.096915  0.0989  0  1.027269  0
H  H41  1  0.57148617  0.02579154  0.29989651  1  0  0.088822  0  0.963994  0  0  0.10067  0  1.02702  0  0  0.103165  0  1.026707  0  0  0.096906  0.098892  0  1.027277  0
H  H42  1  0.05553644  0.59666380  0.81751099  1  0  0.089322  0  0.963887  0  0  0.100213  0  1.027682  0  0  0.102605  0  1.027804  0  0  0.095815  0.098524  0  1.027658  0
H  H43  1  0.44446341  0.18248851  0.40333580  1  0  0.089335  0  0.963842  0  0  0.100227  0  1.027635  0  0  0.10262  0  1.027755  0  0  0.095816  0.098531  0  1.027614  0
H  H44  1  0.94446342  0.40333617  0.18248801  1  0  0.089316  0  0.96385  0  0  0.100204  0  1.027652  0  0  0.102595  0  1.027774  0  0  0.095812  0.098513  0  1.027625  0
H  H45  1  0.55553630  0.81751227  0.59666393  1  0  0.089318  0  0.963865  0  0  0.100212  0  1.027658  0  0  0.102604  0  1.02778  0  0  0.095814  0.098515  0  1.027639  0
H  H46  1  0.19376651  0.29496293  0.84220731  1  0  0.107558  0  0.930953  0  0  0.122668  0  0.991197  0  0  0.125082  0  0.989788  0  0  0.101421  0.120968  0  0.99223  0
H  H47  1  0.30623257  0.15779262  0.70503813  1  0  0.107633  0  0.931011  0  0  0.122749  0  0.991241  0  0  0.125159  0  0.98983  0  0  0.101455  0.121049  0  0.992277  0
H  H48  1  0.80623439  0.70503784  0.15779230  1  0  0.107574  0  0.930999  0  0  0.122685  0  0.991237  0  0  0.125095  0  0.989825  0  0  0.101428  0.120984  0  0.992274  0
H  H49  1  0.69376730  0.84220735  0.29496166  1  0  0.107617  0  0.931021  0  0  0.122729  0  0.991252  0  0  0.125142  0  0.989842  0  0  0.101452  0.121032  0  0.992286  0
H  H50  1  0.24367962  0.41701144  0.76472429  1  0  0.113012  0  0.933245  0  0  0.127026  0  0.992325  0  0  0.129049  0  0.991758  0  0  0.099871  0.12559  0  0.992802  0
H  H51  1  0.25632097  0.23527553  0.58298944  1  0  0.113034  0  0.93324  0  0  0.127055  0  0.99232  0  0  0.129074  0  0.991751  0  0  0.099881  0.125619  0  0.992799  0
H  H52  1  0.75632250  0.58298934  0.23527521  1  0  0.113022  0  0.933234  0  0  0.127045  0  0.992305  0  0  0.129061  0  0.991738  0  0  0.099891  0.125608  0  0.992786  0
H  H53  1  0.74367889  0.76472443  0.41701035  1  0  0.113034  0  0.933214  0  0  0.127054  0  0.992292  0  0  0.129075  0  0.991725  0  0  0.099891  0.125619  0  0.992769  0
C  C54  1  0.88062201  0.16430166  0.48022877  1  0  0.120845  0  3.740114  0  0  0.091658  0  3.991278  0  0  0.100061  0  4.009249  0  0  0.040573  0.086308  0  3.978929  0
C  C55  1  0.61937787  0.51977191  0.83569847  1  0  0.120863  0  3.740061  0  0  0.091675  0  3.991216  0  0  0.100079  0  4.009188  0  0  0.040586  0.086322  0  3.978878  0
C  C56  1  0.11937785  0.83569831  0.51977022  1  0  0.120899  0  3.740078  0  0  0.091714  0  3.991222  0  0  0.100117  0  4.009194  0  0  0.040643  0.086364  0  3.978875  0
C  C57  1  0.38062079  0.48022805  0.16430144  1  0  0.120874  0  3.740035  0  0  0.091685  0  3.991191  0  0  0.100089  0  4.009163  0  0  0.040579  0.086331  0  3.978855  0
C  C58  1  0.97254364  0.10296264  0.40074829  1  0  -0.185112  0  3.721822  0  0  -0.20093  0  3.969328  0  0  -0.209932  0  3.989867  0  0  -0.08988  -0.195132  0  3.955501  0
C  C59  1  0.52745604  0.59925238  0.89703690  1  0  -0.185138  0  3.721814  0  0  -0.200922  0  3.969325  0  0  -0.209925  0  3.989865  0  0  -0.089882  -0.19513  0  3.955514  0
C  C60  1  0.02745502  0.89703734  0.59925002  1  0  -0.185093  0  3.721765  0  0  -0.200864  0  3.969293  0  0  -0.209866  0  3.989833  0  0  -0.089878  -0.195066  0  3.955468  0
C  C61  1  0.47254261  0.40074758  0.10296301  1  0  -0.185139  0  3.72185  0  0  -0.200935  0  3.96935  0  0  -0.209939  0  3.98989  0  0  -0.089878  -0.195142  0  3.955535  0
C  C62  1  0.09811301  0.14628638  0.32956644  1  0  0.142957  0  3.816749  0  0  0.15618  0  4.047638  0  0  0.163615  0  4.069563  0  0  0.007838  0.151445  0  4.032553  0
C  C63  1  0.40188625  0.67043339  0.85371374  1  0  0.142977  0  3.816745  0  0  0.156134  0  4.047721  0  0  0.16357  0  4.069646  0  0  0.007828  0.151398  0  4.032643  0
C  C64  1  0.90188943  0.85371277  0.67043479  1  0  0.142919  0  3.816783  0  0  0.156067  0  4.047762  0  0  0.163504  0  4.069684  0  0  0.00782  0.15133  0  4.032684  0
C  C65  1  0.59811361  0.32956658  0.14628606  1  0  0.142919  0  3.816884  0  0  0.156109  0  4.047806  0  0  0.163544  0  4.069733  0  0  0.007829  0.151373  0  4.03272  0
C  C66  1  0.12122444  0.25330360  0.34354360  1  0  -0.170979  0  3.696941  0  0  -0.183554  0  3.939657  0  0  -0.191929  0  3.959716  0  0  -0.084662  -0.178171  0  3.926332  0
C  C67  1  0.37877557  0.65645683  0.74669631  1  0  -0.170951  0  3.696972  0  0  -0.183514  0  3.939712  0  0  -0.191889  0  3.959772  0  0  -0.084681  -0.178135  0  3.926402  0
C  C68  1  0.87877920  0.74669555  0.65645831  1  0  -0.170956  0  3.697106  0  0  -0.183507  0  3.939827  0  0  -0.191881  0  3.959886  0  0  -0.084665  -0.178119  0  3.926514  0
C  C69  1  0.62122534  0.34354395  0.25330330  1  0  -0.170912  0  3.697037  0  0  -0.183481  0  3.939752  0  0  -0.191855  0  3.959811  0  0  -0.084653  -0.178101  0  3.92644  0
C  C70  1  0.02533544  0.30886513  0.42543906  1  0  0.130894  0  3.713379  0  0  0.099395  0  3.964855  0  0  0.107777  0  3.981655  0  0  0.042359  0.093936  0  3.953518  0
C  C71  1  0.47466342  0.57456031  0.69113487  1  0  0.130877  0  3.713377  0  0  0.099364  0  3.964839  0  0  0.107746  0  3.981638  0  0  0.042366  0.093901  0  3.953509  0
C  C72  1  0.97466443  0.69113483  0.57456073  1  0  0.130901  0  3.713392  0  0  0.099381  0  3.964855  0  0  0.107762  0  3.981654  0  0  0.042364  0.093924  0  3.953512  0
C  C73  1  0.52533628  0.42544047  0.30886406  1  0  0.130896  0  3.71339  0  0  0.099396  0  3.964859  0  0  0.107778  0  3.981659  0  0  0.042394  0.093932  0  3.953532  0
C  C74  1  0.19926824  0.08093672  0.24947858  1  0  -0.128508  0  3.733948  0  0  -0.148181  0  3.987468  0  0  -0.154642  0  4.008965  0  0  -0.089772  -0.143751  0  3.972626  0
C  C75  1  0.30073142  0.75052098  0.91906432  1  0  -0.128479  0  3.733874  0  0  -0.14815  0  3.987395  0  0  -0.154608  0  4.00889  0  0  -0.089755  -0.143729  0  3.972573  0
C  C76  1  0.80073284  0.91906324  0.75052350  1  0  -0.128462  0  3.73392  0  0  -0.148108  0  3.987447  0  0  -0.154569  0  4.008945  0  0  -0.089746  -0.14368  0  3.972614  0
C  C77  1  0.69926981  0.24947817  0.08093622  1  0  -0.128489  0  3.733953  0  0  -0.148153  0  3.987476  0  0  -0.154612  0  4.008971  0  0  -0.089765  -0.143729  0  3.972643  0
C  C78  1  0.28893372  0.12148922  0.15942613  1  0  -0.077167  0  3.726592  0  0  -0.09846  0  3.976836  0  0  -0.097216  0  3.996939  0  0  -0.076036  -0.099095  0  3.96292  0
C  C79  1  0.21106795  0.84057334  0.87851164  1  0  -0.077176  0  3.726684  0  0  -0.098447  0  3.976909  0  0  -0.097209  0  3.997015  0  0  -0.076074  -0.099083  0  3.963014  0
C  C80  1  0.71106599  0.87851155  0.84057521  1  0  -0.077217  0  3.726671  0  0  -0.098521  0  3.976879  0  0  -0.097283  0  3.996987  0  0  -0.076066  -0.099155  0  3.962971  0
C  C81  1  0.78893329  0.15942581  0.12148890  1  0  -0.077153  0  3.726613  0  0  -0.098443  0  3.976845  0  0  -0.0972  0  3.99695  0  0  -0.076043  -0.099086  0  3.962941  0
C  C82  1  0.39483534  0.05829340  0.07975811  1  0  0.082944  0  3.82175  0  0  0.101527  0  4.053049  0  0  0.100439  0  4.079411  0  0  -0.011515  0.102266  0  4.035031  0
C  C83  1  0.10516337  0.92023945  0.94170647  1  0  0.082873  0  3.821927  0  0  0.101476  0  4.053187  0  0  0.100396  0  4.079548  0  0  -0.011549  0.102207  0  4.035187  0
C  C84  1  0.60516211  0.94170656  0.92024272  1  0  0.082888  0  3.821885  0  0  0.101537  0  4.053081  0  0  0.100456  0  4.079444  0  0  -0.011495  0.102272  0  4.035072  0
C  C85  1  0.89483352  0.07975726  0.05829393  1  0  0.082914  0  3.821822  0  0  0.101498  0  4.053121  0  0  0.100411  0  4.079487  0  0  -0.011514  0.102238  0  4.035101  0
C  C86  1  0.44963670  0.10991469  0.97801519  1  0  -0.105131  0  3.746532  0  0  -0.124229  0  3.994441  0  0  -0.127621  0  4.017789  0  0  -0.086722  -0.121812  0  3.978433  0
C  C87  1  0.05036103  0.02198287  0.89008662  1  0  -0.105031  0  3.74649  0  0  -0.124148  0  3.994382  0  0  -0.127546  0  4.017733  0  0  -0.086671  -0.121739  0  3.978404  0
C  C88  1  0.55036180  0.89008608  0.02198546  1  0  -0.10507  0  3.746521  0  0  -0.124181  0  3.994398  0  0  -0.127579  0  4.017747  0  0  -0.086682  -0.121768  0  3.978407  0
C  C89  1  0.94963570  0.97801465  0.10991452  1  0  -0.105041  0  3.746556  0  0  -0.124137  0  3.99445  0  0  -0.12753  0  4.0178  0  0  -0.086703  -0.121729  0  3.97846  0
C  C90  1  0.44776864  0.94649998  0.10044776  1  0  -0.106721  0  3.704487  0  0  -0.124471  0  3.948293  0  0  -0.127683  0  3.970007  0  0  -0.087202  -0.122156  0  3.933504  0
C  C91  1  0.05222890  0.89955082  0.05350053  1  0  -0.106753  0  3.704593  0  0  -0.124507  0  3.948362  0  0  -0.127727  0  3.970079  0  0  -0.087212  -0.122197  0  3.933582  0
C  C92  1  0.55223002  0.05349998  0.89955295  1  0  -0.106645  0  3.704509  0  0  -0.124424  0  3.948282  0  0  -0.127643  0  3.969999  0  0  -0.087178  -0.122107  0  3.933483  0
C  C93  1  0.94776783  0.10044670  0.94650060  1  0  -0.106645  0  3.704535  0  0  -0.124433  0  3.948331  0  0  -0.127646  0  3.970048  0  0  -0.087196  -0.122126  0  3.933551  0
C  C94  1  0.04130911  0.38793612  0.01447828  1  0  -0.128682  0  3.766562  0  0  -0.14892  0  4.015885  0  0  -0.151148  0  4.037267  0  0  -0.098902  -0.147323  0  4.001373  0
C  C95  1  0.45869175  0.98552120  0.61206417  1  0  -0.12869  0  3.76659  0  0  -0.148894  0  4.015904  0  0  -0.15112  0  4.037291  0  0  -0.098917  -0.147298  0  4.001404  0
C  C96  1  0.95869180  0.61206467  0.98552054  1  0  -0.128628  0  3.766589  0  0  -0.148848  0  4.015891  0  0  -0.151075  0  4.037279  0  0  -0.098862  -0.147252  0  4.001382  0
C  C97  1  0.54130916  0.01447958  0.38793545  1  0  -0.128653  0  3.766555  0  0  -0.14887  0  4.015863  0  0  -0.151097  0  4.037249  0  0  -0.098856  -0.147276  0  4.00136  0
C  C98  1  0.07457627  0.44121802  0.91106729  1  0  0.108702  0  3.761706  0  0  0.128765  0  3.998002  0  0  0.128963  0  4.022223  0  0  -0.014774  0.128573  0  3.981652  0
C  C99  1  0.42542344  0.08893249  0.55878295  1  0  0.108699  0  3.761601  0  0  0.128719  0  3.997975  0  0  0.128902  0  4.022207  0  0  -0.01478  0.128523  0  3.981625  0
C  C100  1  0.92542480  0.55878194  0.08893319  1  0  0.108608  0  3.76172  0  0  0.128666  0  3.998021  0  0  0.128849  0  4.022248  0  0  -0.014807  0.128475  0  3.981664  0
C  C101  1  0.57457522  0.91106747  0.44121776  1  0  0.108616  0  3.761631  0  0  0.128666  0  3.997957  0  0  0.128854  0  4.022187  0  0  -0.014829  0.128466  0  3.981615  0
C  C102  1  0.03178322  0.55404024  0.89768713  1  0  -0.123498  0  3.760717  0  0  -0.143178  0  4.009831  0  0  -0.145999  0  4.032155  0  0  -0.099339  -0.141167  0  3.994649  0
C  C103  1  0.46821574  0.10231251  0.44595989  1  0  -0.123479  0  3.760635  0  0  -0.143139  0  4.00976  0  0  -0.145958  0  4.032087  0  0  -0.099339  -0.141129  0  3.994576  0
C  C104  1  0.96821768  0.44596054  0.10231169  1  0  -0.12344  0  3.760665  0  0  -0.143115  0  4.009785  0  0  -0.145934  0  4.032113  0  0  -0.099323  -0.141102  0  3.994593  0
C  C105  1  0.53178276  0.89768826  0.55403996  1  0  -0.123449  0  3.760718  0  0  -0.143121  0  4.009825  0  0  -0.145941  0  4.032151  0  0  -0.099319  -0.141112  0  3.994645  0
C  C106  1  0.14557548  0.37807805  0.81451553  1  0  -0.303242  0  3.688276  0  0  -0.346798  0  3.932223  0  0  -0.351777  0  3.93827  0  0  -0.161938  -0.343401  0  3.928092  0
C  C107  1  0.35442496  0.18548443  0.62192288  1  0  -0.303353  0  3.688402  0  0  -0.346941  0  3.93241  0  0  -0.351895  0  3.938432  0  0  -0.161995  -0.343547  0  3.928289  0
C  C108  1  0.85442663  0.62192273  0.18548397  1  0  -0.303261  0  3.688345  0  0  -0.346837  0  3.9323  0  0  -0.351788  0  3.938317  0  0  -0.161973  -0.34344  0  3.928174  0
C  C109  1  0.64557474  0.81451635  0.37807685  1  0  -0.303305  0  3.688373  0  0  -0.346885  0  3.932354  0  0  -0.351853  0  3.938393  0  0  -0.161991  -0.343491  0  3.928235  0
C  C110  1  0.01045102  0.37284563  0.74595234  1  0  0.68923  0  3.864844  0  0  0.642193  0  4.163932  0  0  0.674821  0  4.15902  0  0  0.199795  0.620127  0  4.166304  0
C  C111  1  0.48954876  0.25404757  0.62715386  1  0  0.689215  0  3.864926  0  0  0.642199  0  4.163993  0  0  0.674822  0  4.159078  0  0  0.19979  0.620134  0  4.166367  0
C  C112  1  0.98955005  0.62715433  0.25404733  1  0  0.689321  0  3.864797  0  0  0.642307  0  4.163849  0  0  0.674929  0  4.158934  0  0  0.199853  0.620242  0  4.166222  0
C  C113  1  0.51045094  0.74595321  0.37284587  1  0  0.689251  0  3.864836  0  0  0.642234  0  4.163905  0  0  0.67486  0  4.158994  0  0  0.199835  0.620172  0  4.166284  0
N  N114  1  0.90666787  0.26573277  0.49378585  1  0  -0.3457  0  3.236319  0  0  -0.268038  0  3.499371  0  0  -0.288779  0  3.517544  0  0  -0.334253  -0.253973  0  3.486672  0
N  N115  1  0.59333196  0.50621463  0.73426612  1  0  -0.345688  0  3.236283  0  0  -0.268032  0  3.499346  0  0  -0.288773  0  3.51752  0  0  -0.334264  -0.253967  0  3.486649  0
N  N116  1  0.09333095  0.73426639  0.50621252  1  0  -0.345722  0  3.236318  0  0  -0.268068  0  3.499389  0  0  -0.288808  0  3.517561  0  0  -0.334299  -0.254003  0  3.486686  0
N  N117  1  0.40666878  0.49378696  0.26573263  1  0  -0.345704  0  3.236293  0  0  -0.268044  0  3.49935  0  0  -0.288785  0  3.517522  0  0  -0.334277  -0.253981  0  3.486657  0
O  O118  1  0.90201243  0.31226152  0.78094794  1  0  -0.631358  0  1.934668  0  0  -0.570057  0  2.165871  0  0  -0.596733  0  2.156264  0  0  -0.322795  -0.551397  0  2.171729  0
O  O119  1  0.59798656  0.21905216  0.68773932  1  0  -0.63133  0  1.934657  0  0  -0.570031  0  2.165853  0  0  -0.596709  0  2.156249  0  0  -0.322783  -0.551373  0  2.171712  0
O  O120  1  0.09798848  0.68773925  0.21905247  1  0  -0.631369  0  1.934669  0  0  -0.57009  0  2.165881  0  0  -0.596766  0  2.156276  0  0  -0.322809  -0.551436  0  2.171744  0
O  O121  1  0.40201330  0.78094780  0.31226128  1  0  -0.631345  0  1.934673  0  0  -0.570045  0  2.165867  0  0  -0.596721  0  2.156262  0  0  -0.32279  -0.551383  0  2.171728  0
O  O122  1  0.00575895  0.43400600  0.65732902  1  0  -0.666903  0  2.0215  0  0  -0.594086  0  2.258355  0  0  -0.623986  0  2.249476  0  0  -0.325695  -0.573134  0  2.263675  0
O  O123  1  0.49424352  0.34266933  0.56599349  1  0  -0.666896  0  2.021516  0  0  -0.594077  0  2.258353  0  0  -0.623976  0  2.249477  0  0  -0.325684  -0.573124  0  2.263674  0
O  O124  1  0.99424469  0.56599316  0.34266969  1  0  -0.666972  0  2.021433  0  0  -0.594145  0  2.258256  0  0  -0.624044  0  2.249378  0  0  -0.325722  -0.573193  0  2.263579  0
O  O125  1  0.50575891  0.65732983  0.43400533  1  0  -0.666912  0  2.021433  0  0  -0.594106  0  2.258287  0  0  -0.624005  0  2.249409  0  0  -0.325705  -0.573146  0  2.263606  0
O  O126  1  0.75000007  0.51393560  0.48606455  1  0  -0.877346  0  1.873522  0  0  -0.818861  0  2.089511  0  0  -0.841337  0  2.053656  0  0  -0.612915  -0.802801  0  2.114293  0
O  O127  1  0.25000100  0.48606437  0.51393513  1  0  -0.877333  0  1.873524  0  0  -0.818853  0  2.089526  0  0  -0.84133  0  2.053669  0  0  -0.612918  -0.802795  0  2.114307  0
