# generated using pymatgen
data_TbH19C23O9
_symmetry_space_group_name_H-M   'P 1'
_cell_length_a   14.87872312
_cell_length_b   14.88038098
_cell_length_c   24.10535531
_cell_angle_alpha   99.14443054
_cell_angle_beta   103.57256216
_cell_angle_gamma   111.25201319
_symmetry_Int_Tables_number   1
_chemical_formula_structural   TbH19C23O9
_chemical_formula_sum   'Tb4 H76 C92 O36'
_cell_volume   4656.46447992
_cell_formula_units_Z   4
loop_
 _symmetry_equiv_pos_site_id
 _symmetry_equiv_pos_as_xyz
  1  'x, y, z'
loop_
 _atom_site_type_symbol
 _atom_site_label
 _atom_site_symmetry_multiplicity
 _atom_site_fract_x
 _atom_site_fract_y
 _atom_site_fract_z
 _atom_site_occupancy
 _atom_site_pbe_bader_charge
 _atom_site_pbe_bader_spin_density
 _atom_site_pbe_cm5_charge
 _atom_site_pbe_ddec_charge
 _atom_site_pbe_ddec_spin_density
 _atom_site_pbe_ddec_sum_bond_order
 _atom_site_pbe_magmom
Tb  Tb0  1  0.90036090  0.34723055  0.04316681  1  2.153099  0  1.492807  1.998727  0  2.184193  0
Tb  Tb1  1  0.80394123  0.85717638  0.45681528  1  2.153982  0  1.493711  2.001144  0  2.183789  0
Tb  Tb2  1  0.09963904  0.65276900  0.95683213  1  2.15302  0  1.492828  1.998725  0  2.184191  0
Tb  Tb3  1  0.19606059  0.14282098  0.54318329  1  2.153963  0  1.493731  2.001148  0  2.183844  0
H  H4  1  0.98964779  0.54384092  0.24330482  1  0.056665  0  0.103273  0.104439  0  1.035307  0
H  H5  1  0.80034957  0.74644558  0.25667962  1  0.076439  0  0.103446  0.104589  0  1.035479  0
H  H6  1  0.01035016  0.45615490  0.75669512  1  0.056676  0  0.103285  0.10448  0  1.035264  0
H  H7  1  0.19964997  0.25355624  0.74332115  1  0.076404  0  0.103451  0.104602  0  1.035543  0
H  H8  1  0.34452478  0.57754508  0.29513815  1  0.032869  0  0.103356  0.105865  0  1.011475  0
H  H9  1  0.78232250  0.04949102  0.20484539  1  0.045561  0  0.102967  0.10433  0  1.013573  0
H  H10  1  0.65547444  0.42245401  0.70485933  1  0.032926  0  0.103338  0.105832  0  1.011446  0
H  H11  1  0.21767484  0.95051016  0.79515469  1  0.04559  0  0.103011  0.104349  0  1.013585  0
H  H12  1  0.21444132  0.45371959  0.20422347  1  0.090033  0  0.10738  0.111116  0  0.997374  0
H  H13  1  0.74942206  0.01039450  0.29577045  1  0.089913  0  0.107323  0.11065  0  0.997347  0
H  H14  1  0.78555517  0.54627616  0.79577502  1  0.090007  0  0.107385  0.111099  0  0.997414  0
H  H15  1  0.25057717  0.98960813  0.70423075  1  0.089996  0  0.107266  0.110529  0  0.99732  0
H  H16  1  0.44682980  0.67727735  0.36397299  1  0.08768  0  0.104995  0.11414  0  1.017419  0
H  H17  1  0.81286601  0.08270654  0.13588242  1  0.083416  0  0.105052  0.111674  0  1.020672  0
H  H18  1  0.55316898  0.32271844  0.63602630  1  0.087755  0  0.104974  0.114132  0  1.01748  0
H  H19  1  0.18713415  0.91729547  0.86411822  1  0.083445  0  0.104996  0.111608  0  1.02067  0
H  H20  1  0.35313631  0.90422025  0.48884918  1  0.081188  0  0.106623  0.111229  0  1.016366  0
H  H21  1  0.91548689  0.86448844  0.01121642  1  0.079019  0  0.106626  0.111386  0  1.015984  0
H  H22  1  0.64686070  0.09577533  0.51114983  1  0.081137  0  0.106664  0.111277  0  1.01643  0
H  H23  1  0.08451013  0.13551077  0.98878409  1  0.07898  0  0.106612  0.11135  0  1.016026  0
H  H24  1  0.53067500  0.92409129  0.51191337  1  0.097124  0  0.104884  0.107722  0  1.012857  0
H  H25  1  0.91209759  0.01879798  0.98807074  1  0.080063  0  0.104672  0.107521  0  1.013363  0
H  H26  1  0.46932167  0.07590136  0.48808681  1  0.096962  0  0.104938  0.10779  0  1.012793  0
H  H27  1  0.08789890  0.98119959  0.01192850  1  0.080016  0  0.104675  0.107483  0  1.013361  0
H  H28  1  0.22048657  0.90123482  0.46376036  1  0.152658  0  0.113919  0.124751  0  1.022688  0
H  H29  1  0.93793212  0.75717491  0.03642310  1  0.122889  0  0.113485  0.125177  0  1.02184  0
H  H30  1  0.77951233  0.09876594  0.53623904  1  0.152605  0  0.113975  0.124847  0  1.0228  0
H  H31  1  0.06206719  0.24282531  0.96357745  1  0.122855  0  0.113467  0.125108  0  1.02189  0
H  H32  1  0.95363877  0.62852936  0.29313033  1  0.043057  0  0.099866  0.099425  0  1.022934  0
H  H33  1  0.83561656  0.66078260  0.20694994  1  0.033881  0  0.099561  0.098888  0  1.023999  0
H  H34  1  0.04636023  0.37146899  0.70686842  1  0.043128  0  0.099851  0.099405  0  1.022955  0
H  H35  1  0.16438808  0.33922095  0.79305366  1  0.033868  0  0.099593  0.098911  0  1.024009  0
H  H36  1  0.91202216  0.75147171  0.35092386  1  0.103402  0  0.105129  0.109832  0  1.038918  0
H  H37  1  0.90106785  0.56157265  0.14923635  1  0.114742  0  0.104792  0.109921  0  1.038561  0
H  H38  1  0.08797704  0.24852450  0.64907583  1  0.103432  0  0.105111  0.109799  0  1.038909  0
H  H39  1  0.09893669  0.43843063  0.85076567  1  0.115053  0  0.104782  0.109922  0  1.038561  0
H  H40  1  0.74521045  0.10275744  0.91351820  1  0.044306  0  0.103249  0.098163  0  0.981808  0
H  H41  1  0.68921339  0.83191803  0.58648642  1  0.043814  0  0.10333  0.098534  0  0.981848  0
H  H42  1  0.25478373  0.89723635  0.08648099  1  0.044227  0  0.103228  0.098136  0  0.981781  0
H  H43  1  0.31080805  0.16810825  0.41352265  1  0.043769  0  0.103291  0.098569  0  0.981894  0
H  H44  1  0.62173369  0.10577076  0.89613684  1  0.031603  0  0.098764  0.089312  0  0.98194  0
H  H45  1  0.70953483  0.72579494  0.60388796  1  0.0486  0  0.098871  0.089913  0  0.981003  0
H  H46  1  0.37826208  0.89422634  0.10386093  1  0.031603  0  0.098777  0.089329  0  0.981818  0
H  H47  1  0.29047636  0.27422490  0.39611987  1  0.04843  0  0.09887  0.089937  0  0.98113  0
H  H48  1  0.67716376  0.08898135  0.96588535  1  0.070673  0  0.108501  0.110315  0  0.97858  0
H  H49  1  0.62306513  0.71148583  0.53411372  1  0.064572  0  0.108687  0.110345  0  0.979466  0
H  H50  1  0.32282877  0.91101536  0.03411294  1  0.07048  0  0.10853  0.110352  0  0.978562  0
H  H51  1  0.37694169  0.28853811  0.46589720  1  0.065139  0  0.108722  0.110411  0  0.979548  0
H  H52  1  0.69208643  0.40588841  0.93711363  1  0.064662  0  0.103806  0.100075  0  0.978404  0
H  H53  1  0.96901857  0.75515582  0.56284159  1  0.045123  0  0.103315  0.099077  0  0.981257  0
H  H54  1  0.30791599  0.59410551  0.06288333  1  0.064605  0  0.103813  0.100077  0  0.978451  0
H  H55  1  0.03098127  0.24484346  0.43715577  1  0.045147  0  0.103323  0.099057  0  0.981257  0
H  H56  1  0.75821379  0.46657241  0.89059549  1  0.064677  0  0.101068  0.098885  0  0.989498  0
H  H57  1  0.07620270  0.86786393  0.60932124  1  0.064095  0  0.101001  0.099186  0  0.990602  0
H  H58  1  0.24178854  0.53342295  0.10940285  1  0.064824  0  0.101092  0.09893  0  0.989298  0
H  H59  1  0.92379922  0.13213293  0.39067521  1  0.064133  0  0.101004  0.099218  0  0.990639  0
H  H60  1  0.79322523  0.52866476  0.96736992  1  0.05109  0  0.101192  0.098917  0  1.006226  0
H  H61  1  0.06139804  0.82607525  0.53252533  1  0.054094  0  0.100421  0.098463  0  1.007231  0
H  H62  1  0.20677489  0.47132720  0.03262772  1  0.050915  0  0.101197  0.098889  0  1.006072  0
H  H63  1  0.93860034  0.17392119  0.46747057  1  0.054231  0  0.100474  0.098495  0  1.00722  0
H  H64  1  0.75540543  0.27154516  0.93088190  1  0.647067  0  0.320205  0.355736  0  0.941055  0
H  H65  1  0.84067934  0.82464269  0.56914927  1  0.610695  0  0.319332  0.352882  0  0.943271  0
H  H66  1  0.24459303  0.72844877  0.06911558  1  0.646382  0  0.320224  0.355748  0  0.941048  0
H  H67  1  0.15932857  0.17536326  0.43085013  1  0.610847  0  0.319322  0.352903  0  0.943202  0
H  H68  1  0.89870785  0.44502892  0.94094117  1  0.643501  0  0.311855  0.351877  0  0.972066  0
H  H69  1  0.00405479  0.95785071  0.55901124  1  0.642565  0  0.311097  0.350781  0  0.97373  0
H  H70  1  0.10129500  0.55496724  0.05905694  1  0.643534  0  0.311884  0.351852  0  0.972137  0
H  H71  1  0.99594787  0.04214845  0.44098743  1  0.642569  0  0.311058  0.350777  0  0.973708  0
H  H72  1  0.78343256  0.37860208  0.10665334  1  0.648316  0  0.324074  0.423333  0  0.877496  0
H  H73  1  0.77188041  0.67668945  0.39335109  1  0.647045  0  0.325376  0.424478  0  0.875963  0
H  H74  1  0.21657157  0.62140088  0.89334604  1  0.649163  0  0.324086  0.423314  0  0.877516  0
H  H75  1  0.22811952  0.32330819  0.60664934  1  0.647018  0  0.325344  0.424433  0  0.876031  0
H  H76  1  0.69831892  0.29979219  0.04972789  1  0.636768  0  0.338386  0.423913  0  0.857263  0
H  H77  1  0.75001494  0.64857045  0.45028780  1  0.608255  0  0.339323  0.426003  0  0.854432  0
H  H78  1  0.30167960  0.70021371  0.95027112  1  0.636723  0  0.338442  0.424067  0  0.857066  0
H  H79  1  0.24998125  0.35143071  0.54971188  1  0.608267  0  0.339297  0.425983  0  0.854464  0
C  C80  1  0.01672162  0.42460342  0.16155691  1  1.546003  0  0.190466  0.585145  0  4.208267  0
C  C81  1  0.76285275  0.85527835  0.33842581  1  1.547356  0  0.190712  0.585829  0  4.208825  0
C  C82  1  0.98327643  0.57539459  0.83844314  1  1.545973  0  0.190491  0.585172  0  4.208358  0
C  C83  1  0.23714835  0.14472305  0.66157427  1  1.547373  0  0.190747  0.585976  0  4.208639  0
C  C84  1  0.09381743  0.49240181  0.21893767  1  -0.02517  0  -0.018665  -0.025251  0  3.989209  0
C  C85  1  0.77320941  0.87495426  0.28103278  1  -0.0364  0  -0.018282  -0.021674  0  3.985418  0
C  C86  1  0.90618208  0.50759541  0.78106234  1  -0.025142  0  -0.018663  -0.025233  0  3.989359  0
C  C87  1  0.22679023  0.12504879  0.71896884  1  -0.036399  0  -0.018248  -0.021898  0  3.985597  0
C  C88  1  0.06819226  0.55302025  0.25637727  1  -0.013139  0  -0.077979  -0.12448  0  3.932686  0
C  C89  1  0.79647242  0.81192809  0.24361490  1  -0.028987  0  -0.077045  -0.125052  0  3.928532  0
C  C90  1  0.93180559  0.44697712  0.74362183  1  -0.013102  0  -0.077964  -0.124511  0  3.932662  0
C  C91  1  0.20352826  0.18807556  0.75638701  1  -0.029026  0  -0.077015  -0.12493  0  3.928621  0
C  C92  1  0.14070883  0.62595553  0.30801221  1  0.015619  0  -0.005573  0.022182  0  3.976246  0
C  C93  1  0.81794100  0.83287715  0.19202120  1  -0.000651  0  -0.005825  0.023504  0  3.971944  0
C  C94  1  0.85928902  0.37404185  0.69198689  1  0.015647  0  -0.005591  0.022157  0  3.976292  0
C  C95  1  0.18205989  0.16712628  0.80798018  1  -0.000656  0  -0.005814  0.023453  0  3.971958  0
C  C96  1  0.24293815  0.63585802  0.32252443  1  -0.036688  0  0.000375  0.039608  0  3.964692  0
C  C97  1  0.81321446  0.92050045  0.17746320  1  0.002633  0  -0.000362  0.039064  0  3.96327  0
C  C98  1  0.75706065  0.36414151  0.67747412  1  -0.036712  0  0.000286  0.039546  0  3.964656  0
C  C99  1  0.18678633  0.07950262  0.82253881  1  0.002669  0  -0.000287  0.039179  0  3.963273  0
C  C100  1  0.26689269  0.57138324  0.28466775  1  -0.026729  0  -0.092724  -0.136684  0  4.00541  0
C  C101  1  0.78652983  0.98228999  0.21529752  1  -0.097891  0  -0.092641  -0.135592  0  4.006183  0
C  C102  1  0.73310871  0.42861639  0.71533264  1  -0.026783  0  -0.092722  -0.136686  0  4.005517  0
C  C103  1  0.21346898  0.01771222  0.78470327  1  -0.097634  0  -0.092694  -0.135637  0  4.006283  0
C  C104  1  0.19461705  0.50154028  0.23368103  1  -0.048782  0  -0.084375  -0.094044  0  4.004208  0
C  C105  1  0.76768235  0.96104407  0.26628751  1  0.02529  0  -0.083846  -0.094073  0  4.004345  0
C  C106  1  0.80538237  0.49845849  0.76631814  1  -0.048764  0  -0.084359  -0.093997  0  4.004408  0
C  C107  1  0.23231792  0.03895918  0.73371398  1  0.025035  0  -0.08383  -0.093859  0  4.004274  0
C  C108  1  0.60532089  0.81613893  0.44951558  1  1.544325  0  0.183122  0.565871  0  4.246136  0
C  C109  1  0.86654331  0.15586730  0.05045233  1  1.523321  0  0.183333  0.568315  0  4.243079  0
C  C110  1  0.39467675  0.18385867  0.55048405  1  1.544372  0  0.183119  0.565791  0  4.246048  0
C  C111  1  0.13345330  0.84413246  0.94954703  1  1.523035  0  0.183335  0.568375  0  4.243082  0
C  C112  1  0.49749506  0.80080521  0.43819592  1  -0.004506  0  -0.020337  -0.02607  0  4.005551  0
C  C113  1  0.86242992  0.05930372  0.06175293  1  -0.024669  0  -0.020299  -0.029021  0  4.007491  0
C  C114  1  0.50250310  0.19919317  0.56180349  1  -0.004205  0  -0.020274  -0.025899  0  4.00537  0
C  C115  1  0.13756835  0.94069589  0.93824733  1  -0.024415  0  -0.020261  -0.029042  0  4.007538  0
C  C116  1  0.42256182  0.72513216  0.39008433  1  -0.111768  0  -0.078497  -0.13107  0  3.929257  0
C  C117  1  0.83477326  0.03241654  0.10982548  1  -0.047145  0  -0.078275  -0.126591  0  3.932422  0
C  C118  1  0.57743644  0.27486381  0.60991444  1  -0.111825  0  -0.078515  -0.131165  0  3.929333  0
C  C119  1  0.16522626  0.96758250  0.89017528  1  -0.046975  0  -0.078238  -0.126475  0  3.932417  0
C  C120  1  0.32062111  0.71274929  0.37475986  1  0.057369  0  -0.006884  0.021802  0  3.979972  0
C  C121  1  0.83792459  0.94592785  0.12523255  1  -0.02277  0  -0.007384  0.019045  0  3.981765  0
C  C122  1  0.67937663  0.28724685  0.62523839  1  0.057121  0  -0.006823  0.021861  0  3.979803  0
C  C123  1  0.16207682  0.05407446  0.87477008  1  -0.022957  0  -0.007406  0.018907  0  3.981781  0
C  C124  1  0.29462987  0.77904082  0.41054396  1  0.020672  0  0.001326  0.041976  0  3.957415  0
C  C125  1  0.86864736  0.88427774  0.08952313  1  -0.051537  0  0.000364  0.040367  0  3.961368  0
C  C126  1  0.70536787  0.22095532  0.58945429  1  0.021003  0  0.001328  0.042072  0  3.957328  0
C  C127  1  0.13135175  0.11572270  0.91047796  1  -0.051476  0  0.00041  0.040454  0  3.961341  0
C  C128  1  0.37167495  0.85354958  0.46055197  1  -0.099443  0  -0.089246  -0.132277  0  3.986273  0
C  C129  1  0.89307593  0.91129012  0.03949826  1  -0.064664  0  -0.088873  -0.131529  0  3.987898  0
C  C130  1  0.62832216  0.14644541  0.53944714  1  -0.099493  0  -0.089283  -0.132388  0  3.986354  0
C  C131  1  0.10692380  0.08871051  0.96050271  1  -0.06465  0  -0.088834  -0.131476  0  3.987899  0
C  C132  1  0.47145412  0.86519086  0.47403835  1  -0.025151  0  -0.08356  -0.090895  0  3.991322  0
C  C133  1  0.89111499  0.99749958  0.02595736  1  0.035562  0  -0.082808  -0.089065  0  3.99129  0
C  C134  1  0.52854340  0.13480455  0.52596117  1  -0.025378  0  -0.083645  -0.090986  0  3.991221  0
C  C135  1  0.10888151  0.00249981  0.97404263  1  0.035523  0  -0.082872  -0.089053  0  3.991257  0
C  C136  1  0.04489785  0.91238447  0.44456254  1  1.547088  0  0.236204  0.642016  0  4.154211  0
C  C137  1  0.96798600  0.60053677  0.05549868  1  1.558612  0  0.236174  0.641484  0  4.152673  0
C  C138  1  0.95510346  0.08761766  0.55543627  1  1.54687  0  0.236204  0.642109  0  4.154067  0
C  C139  1  0.03201625  0.39946550  0.94450329  1  1.557907  0  0.236255  0.641427  0  4.1527  0
C  C140  1  0.06533271  0.83284542  0.41119155  1  0.04268  0  -0.022073  -0.054577  0  4.006964  0
C  C141  1  0.92219801  0.65460997  0.08900862  1  0.003835  0  -0.022821  -0.055562  0  4.006799  0
C  C142  1  0.93466796  0.16715278  0.58880812  1  0.042713  0  -0.022081  -0.054638  0  4.007202  0
C  C143  1  0.07780486  0.34539250  0.91099322  1  0.004365  0  -0.022924  -0.0556  0  4.006827  0
C  C144  1  0.16388140  0.83895444  0.42669506  1  -0.078343  0  -0.073056  -0.120498  0  3.911595  0
C  C145  1  0.91278259  0.73762794  0.07350636  1  -0.051421  0  -0.071536  -0.118218  0  3.909788  0
C  C146  1  0.83610997  0.16104044  0.57330208  1  -0.058571  0  -0.073078  -0.120616  0  3.911759  0
C  C147  1  0.08721693  0.26237110  0.92649440  1  -0.051419  0  -0.071507  -0.118112  0  3.909817  0
C  C148  1  0.19030123  0.77032588  0.39460769  1  0.000887  0  -0.005683  0.022096  0  3.975362  0
C  C149  1  0.87610704  0.79605461  0.10555604  1  0.02136  0  -0.006149  0.020367  0  3.975778  0
C  C150  1  0.80969777  0.22967151  0.60539180  1  -0.018841  0  -0.005709  0.022059  0  3.975577  0
C  C151  1  0.12389447  0.20394624  0.89444520  1  0.021422  0  -0.006141  0.020348  0  3.975751  0
C  C152  1  0.11367989  0.69350676  0.34468585  1  -0.075817  0  0.002465  0.044373  0  3.957799  0
C  C153  1  0.84914252  0.76934285  0.15545604  1  -0.032954  0  0.002261  0.044358  0  3.957472  0
C  C154  1  0.88631702  0.30649036  0.65531232  1  -0.075803  0  0.002504  0.044398  0  3.957806  0
C  C155  1  0.15085921  0.23065960  0.84454541  1  -0.032897  0  0.002153  0.044289  0  3.95761  0
C  C156  1  0.01340529  0.68729584  0.33077304  1  0.048859  0  -0.091483  -0.133292  0  3.992876  0
C  C157  1  0.85696757  0.68304915  0.16939749  1  0.003844  0  -0.091522  -0.132747  0  3.996495  0
C  C158  1  0.98659391  0.31269951  0.66922517  1  0.048955  0  -0.091495  -0.133303  0  3.992849  0
C  C159  1  0.14303676  0.31695435  0.83060506  1  0.003699  0  -0.091475  -0.132673  0  3.996531  0
C  C160  1  0.98892044  0.75531778  0.36295009  1  -0.126533  0  -0.083951  -0.083392  0  3.979256  0
C  C161  1  0.89294745  0.62648200  0.13725649  1  -0.099295  0  -0.082992  -0.083355  0  3.97971  0
C  C162  1  0.01107521  0.24467714  0.63704757  1  -0.126806  0  -0.083908  -0.083305  0  3.97965  0
C  C163  1  0.10705709  0.37352032  0.86274626  1  -0.100088  0  -0.082975  -0.083409  0  3.979658  0
C  C164  1  0.69344494  0.12642375  0.93145307  1  0.415178  0  -0.13684  -0.097753  0  3.929187  0
C  C165  1  0.69492919  0.76220222  0.56857007  1  0.401817  0  -0.13736  -0.099103  0  3.927723  0
C  C166  1  0.30654862  0.87357176  0.06854476  1  0.415567  0  -0.136833  -0.097758  0  3.929141  0
C  C167  1  0.30508326  0.23781983  0.43143826  1  0.401537  0  -0.137421  -0.099351  0  3.928073  0
C  C168  1  0.76594372  0.45578458  0.93525867  1  0.371777  0  -0.138515  -0.098495  0  3.893567  0
C  C169  1  0.02069049  0.83088693  0.56467275  1  0.393417  0  -0.137789  -0.098132  0  3.897541  0
C  C170  1  0.23405798  0.54420973  0.06473830  1  0.372121  0  -0.138611  -0.098617  0  3.893229  0
C  C171  1  0.97930976  0.16911095  0.43532428  1  0.393251  0  -0.137844  -0.098167  0  3.897618  0
O  O172  1  0.92376556  0.41136185  0.15065172  1  -1.189095  0  -0.377009  -0.647263  0  2.217469  0
O  O173  1  0.76046395  0.77320608  0.34931325  1  -1.193673  0  -0.378388  -0.649703  0  2.21702  0
O  O174  1  0.07623303  0.58863695  0.84934811  1  -1.189039  0  -0.377028  -0.647273  0  2.217435  0
O  O175  1  0.23953735  0.22679596  0.65068779  1  -1.193652  0  -0.378395  -0.649712  0  2.216904  0
O  O176  1  0.04635621  0.38507892  0.12221431  1  -1.174086  0  -0.402463  -0.626084  0  2.143853  0
O  O177  1  0.76280052  0.92428753  0.37780601  1  -1.173377  0  -0.402455  -0.627357  0  2.145465  0
O  O178  1  0.95363976  0.61491882  0.87778442  1  -1.174067  0  -0.40246  -0.626094  0  2.143854  0
O  O179  1  0.23719796  0.07571186  0.62219371  1  -1.173387  0  -0.402483  -0.627431  0  2.14548  0
O  O180  1  0.62684979  0.74711558  0.42465032  1  -1.182998  0  -0.407299  -0.662637  0  2.181815  0
O  O181  1  0.82240739  0.20232077  0.07529383  1  -1.185424  0  -0.407755  -0.663416  0  2.18165  0
O  O182  1  0.37314785  0.25288202  0.57534931  1  -1.182935  0  -0.407282  -0.662597  0  2.181866  0
O  O183  1  0.17758785  0.79767737  0.92470492  1  -1.185327  0  -0.4078  -0.663486  0  2.18161  0
O  O184  1  0.67606048  0.89946031  0.48313196  1  -1.182965  0  -0.390168  -0.628338  0  2.202033  0
O  O185  1  0.91632715  0.19296967  0.01687131  1  -1.169143  0  -0.389049  -0.627621  0  2.200593  0
O  O186  1  0.32393571  0.10053721  0.51686623  1  -1.1831  0  -0.390181  -0.628294  0  2.201895  0
O  O187  1  0.08366956  0.80702950  0.98312815  1  -1.169203  0  -0.389041  -0.62764  0  2.200633  0
O  O188  1  0.11877938  0.98114803  0.48635269  1  -1.195974  0  -0.410518  -0.660527  0  2.370831  0
O  O189  1  0.99454478  0.63230847  0.01352022  1  -1.196838  0  -0.410571  -0.660095  0  2.36816  0
O  O190  1  0.88122872  0.01885569  0.51364986  1  -1.195906  0  -0.410495  -0.660505  0  2.370874  0
O  O191  1  0.00545862  0.36769393  0.98647991  1  -1.196598  0  -0.41056  -0.660045  0  2.368272  0
O  O192  1  0.95570538  0.91103043  0.42921905  1  -1.215316  0  -0.386921  -0.679965  0  2.342671  0
O  O193  1  0.98194612  0.52668194  0.07083092  1  -1.21786  0  -0.386734  -0.680305  0  2.341958  0
O  O194  1  0.04429915  0.08896836  0.57077999  1  -1.215104  0  -0.386978  -0.680053  0  2.342406  0
O  O195  1  0.01805165  0.47332062  0.92916884  1  -1.217459  0  -0.386795  -0.680285  0  2.341808  0
O  O196  1  0.73949461  0.23226597  0.95924853  1  -1.180626  0  -0.448391  -0.529307  0  2.447104  0
O  O197  1  0.77300288  0.78038094  0.54079050  1  -1.140544  0  -0.447247  -0.526135  0  2.447375  0
O  O198  1  0.26050303  0.76773077  0.04074962  1  -1.180047  0  -0.448432  -0.529332  0  2.447229  0
O  O199  1  0.22700138  0.21962775  0.45921271  1  -1.140723  0  -0.447187  -0.526045  0  2.447275  0
O  O200  1  0.83451943  0.40864360  0.94933138  1  -1.177903  0  -0.424916  -0.532962  0  2.445237  0
O  O201  1  0.95932925  0.88526641  0.55064676  1  -1.182918  0  -0.423965  -0.531424  0  2.445055  0
O  O202  1  0.16548185  0.59135029  0.05066518  1  -1.178196  0  -0.424886  -0.532809  0  2.445212  0
O  O203  1  0.04067237  0.11473309  0.44935088  1  -1.182997  0  -0.423932  -0.531433  0  2.444997  0
O  O204  1  0.75270753  0.36713515  0.06389454  1  -1.238329  0  -0.610848  -0.807582  0  1.980267  0
O  O205  1  0.80314915  0.68886428  0.43612252  1  -1.209151  0  -0.612572  -0.810908  0  1.977767  0
O  O206  1  0.24729432  0.63286958  0.93610480  1  -1.239125  0  -0.610927  -0.807741  0  1.980058  0
O  O207  1  0.19684964  0.31113515  0.56387826  1  -1.209128  0  -0.612541  -0.810878  0  1.977826  0
