# generated using pymatgen
data_AgH6C7NO2
_symmetry_space_group_name_H-M   'P 1'
_cell_length_a   7.04523080
_cell_length_b   9.26058120
_cell_length_c   11.93780041
_cell_angle_alpha   67.14147110
_cell_angle_beta   83.58192936
_cell_angle_gamma   73.32077044
_symmetry_Int_Tables_number   1
_chemical_formula_structural   AgH6C7NO2
_chemical_formula_sum   'Ag4 H24 C28 N4 O8'
_cell_volume   687.49523610
_cell_formula_units_Z   4
loop_
 _symmetry_equiv_pos_site_id
 _symmetry_equiv_pos_as_xyz
  1  'x, y, z'
loop_
 _atom_site_type_symbol
 _atom_site_label
 _atom_site_symmetry_multiplicity
 _atom_site_fract_x
 _atom_site_fract_y
 _atom_site_fract_z
 _atom_site_occupancy
 _atom_site_pbe_bader_spin_density
 _atom_site_pbe_cm5_charge
 _atom_site_pbe_ddec_charge
 _atom_site_pbe_ddec_spin_density
 _atom_site_pbe_ddec_sum_bond_order
 _atom_site_pbe_magmom
Ag  Ag0  1  0.80358173  0.09484171  0.45350366  1  0  0.412481  0.368927  0  1.99099  0
Ag  Ag1  1  0.69607547  0.45156758  0.45349523  1  0  0.412342  0.369843  0  1.990807  0
Ag  Ag2  1  0.19641827  0.90516179  0.54649553  1  0  0.412488  0.368926  0  1.99094  0
Ag  Ag3  1  0.30392207  0.54843356  0.54650511  1  0  0.412352  0.369848  0  1.990837  0
H  H4  1  0.98820389  0.76459094  0.95824432  1  0  0.096276  0.09103  0  1.029948  0
H  H5  1  0.51232522  0.27633537  0.95871723  1  0  0.097263  0.091344  0  1.028986  0
H  H6  1  0.01179404  0.23540848  0.04175651  1  0  0.096267  0.091006  0  1.029982  0
H  H7  1  0.48767271  0.72366490  0.04128277  1  0  0.097273  0.091358  0  1.028986  0
H  H8  1  0.86668963  0.79328127  0.15525607  1  0  0.10139  0.103071  0  1.011364  0
H  H9  1  0.63444261  0.05019632  0.15549186  1  0  0.101414  0.102854  0  1.011449  0
H  H10  1  0.13330972  0.20671974  0.84474318  1  0  0.101379  0.103074  0  1.011353  0
H  H11  1  0.36555571  0.94980224  0.84450863  1  0  0.101431  0.102873  0  1.011458  0
H  H12  1  0.43770412  0.14071521  0.61462180  1  0  0.120492  0.117137  0  1.016461  0
H  H13  1  0.06211218  0.24509266  0.61461037  1  0  0.120496  0.116831  0  1.015727  0
H  H14  1  0.56229693  0.85928822  0.38537866  1  0  0.120481  0.11714  0  1.016474  0
H  H15  1  0.93788718  0.75490751  0.38538972  1  0  0.120491  0.116829  0  1.015732  0
H  H16  1  0.40859594  0.29208458  0.14658344  1  0  0.100074  0.14392  0  1.003656  0
H  H17  1  0.09182026  0.56108434  0.14648685  1  0  0.099203  0.143167  0  1.005105  0
H  H18  1  0.59140706  0.70791281  0.85341697  1  0  0.100094  0.143923  0  1.003658  0
H  H19  1  0.90818273  0.43891474  0.85351189  1  0  0.099201  0.143188  0  1.00511  0
H  H20  1  0.62497247  0.27723785  0.22024377  1  0  0.098706  0.155592  0  1.023525  0
H  H21  1  0.87536696  0.50219419  0.22016567  1  0  0.098773  0.15487  0  1.024052  0
H  H22  1  0.37503014  0.72276126  0.77975615  1  0  0.098728  0.155627  0  1.023482  0
H  H23  1  0.12463604  0.49780236  0.77983559  1  0  0.098794  0.154878  0  1.024056  0
H  H24  1  0.44813045  0.46892076  0.15307630  1  0  0.098126  0.142525  0  1.007053  0
H  H25  1  0.05238728  0.37766135  0.15311947  1  0  0.097057  0.141615  0  1.00752  0
H  H26  1  0.55187215  0.53107918  0.84692279  1  0  0.098113  0.142526  0  1.007055  0
H  H27  1  0.94761610  0.62233601  0.84687977  1  0  0.097068  0.141653  0  1.007505  0
C  C28  1  0.88489963  0.97798684  0.73213251  1  0  0.203084  0.565802  0  4.211041  0
C  C29  1  0.61519179  0.28967731  0.73219704  1  0  0.204746  0.566063  0  4.211219  0
C  C30  1  0.11509830  0.02201343  0.26786749  1  0  0.203047  0.565739  0  4.211145  0
C  C31  1  0.38480757  0.71032201  0.26780389  1  0  0.204796  0.566065  0  4.211202  0
C  C32  1  0.88236313  0.87593650  0.95958901  1  0  -0.089304  -0.111575  0  4.003907  0
C  C33  1  0.61804763  0.16369171  0.95986399  1  0  -0.090878  -0.111166  0  4.003175  0
C  C34  1  0.11763337  0.12406387  0.04041090  1  0  -0.089298  -0.11156  0  4.00395  0
C  C35  1  0.38194926  0.83630778  0.04013557  1  0  -0.090903  -0.111234  0  4.003198  0
C  C36  1  0.81632760  0.89246914  0.06937949  1  0  -0.085563  -0.065527  0  3.992461  0
C  C37  1  0.68444801  0.03711644  0.06951826  1  0  -0.085188  -0.06473  0  3.99128  0
C  C38  1  0.18367033  0.10753113  0.93062051  1  0  -0.085562  -0.065554  0  3.992468  0
C  C39  1  0.31555135  0.96288458  0.93048099  1  0  -0.085185  -0.064704  0  3.991247  0
C  C40  1  0.81662555  0.00240199  0.84871511  1  0  -0.011995  -0.044389  0  3.944809  0
C  C41  1  0.68349404  0.14857841  0.84883870  1  0  -0.012714  -0.04698  0  3.946346  0
C  C42  1  0.18337095  0.99759837  0.15128480  1  0  -0.011997  -0.044368  0  3.944767  0
C  C43  1  0.31650246  0.85142195  0.15116120  1  0  -0.012717  -0.04694  0  3.946312  0
C  C44  1  0.35240132  0.20623494  0.53072495  1  0  0.027043  0.014471  0  3.996203  0
C  C45  1  0.14751252  0.26325488  0.53072145  1  0  0.026893  0.016666  0  3.994083  0
C  C46  1  0.64759973  0.79376849  0.46927552  1  0  0.027016  0.014407  0  3.996385  0
C  C47  1  0.85248645  0.73674701  0.46927815  1  0  0.026891  0.016653  0  3.99412  0
C  C48  1  0.35502441  0.31031741  0.32092619  1  0  0.134048  0.239059  0  3.882458  0
C  C49  1  0.14519585  0.36850190  0.32090894  1  0  0.132799  0.238202  0  3.885047  0
C  C50  1  0.64497885  0.68968334  0.67907452  1  0  0.134001  0.239011  0  3.882493  0
C  C51  1  0.85480636  0.63149892  0.67909050  1  0  0.132855  0.238245  0  3.885021  0
C  C52  1  0.46674517  0.33800954  0.20405937  1  0  -0.237541  -0.444579  0  3.907256  0
C  C53  1  0.03362232  0.45763134  0.20402041  1  0  -0.235522  -0.441627  0  3.908214  0
C  C54  1  0.53325887  0.66198947  0.79594065  1  0  -0.237561  -0.444606  0  3.90729  0
C  C55  1  0.96637885  0.54236955  0.79597775  1  0  -0.235568  -0.441724  0  3.90825  0
N  N56  1  0.45571328  0.22991919  0.42591294  1  0  -0.319944  -0.246446  0  3.497864  0
N  N57  1  0.04433423  0.34421334  0.42588076  1  0  -0.318324  -0.2475  0  3.497237  0
N  N58  1  0.54428999  0.77008071  0.57408860  1  0  -0.319908  -0.246367  0  3.497817  0
N  N59  1  0.95566629  0.65578421  0.57411829  1  0  -0.31833  -0.247476  0  3.49718  0
O  O60  1  0.75183014  0.01609488  0.65414534  1  0  -0.324588  -0.517729  0  2.381438  0
O  O61  1  0.74820729  0.32962375  0.65410028  1  0  -0.324034  -0.517392  0  2.381855  0
O  O62  1  0.24816961  0.98390442  0.34585440  1  0  -0.324558  -0.517698  0  2.381476  0
O  O63  1  0.25179208  0.67037557  0.34590065  1  0  -0.324071  -0.517414  0  2.381846  0
O  O64  1  0.07001072  0.91799166  0.72198510  1  0  -0.322819  -0.511412  0  2.351709  0
O  O65  1  0.42999209  0.35957559  0.72201431  1  0  -0.32429  -0.511939  0  2.351433  0
O  O66  1  0.92998864  0.08200851  0.27801499  1  0  -0.322823  -0.511413  0  2.351742  0
O  O67  1  0.57000584  0.64042468  0.27798568  1  0  -0.324284  -0.511907  0  2.351454  0
