# generated using pymatgen
data_Zn2H30C22S2N8O15
_symmetry_space_group_name_H-M   'P 1'
_cell_length_a   8.02862597
_cell_length_b   10.35926080
_cell_length_c   20.52132223
_cell_angle_alpha   90.00009529
_cell_angle_beta   94.35976706
_cell_angle_gamma   90.00019274
_symmetry_Int_Tables_number   1
_chemical_formula_structural   Zn2H30C22S2N8O15
_chemical_formula_sum   'Zn4 H60 C44 S4 N16 O30'
_cell_volume   1701.83255279
_cell_formula_units_Z   2
loop_
 _symmetry_equiv_pos_site_id
 _symmetry_equiv_pos_as_xyz
  1  'x, y, z'
loop_
 _atom_site_type_symbol
 _atom_site_label
 _atom_site_symmetry_multiplicity
 _atom_site_fract_x
 _atom_site_fract_y
 _atom_site_fract_z
 _atom_site_occupancy
 _atom_site_pbe_bader_charge
 _atom_site_pbe_bader_spin_density
 _atom_site_pbe_cm5_charge
 _atom_site_pbe_ddec_charge
 _atom_site_pbe_ddec_spin_density
 _atom_site_pbe_ddec_sum_bond_order
 _atom_site_pbe_magmom
Zn  Zn0  1  0.00000476  0.94367487  0.25000204  1  1.277548  0  0.705949  0.860855  0  2.223761  0
Zn  Zn1  1  0.99999311  0.05633662  0.74999817  1  1.277586  0  0.70597  0.860948  0  2.22368  0
Zn  Zn2  1  0.50000099  0.49999657  0.49999701  1  1.314536  0  0.702994  0.876715  0  2.211494  0
Zn  Zn3  1  0.50000252  0.50000220  0.99999854  1  1.314379  0  0.702954  0.87663  0  2.211643  0
H  H4  1  0.83488811  0.17580305  0.51902770  1  0.533546  0  0.30448  0.29035  0  0.995222  0
H  H5  1  0.16510603  0.17579521  0.98097404  1  0.533416  0  0.304512  0.290418  0  0.995188  0
H  H6  1  0.16509589  0.82419685  0.48097440  1  0.533555  0  0.304469  0.290415  0  0.995125  0
H  H7  1  0.83489207  0.82420180  0.01902227  1  0.533495  0  0.304516  0.290432  0  0.995103  0
H  H8  1  0.15022251  0.37152825  0.36664113  1  0.137394  0  0.113056  0.132637  0  0.991175  0
H  H9  1  0.84980627  0.37152781  0.13337088  1  0.13757  0  0.112997  0.132502  0  0.991273  0
H  H10  1  0.84978466  0.62847359  0.63337162  1  0.137798  0  0.11299  0.132585  0  0.991167  0
H  H11  1  0.15020307  0.62847789  0.86662587  1  0.137618  0  0.113006  0.1326  0  0.991156  0
H  H12  1  0.15882125  0.20554620  0.27781501  1  0.090073  0  0.11515  0.083147  0  1.013517  0
H  H13  1  0.84121304  0.20554892  0.22219658  1  0.090016  0  0.115108  0.08304  0  1.013569  0
H  H14  1  0.84118118  0.79446432  0.72219317  1  0.089769  0  0.115115  0.083074  0  1.013507  0
H  H15  1  0.15880615  0.79446547  0.77780298  1  0.089806  0  0.115088  0.083108  0  1.013545  0
H  H16  1  0.51635997  0.97482803  0.66006611  1  0.127029  0  0.112065  0.127938  0  1.007975  0
H  H17  1  0.48362552  0.97483020  0.83993304  1  0.127025  0  0.112058  0.127903  0  1.008034  0
H  H18  1  0.48362908  0.02515354  0.33993522  1  0.126837  0  0.112087  0.127886  0  1.008103  0
H  H19  1  0.51636142  0.02516970  0.16006138  1  0.126967  0  0.112114  0.127896  0  1.008148  0
H  H20  1  0.60460462  0.75831628  0.48640531  1  0.207976  0  0.121162  0.117294  0  1.056629  0
H  H21  1  0.39540052  0.75831332  0.01359197  1  0.208099  0  0.121158  0.117281  0  1.056532  0
H  H22  1  0.39538845  0.24167977  0.51359129  1  0.208028  0  0.121154  0.117229  0  1.056597  0
H  H23  1  0.60461365  0.24168948  0.98640789  1  0.208045  0  0.121152  0.117252  0  1.056675  0
H  H24  1  0.66799818  0.06862927  0.57913747  1  0.550236  0  0.304254  0.28999  0  1.004625  0
H  H25  1  0.33199049  0.06862262  0.92086349  1  0.550355  0  0.304241  0.289992  0  1.004751  0
H  H26  1  0.33198454  0.93136485  0.42086507  1  0.55024  0  0.304294  0.290108  0  1.004539  0
H  H27  1  0.66800503  0.93137535  0.07913419  1  0.550318  0  0.304294  0.290068  0  1.004633  0
H  H28  1  0.88204877  0.94662720  0.38044771  1  0.169775  0  0.121258  0.109443  0  1.05374  0
H  H29  1  0.11793848  0.94662001  0.11954953  1  0.169689  0  0.121293  0.109586  0  1.053613  0
H  H30  1  0.11792799  0.05338236  0.61954974  1  0.169357  0  0.121249  0.109532  0  1.053606  0
H  H31  1  0.88206081  0.05338472  0.88044780  1  0.169695  0  0.121258  0.109541  0  1.053631  0
H  H32  1  0.38415797  0.77792005  0.70258307  1  0.077489  0  0.106903  0.111063  0  1.003017  0
H  H33  1  0.61583930  0.77793016  0.79741296  1  0.07724  0  0.106901  0.111057  0  1.002928  0
H  H34  1  0.61584368  0.22205379  0.29741679  1  0.0772  0  0.106889  0.111045  0  1.002911  0
H  H35  1  0.38414640  0.22206975  0.20258142  1  0.07702  0  0.106895  0.111069  0  1.002927  0
H  H36  1  0.38400787  0.57231358  0.63650393  1  0.10691  0  0.119968  0.098053  0  0.989236  0
H  H37  1  0.61600353  0.57232100  0.86349101  1  0.107174  0  0.119989  0.098037  0  0.989258  0
H  H38  1  0.61600897  0.42766413  0.36349311  1  0.107469  0  0.120013  0.09821  0  0.989203  0
H  H39  1  0.38399086  0.42768084  0.13650467  1  0.10719  0  0.119993  0.09804  0  0.989253  0
H  H40  1  0.00719406  0.31673185  0.46673813  1  0.097076  0  0.111516  0.125259  0  1.021119  0
H  H41  1  0.99280841  0.31673242  0.03326990  1  0.097374  0  0.111477  0.12513  0  1.021183  0
H  H42  1  0.99280320  0.68326516  0.53327278  1  0.097502  0  0.111508  0.125191  0  1.02113  0
H  H43  1  0.00719225  0.68327424  0.96672554  1  0.097513  0  0.111516  0.125146  0  1.021219  0
H  H44  1  0.08169122  0.69514571  0.27712884  1  0.643077  0  0.290187  0.405562  0  0.925133  0
H  H45  1  0.91830727  0.69514959  0.22287008  1  0.643086  0  0.290178  0.405549  0  0.925164  0
H  H46  1  0.91830171  0.30486192  0.72287019  1  0.643105  0  0.290207  0.405536  0  0.92516  0
H  H47  1  0.08168941  0.30486093  0.77712911  1  0.643151  0  0.290183  0.40555  0  0.925126  0
H  H48  1  0.81276045  0.44533288  0.51932783  1  0.638084  0  0.285063  0.371403  0  0.983611  0
H  H49  1  0.18724264  0.44533474  0.98067058  1  0.638074  0  0.285033  0.371374  0  0.983656  0
H  H50  1  0.18724250  0.55466800  0.48067110  1  0.638065  0  0.285035  0.37134  0  0.983681  0
H  H51  1  0.81275904  0.55466903  0.01932879  1  0.638059  0  0.285043  0.371354  0  0.983668  0
H  H52  1  0.30757818  0.86808488  0.21467956  1  0.616464  0  0.326673  0.409482  0  0.861691  0
H  H53  1  0.69242344  0.86808162  0.28532255  1  0.616448  0  0.326639  0.409438  0  0.861711  0
H  H54  1  0.69241334  0.13192758  0.78532235  1  0.616329  0  0.326643  0.409402  0  0.861702  0
H  H55  1  0.30757451  0.13192697  0.71467620  1  0.616313  0  0.326629  0.409395  0  0.86178  0
H  H56  1  0.30332781  0.87342901  0.29150161  1  0.650042  0  0.287243  0.385102  0  0.961759  0
H  H57  1  0.69667503  0.87343614  0.20850153  1  0.65013  0  0.287265  0.38506  0  0.961821  0
H  H58  1  0.69666618  0.12657476  0.70850088  1  0.649621  0  0.287233  0.385052  0  0.961835  0
H  H59  1  0.30332288  0.12657342  0.79149819  1  0.64989  0  0.287215  0.385043  0  0.961852  0
H  H60  1  0.81741277  0.52455850  0.45236963  1  0.611101  0  0.325522  0.405464  0  0.866685  0
H  H61  1  0.18259255  0.52456766  0.04762747  1  0.611146  0  0.325562  0.405456  0  0.866631  0
H  H62  1  0.18260261  0.47544237  0.54763076  1  0.611118  0  0.325548  0.405502  0  0.866553  0
H  H63  1  0.81741174  0.47543997  0.95237006  1  0.611077  0  0.325562  0.405522  0  0.866603  0
C  C64  1  0.08839362  0.27852734  0.37116445  1  -0.017821  0  -0.081368  -0.103305  0  3.980587  0
C  C65  1  0.91162358  0.27852994  0.12884557  1  -0.018717  0  -0.081224  -0.103011  0  3.980503  0
C  C66  1  0.91160494  0.72147547  0.62884553  1  -0.018393  0  -0.08134  -0.10329  0  3.98059  0
C  C67  1  0.08838571  0.72148059  0.87115215  1  -0.018013  0  -0.081334  -0.103268  0  3.980525  0
C  C68  1  0.09397718  0.18733929  0.32157957  1  0.443729  0  0.030439  0.051133  0  3.986591  0
C  C69  1  0.90604723  0.18734204  0.17842821  1  0.444156  0  0.030465  0.05119  0  3.986654  0
C  C70  1  0.90602529  0.81266737  0.67842763  1  0.443863  0  0.030529  0.051262  0  3.986544  0
C  C71  1  0.09396578  0.81267042  0.82157014  1  0.44345  0  0.030578  0.051213  0  3.986532  0
C  C72  1  0.92526337  0.12872245  0.43057750  1  0.362005  0  0.109374  0.224368  0  4.026714  0
C  C73  1  0.07473848  0.12872175  0.06942596  1  0.362113  0  0.109311  0.224339  0  4.026521  0
C  C74  1  0.07472798  0.87127456  0.56942733  1  0.362166  0  0.109299  0.224303  0  4.026761  0
C  C75  1  0.92526455  0.87128299  0.93057152  1  0.361769  0  0.1094  0.22442  0  4.026656  0
C  C76  1  0.50970610  0.88646549  0.63134555  1  -0.067045  0  -0.075539  -0.134515  0  3.910917  0
C  C77  1  0.49029024  0.88646778  0.86865345  1  -0.066604  0  -0.075481  -0.134358  0  3.910986  0
C  C78  1  0.49029044  0.11351800  0.36865606  1  -0.066613  0  -0.075536  -0.134497  0  3.911029  0
C  C79  1  0.50970283  0.11352827  0.13134315  1  -0.067032  0  -0.075523  -0.134345  0  3.910977  0
C  C80  1  0.56019861  0.76612573  0.53472534  1  0.493134  0  0.034907  -0.023101  0  3.8989  0
C  C81  1  0.43980604  0.76612434  0.96527194  1  0.493802  0  0.034869  -0.023097  0  3.898762  0
C  C82  1  0.43979813  0.23386645  0.46527287  1  0.49407  0  0.034869  -0.022945  0  3.898565  0
C  C83  1  0.56019950  0.23387557  0.03472564  1  0.492943  0  0.034932  -0.022936  0  3.898846  0
C  C84  1  0.74818776  0.98983492  0.49257428  1  1.851268  0  0.329561  0.612572  0  4.19137  0
C  C85  1  0.25181443  0.98983544  0.00742795  1  1.851005  0  0.329621  0.612753  0  4.19143  0
C  C86  1  0.25182840  0.01015340  0.50743443  1  1.851229  0  0.329436  0.61259  0  4.191451  0
C  C87  1  0.74819103  0.01016736  0.99257108  1  1.851004  0  0.329582  0.612625  0  4.191633  0
C  C88  1  0.93851175  0.04136287  0.37871262  1  0.498398  0  0.030583  -0.032283  0  3.915191  0
C  C89  1  0.06149107  0.04135940  0.12128885  1  0.498357  0  0.030607  -0.032358  0  3.915117  0
C  C90  1  0.06147730  0.95864186  0.62128871  1  0.498405  0  0.030627  -0.032291  0  3.915028  0
C  C91  1  0.93851311  0.95864630  0.87871062  1  0.498561  0  0.030566  -0.032433  0  3.915219  0
C  C92  1  0.57886089  0.88164371  0.57047858  1  0.400575  0  0.106306  0.218953  0  4.023453  0
C  C93  1  0.42113668  0.88164312  0.92952047  1  0.400637  0  0.106228  0.218835  0  4.023405  0
C  C94  1  0.42113684  0.11834654  0.42952406  1  0.400445  0  0.106316  0.218854  0  4.023433  0
C  C95  1  0.57886386  0.11835679  0.07047691  1  0.400714  0  0.106256  0.218752  0  4.02355  0
C  C96  1  0.43656729  0.77614386  0.65516723  1  -0.048044  0  -0.088133  -0.118739  0  4.025398  0
C  C97  1  0.56343241  0.77615012  0.84482986  1  -0.048079  0  -0.088148  -0.118795  0  4.025405  0
C  C98  1  0.56343561  0.22383385  0.34483268  1  -0.048287  0  -0.088074  -0.118489  0  4.025342  0
C  C99  1  0.43655950  0.22384497  0.15516524  1  -0.047564  0  -0.088191  -0.118802  0  4.025223  0
C  C100  1  0.43195232  0.66288957  0.61855875  1  0.503395  0  0.03258  0.057818  0  3.970819  0
C  C101  1  0.56805063  0.66289499  0.88143789  1  0.503217  0  0.032588  0.057875  0  3.971019  0
C  C102  1  0.56805444  0.33708910  0.38143936  1  0.503482  0  0.032438  0.057382  0  3.971206  0
C  C103  1  0.43194619  0.33710588  0.11855886  1  0.503162  0  0.032562  0.057802  0  3.97081  0
C  C104  1  0.00572817  0.24873562  0.42628571  1  0.039569  0  -0.072608  -0.133355  0  3.899306  0
C  C105  1  0.99428395  0.24873825  0.07372311  1  0.039483  0  -0.072649  -0.133376  0  3.899177  0
C  C106  1  0.99427170  0.75125946  0.57372334  1  0.039296  0  -0.072613  -0.1333  0  3.899347  0
C  C107  1  0.00572036  0.75126744  0.92627393  1  0.03949  0  -0.072654  -0.133276  0  3.899278  0
S  S108  1  0.29147532  0.67580403  0.38150033  1  3.78616  0  0.558509  1.414731  0  6.384836  0
S  S109  1  0.70852195  0.67581090  0.11849658  1  3.786025  0  0.558366  1.414477  0  6.384768  0
S  S110  1  0.70851887  0.32419298  0.61849876  1  3.78606  0  0.558467  1.414776  0  6.384976  0
S  S111  1  0.29147725  0.32418997  0.88150221  1  3.786143  0  0.558413  1.414639  0  6.384957  0
N  N112  1  0.49078308  0.66066739  0.55889945  1  -1.271601  0  -0.334917  -0.22321  0  3.637464  0
N  N113  1  0.50922480  0.66066802  0.94109836  1  -1.272727  0  -0.334909  -0.223225  0  3.637741  0
N  N114  1  0.50922118  0.33931997  0.44109857  1  -1.272634  0  -0.334986  -0.223254  0  3.637422  0
N  N115  1  0.49078193  0.33933189  0.05890024  1  -1.271422  0  -0.334945  -0.223279  0  3.63751  0
N  N116  1  0.02055773  0.07105195  0.32611296  1  -1.279609  0  -0.340488  -0.234738  0  3.650672  0
N  N117  1  0.97945519  0.07105101  0.17388941  1  -1.279624  0  -0.340498  -0.234715  0  3.650787  0
N  N118  1  0.97943004  0.92895954  0.67388881  1  -1.279122  0  -0.340442  -0.234636  0  3.650852  0
N  N119  1  0.02055523  0.92895952  0.82611030  1  -1.279718  0  -0.34052  -0.234726  0  3.650913  0
N  N120  1  0.83844791  0.10190391  0.48482397  1  -1.30656  0  -0.400004  -0.418343  0  3.55189  0
N  N121  1  0.16155133  0.10190036  0.01517937  1  -1.306571  0  -0.400012  -0.418467  0  3.551963  0
N  N122  1  0.16154466  0.89809310  0.51518139  1  -1.306753  0  -0.399979  -0.418508  0  3.551993  0
N  N123  1  0.83845174  0.89810051  0.98481762  1  -1.306574  0  -0.400017  -0.41848  0  3.551994  0
N  N124  1  0.66404381  0.98798825  0.54872364  1  -1.317971  0  -0.403273  -0.421847  0  3.560537  0
N  N125  1  0.33595161  0.98798750  0.95127785  1  -1.318019  0  -0.403207  -0.421869  0  3.560572  0
N  N126  1  0.33594893  0.01200297  0.45127881  1  -1.318291  0  -0.403168  -0.421841  0  3.56061  0
N  N127  1  0.66404765  0.01201241  0.04871997  1  -1.317946  0  -0.403224  -0.421793  0  3.56062  0
O  O128  1  0.16818779  0.68273978  0.43338121  1  -1.335813  0  -0.371275  -0.680984  0  2.192689  0
O  O129  1  0.83181454  0.68273908  0.06661541  1  -1.335897  0  -0.371171  -0.680883  0  2.192644  0
O  O130  1  0.83181123  0.31726013  0.56662098  1  -1.335764  0  -0.371313  -0.681039  0  2.192761  0
O  O131  1  0.16818600  0.31725793  0.93338197  1  -1.335857  0  -0.371229  -0.680979  0  2.192769  0
O  O132  1  0.77630223  0.52732127  0.49571467  1  -1.228447  0  -0.561181  -0.736473  0  2.085151  0
O  O133  1  0.22370066  0.52732653  0.00428136  1  -1.228523  0  -0.561179  -0.736425  0  2.085095  0
O  O134  1  0.22370081  0.47267574  0.50428281  1  -1.2285  0  -0.561185  -0.736482  0  2.085033  0
O  O135  1  0.77630363  0.47267627  0.99571617  1  -1.228449  0  -0.5612  -0.73647  0  2.085079  0
O  O136  1  0.27564622  0.92412074  0.24978374  1  -1.243141  0  -0.569871  -0.755352  0  2.061599  0
O  O137  1  0.72435805  0.92412229  0.25022047  1  -1.242989  0  -0.569846  -0.755261  0  2.061661  0
O  O138  1  0.72434769  0.07588882  0.75022021  1  -1.242704  0  -0.569818  -0.755229  0  2.061608  0
O  O139  1  0.27563741  0.07588824  0.74977818  1  -1.242615  0  -0.569785  -0.755233  0  2.061722  0
O  O140  1  0.33392133  0.81228097  0.36334157  1  -1.352897  0  -0.364929  -0.673394  0  2.232056  0
O  O141  1  0.66608647  0.81229166  0.13665732  1  -1.352906  0  -0.364959  -0.6734  0  2.231928  0
O  O142  1  0.66607904  0.18771893  0.63665873  1  -1.35291  0  -0.364913  -0.673399  0  2.232089  0
O  O143  1  0.33391651  0.18771308  0.86334113  1  -1.352935  0  -0.364942  -0.673405  0  2.232016  0
O  O144  1  0.99999944  0.75076729  0.24999980  1  -1.24993  0  -0.588766  -0.794139  0  2.152626  0
O  O145  1  0.99999475  0.24924324  0.74999928  1  -1.249917  0  -0.588857  -0.794184  0  2.152759  0
O  O146  1  0.21688262  0.60771597  0.32303820  1  -1.346204  0  -0.368959  -0.653472  0  2.117828  0
O  O147  1  0.78311676  0.60772129  0.17696020  1  -1.346134  0  -0.368945  -0.653399  0  2.117741  0
O  O148  1  0.78310907  0.39228297  0.67696080  1  -1.346149  0  -0.368914  -0.65343  0  2.117762  0
O  O149  1  0.21688489  0.39228055  0.82303966  1  -1.346097  0  -0.368932  -0.653426  0  2.117805  0
O  O150  1  0.74437694  0.89976858  0.45276223  1  -1.145043  0  -0.292011  -0.501095  0  2.159868  0
O  O151  1  0.25563731  0.89977117  0.04724039  1  -1.144844  0  -0.292072  -0.50121  0  2.159809  0
O  O152  1  0.25567263  0.10020816  0.54725312  1  -1.144735  0  -0.291919  -0.501156  0  2.159994  0
O  O153  1  0.74437671  0.10023453  0.95276190  1  -1.144894  0  -0.292067  -0.501168  0  2.159995  0
O  O154  1  0.44573639  0.60966924  0.40885455  1  -1.345288  0  -0.362271  -0.669217  0  2.286764  0
O  O155  1  0.55425550  0.60967853  0.09114356  1  -1.345078  0  -0.362245  -0.669131  0  2.28673  0
O  O156  1  0.55426160  0.39032294  0.59114371  1  -1.345308  0  -0.362269  -0.669254  0  2.286837  0
O  O157  1  0.44573741  0.39032524  0.90885597  1  -1.34526  0  -0.362234  -0.669162  0  2.286808  0
