# generated using pymatgen
data_FeH24Pt(C19N3)2
_symmetry_space_group_name_H-M   'P 1'
_cell_length_a   7.32814250
_cell_length_b   13.90533232
_cell_length_c   16.26684344
_cell_angle_alpha   75.37481618
_cell_angle_beta   81.52055486
_cell_angle_gamma   89.87962304
_symmetry_Int_Tables_number   1
_chemical_formula_structural   FeH24Pt(C19N3)2
_chemical_formula_sum   'Fe2 H48 Pt2 C76 N12'
_cell_volume   1585.28505848
_cell_formula_units_Z   2
loop_
 _symmetry_equiv_pos_site_id
 _symmetry_equiv_pos_as_xyz
  1  'x, y, z'
loop_
 _atom_site_type_symbol
 _atom_site_label
 _atom_site_symmetry_multiplicity
 _atom_site_fract_x
 _atom_site_fract_y
 _atom_site_fract_z
 _atom_site_occupancy
 _atom_site_pbe_bader_charge
 _atom_site_pbe_bader_spin_density
 _atom_site_pbe_cm5_charge
 _atom_site_pbe_ddec_charge
 _atom_site_pbe_ddec_spin_density
 _atom_site_pbe_ddec_sum_bond_order
 _atom_site_pbe_magmom
Fe  Fe0  1  0.99999933  0.49999929  0.00000109  1  1.45379  3.654817  0.797726  0.828673  3.900813  2.940157  3.63
Fe  Fe1  1  0.99999721  0.99999707  0.00000075  1  1.229028  0.01053  0.92068  0.580755  0.011112  3.998994  0.011
H  H2  1  0.05306194  0.97869577  0.82428849  1  0.097895  -3e-05  0.121068  0.091401  -1.3e-05  1.032542  0.0
H  H3  1  0.94693536  0.02130129  0.17570954  1  0.09796  -3e-05  0.121086  0.091359  -1.3e-05  1.032668  0.0
H  H4  1  0.06511451  0.08727121  0.67736421  1  0.088565  -1.5e-05  0.11114  0.121874  -1.9e-05  1.005634  0.0
H  H5  1  0.93488844  0.91272810  0.32263419  1  0.088635  -1.5e-05  0.111164  0.121901  -1.9e-05  1.005659  0.0
H  H6  1  0.00394352  0.33835124  0.79031058  1  0.120476  -0.000123  0.106077  0.114542  -0.000242  1.02714  0.0
H  H7  1  0.99606199  0.66164587  0.20969122  1  0.120425  -0.000123  0.106087  0.114595  -0.000242  1.02712  0.0
H  H8  1  0.99712383  0.21912937  0.93284914  1  0.129902  6e-06  0.124789  0.101902  -6.7e-05  0.997104  0.0
H  H9  1  0.00287466  0.78086549  0.06715237  1  0.129722  6e-06  0.124788  0.101836  -6.7e-05  0.997139  0.0
H  H10  1  0.27176607  0.52244094  0.12388300  1  0.09146  0.001762  0.118937  0.092502  0.000375  0.99744  0.001
H  H11  1  0.72823532  0.47755615  0.87611783  1  0.091452  0.001762  0.118904  0.092443  0.000375  0.997465  0.001
H  H12  1  0.28012438  0.48903882  0.28138786  1  0.099894  0.000963  0.108385  0.117996  0.000434  1.020926  0.0
H  H13  1  0.71987834  0.51095753  0.71861306  1  0.099942  0.000963  0.108379  0.117977  0.000434  1.020926  0.0
H  H14  1  0.70441471  0.39472256  0.32388626  1  0.095716  0.001016  0.110963  0.119544  0.000452  0.995637  0.0
H  H15  1  0.29558653  0.60527307  0.67611798  1  0.056356  0.00104  0.110976  0.119546  0.000452  0.995656  0.0
H  H16  1  0.71927334  0.43504968  0.16458444  1  0.128152  0.001986  0.118234  0.088876  0.000508  0.997296  0.001
H  H17  1  0.28072529  0.56494819  0.83542009  1  0.12812  0.001986  0.118213  0.08884  0.000509  0.997278  0.001
H  H18  1  0.98153767  0.08775450  0.52417230  1  0.083277  -4e-06  0.097215  0.097815  -2e-06  1.031306  0.0
H  H19  1  0.01845691  0.91224408  0.47582926  1  0.083372  -4e-06  0.097203  0.097779  -2e-06  1.031282  0.0
H  H20  1  0.29089026  0.14087820  0.54502626  1  0.060004  -2.8e-05  0.094754  0.090038  -2.7e-05  1.037063  0.0
H  H21  1  0.70910561  0.85911889  0.45497492  1  0.060025  -2.8e-05  0.094738  0.089996  -2.7e-05  1.037144  0.0
H  H22  1  0.51654813  0.23106236  0.41931416  1  0.050367  3.6e-05  0.093068  0.084783  2.5e-05  1.036524  0.0
H  H23  1  0.48344500  0.76893472  0.58068659  1  0.050556  3.6e-05  0.093076  0.08476  2.5e-05  1.036459  0.0
H  H24  1  0.43266695  0.26998224  0.27240679  1  0.068554  -8.3e-05  0.097022  0.095081  -0.0001  1.013043  0.0
H  H25  1  0.56732622  0.73001559  0.72759378  1  0.068486  -8.3e-05  0.097032  0.095088  -0.0001  1.01311  0.0
H  H26  1  0.20645193  0.26266838  0.17581719  1  0.065463  -0.000119  0.085469  0.075567  -0.000247  1.084957  0.0
H  H27  1  0.79354532  0.73732871  0.82418391  1  0.065693  -0.000119  0.085453  0.075529  -0.000247  1.084973  0.0
H  H28  1  0.90050345  0.20876646  0.15334706  1  0.077414  3.7e-05  0.098414  0.104229  -6.4e-05  1.015157  0.0
H  H29  1  0.09949384  0.79123061  0.84665158  1  0.077252  3.7e-05  0.098393  0.104225  -6.4e-05  1.015086  0.0
H  H30  1  0.67540934  0.11436996  0.27840987  1  0.08632  -1e-05  0.09649  0.095581  -1.2e-05  1.031776  0.0
H  H31  1  0.32458803  0.88562861  0.72158967  1  0.086084  -1e-05  0.096493  0.095586  -1.2e-05  1.03183  0.0
H  H32  1  0.75614762  0.07615181  0.42551434  1  0.059341  -0.0  0.098087  0.10095  1e-06  1.014284  0.0
H  H33  1  0.24384157  0.92384824  0.57448538  1  0.059408  -0.0  0.098124  0.100939  1e-06  1.014366  0.0
H  H34  1  0.63821356  0.16178469  0.54609120  1  0.067238  -6e-06  0.095703  0.094038  -4e-06  1.027525  0.0
H  H35  1  0.36177589  0.83821907  0.45390707  1  0.067401  -6e-06  0.095737  0.094069  -4e-06  1.027559  0.0
H  H36  1  0.67314151  0.98620451  0.62385846  1  0.059873  -1e-06  0.091686  0.089611  3e-06  1.053694  0.0
H  H37  1  0.32684645  0.01379777  0.37614084  1  0.059753  -1e-06  0.091726  0.089691  3e-06  1.053727  0.0
H  H38  1  0.62509515  0.93612518  0.78411689  1  0.0523  -3.8e-05  0.086546  0.07255  -3.9e-05  1.070666  0.0
H  H39  1  0.37489447  0.06388157  0.21588255  1  0.052321  -3.8e-05  0.086536  0.072457  -3.9e-05  1.070588  0.0
H  H40  1  0.54076755  0.06085776  0.86685346  1  0.085289  -0.0  0.101958  0.113357  0.0  0.998648  0.0
H  H41  1  0.45923592  0.93914974  0.13314433  1  0.085249  -0.0  0.10188  0.113232  0.0  0.998677  0.0
H  H42  1  0.47208886  0.23476877  0.86975778  1  0.040265  -0.000121  0.078713  0.065795  -0.000164  1.102717  0.0
H  H43  1  0.52792579  0.76524097  0.13023941  1  0.0402  -0.000121  0.078718  0.065796  -0.000164  1.102698  0.0
H  H44  1  0.42471972  0.40807231  0.79303935  1  0.04728  -0.000131  0.091466  0.085846  -0.000186  1.032539  0.0
H  H45  1  0.57529078  0.59193666  0.20695581  1  0.047021  -0.000131  0.091494  0.085893  -0.000186  1.032455  0.0
H  H46  1  0.46586615  0.45842803  0.63186610  1  0.024507  5.5e-05  0.093761  0.088441  3.3e-05  1.012814  0.0
H  H47  1  0.53413452  0.54157795  0.36812851  1  0.024428  5.5e-05  0.093791  0.088441  3.3e-05  1.012754  0.0
H  H48  1  0.55589044  0.33460583  0.54912190  1  0.050094  7e-06  0.097041  0.096571  8e-06  1.006962  0.0
H  H49  1  0.44410180  0.66539792  0.45087374  1  0.050215  7e-06  0.097  0.096476  8e-06  1.007031  0.0
Pt  Pt50  1  0.49057290  0.22764799  0.03670687  1  0.516468  0.010548  0.554171  0.117957  0.014625  4.724977  0.012
Pt  Pt51  1  0.50942321  0.77235205  0.96329118  1  0.516455  0.010547  0.554216  0.117963  0.014623  4.724941  0.012
C  C52  1  0.04388888  0.05876965  0.81389428  1  0.482817  -6.8e-05  0.053278  0.090335  -6.1e-05  3.911589  0.0
C  C53  1  0.95611253  0.94122743  0.18610533  1  0.482382  -6.8e-05  0.053157  0.090241  -6.1e-05  3.911644  0.0
C  C54  1  0.05072625  0.12003664  0.73194151  1  0.041591  -0.000758  -0.067951  -0.150956  -0.00081  3.894068  -0.001
C  C55  1  0.94928209  0.87996120  0.26805873  1  0.041465  -0.000758  -0.06793  -0.151013  -0.00081  3.894187  -0.001
C  C56  1  0.03375233  0.22340938  0.72077649  1  0.080122  -5.3e-05  0.018647  0.156961  -0.000302  4.100717  0.0
C  C57  1  0.96625898  0.77659143  0.27922167  1  0.08  -5.4e-05  0.018675  0.157153  -0.000302  4.100602  0.0
C  C58  1  0.01579746  0.25924777  0.79502034  1  -0.032475  -0.000693  -0.071802  -0.1512  -0.00079  3.911199  0.0
C  C59  1  0.98421223  0.74075009  0.20498165  1  -0.032253  -0.000693  -0.071837  -0.151336  -0.00079  3.911208  0.0
C  C60  1  0.01116980  0.19298188  0.87473198  1  0.496851  2.8e-05  0.051929  0.088045  -1.7e-05  3.89999  0.0
C  C61  1  0.98883293  0.80701446  0.12526832  1  0.496743  2.8e-05  0.051979  0.088159  -1.7e-05  3.900074  0.0
C  C62  1  0.03056133  0.28651697  0.63842098  1  0.029114  -0.01024  -0.001338  -0.044889  -0.01039  3.973565  -0.006
C  C63  1  0.96945129  0.71348311  0.36157910  1  0.029372  -0.010237  -0.001305  -0.044969  -0.010387  3.973295  -0.006
C  C64  1  0.02094023  0.33430908  0.56477750  1  -0.327884  0.001885  -0.025774  -0.028679  0.000303  4.262327  0.002
C  C65  1  0.97907802  0.66569325  0.43522418  1  -0.327876  0.001881  -0.025835  -0.028632  0.000301  4.262308  0.002
C  C66  1  0.29100760  0.13219239  0.03676677  1  0.813296  0.000616  0.006712  0.04112  0.000437  3.882052  0.001
C  C67  1  0.70899799  0.86780544  0.96323241  1  0.813281  0.000616  0.006658  0.041092  0.000437  3.882143  0.001
C  C68  1  0.68843199  0.32442796  0.03133002  1  0.831406  0.016619  0.010568  0.063472  0.009269  3.965396  0.019
C  C69  1  0.31156421  0.67557435  0.96867122  1  0.831694  0.016616  0.010569  0.063531  0.009268  3.965541  0.019
C  C70  1  0.31699125  0.33602445  0.01562991  1  0.849229  0.015904  0.011193  0.079421  0.008847  3.933741  0.018
C  C71  1  0.68301150  0.66397189  0.98436917  1  0.849714  0.015897  0.011165  0.079466  0.008847  3.933667  0.018
C  C72  1  0.67752332  0.12438986  0.04475750  1  0.816848  0.000882  0.003343  0.028287  0.000525  3.90351  0.001
C  C73  1  0.32247955  0.87560872  0.95524292  1  0.816985  0.000882  0.003388  0.02845  0.000525  3.903636  0.001
C  C74  1  0.14890558  0.49445105  0.17052492  1  0.448868  -0.012836  0.045698  0.088557  -0.013399  3.955584  -0.007
C  C75  1  0.85109585  0.50554679  0.82947636  1  0.448902  -0.012834  0.045756  0.088612  -0.013397  3.955655  -0.007
C  C76  1  0.15358293  0.47546584  0.25795768  1  -0.012603  0.006473  -0.074588  -0.167084  0.002234  3.921161  0.005
C  C77  1  0.84641983  0.52453126  0.74204369  1  -0.012699  0.006473  -0.074578  -0.167061  0.002234  3.921054  0.005
C  C78  1  0.99276046  0.43786499  0.31661290  1  0.110524  -0.020052  0.016617  0.161544  -0.020815  4.115227  -0.013
C  C79  1  0.00724653  0.56213361  0.68338848  1  0.110869  -0.020052  0.016545  0.161539  -0.020816  4.115016  -0.013
C  C80  1  0.83227826  0.42429564  0.28182811  1  0.003107  0.005367  -0.07397  -0.165789  0.001691  3.918791  0.005
C  C81  1  0.16772591  0.57570221  0.71817423  1  0.042522  0.005343  -0.073973  -0.165896  0.001691  3.918809  0.005
C  C82  1  0.84017763  0.44631485  0.19336725  1  0.402285  -0.011817  0.046883  0.090705  -0.012366  3.971196  -0.007
C  C83  1  0.15982376  0.55368301  0.80663649  1  0.402214  -0.011819  0.046974  0.090911  -0.012368  3.971013  -0.007
C  C84  1  0.99674352  0.41018929  0.40564697  1  0.158834  0.003023  -0.015146  -0.080122  0.000445  3.999999  0.003
C  C85  1  0.00327035  0.58980931  0.59435459  1  0.158412  0.003018  -0.01517  -0.080106  0.000443  3.999773  0.003
C  C86  1  0.00833443  0.37822075  0.48220839  1  -0.195924  -0.01358  -0.020505  -0.006837  -0.013709  4.259371  -0.008
C  C87  1  0.99168518  0.62178082  0.51779092  1  -0.195793  -0.013577  -0.020456  -0.006869  -0.013705  4.259332  -0.008
C  C88  1  0.02872675  0.14812022  0.38587280  1  -0.045304  -5e-05  -0.010293  0.068415  -5.3e-05  3.999032  0.0
C  C89  1  0.97126648  0.85187834  0.61412700  1  -0.045421  -5e-05  -0.010403  0.068265  -5.3e-05  3.999271  0.0
C  C90  1  0.08056000  0.12729157  0.46919447  1  -0.02949  4.8e-05  -0.091856  -0.13975  5e-06  3.988832  0.0
C  C91  1  0.91943317  0.87270703  0.53080963  1  -0.029366  4.8e-05  -0.091768  -0.139529  5e-06  3.988771  0.0
C  C92  1  0.25248770  0.15687189  0.48079961  1  -0.026271  -0.000237  -0.097201  -0.088717  -0.000255  4.031591  0.0
C  C93  1  0.74750555  0.84312743  0.51920186  1  -0.02638  -0.000237  -0.097245  -0.088839  -0.000255  4.031743  0.0
C  C94  1  0.38029340  0.20891544  0.40952343  1  -0.121293  6.2e-05  -0.099683  -0.097246  3.8e-05  4.046605  0.0
C  C95  1  0.61970131  0.79108461  0.59047594  1  -0.121653  6.2e-05  -0.09964  -0.097081  3.8e-05  4.046463  0.0
C  C96  1  0.33413733  0.23065696  0.32781222  1  -0.046881  -0.000121  -0.093423  -0.136274  -0.00014  3.995496  0.0
C  C97  1  0.66585598  0.76934310  0.67218847  1  -0.046802  -0.000121  -0.093397  -0.136323  -0.00014  3.995529  0.0
C  C98  1  0.15839980  0.20125764  0.31366865  1  -0.020156  9e-06  -0.008999  0.073247  -2e-05  3.988708  0.0
C  C99  1  0.84159344  0.79874092  0.68633053  1  -0.020229  9e-06  -0.009047  0.073153  -2e-05  3.988821  0.0
C  C100  1  0.10756186  0.22224689  0.23035856  1  -0.056635  -0.000102  -0.09465  -0.13106  -0.000224  3.988202  0.0
C  C101  1  0.89243681  0.77775018  0.76964000  1  -0.057444  -0.000102  -0.094605  -0.130949  -0.000224  3.988152  0.0
C  C102  1  0.93693939  0.19201227  0.21793420  1  -0.078264  -6.8e-05  -0.095316  -0.079236  -0.000172  4.000095  0.0
C  C103  1  0.06305921  0.80798406  0.78206575  1  -0.025819  -6.7e-05  -0.095294  -0.07919  -0.000172  4.000077  0.0
C  C104  1  0.80924409  0.13905117  0.28888805  1  -0.084971  -8.8e-05  -0.096019  -0.087962  -9.9e-05  4.02334  0.0
C  C105  1  0.19075457  0.86094591  0.71111174  1  -0.136329  -8.9e-05  -0.096027  -0.088084  -9.9e-05  4.023405  0.0
C  C106  1  0.85416166  0.11771890  0.37095371  1  -0.041297  4.6e-05  -0.095903  -0.145653  3.8e-05  3.987788  0.0
C  C107  1  0.14583159  0.88227966  0.62904486  1  -0.04127  4.6e-05  -0.095908  -0.14551  3.8e-05  3.987659  0.0
C  C108  1  0.56314061  0.21234536  0.66170030  1  -0.044937  -5e-06  -0.01017  0.068705  6e-06  3.999015  0.0
C  C109  1  0.43685702  0.78765769  0.33830007  1  -0.044976  -5e-06  -0.010246  0.068589  6e-06  3.999121  0.0
C  C110  1  0.61401327  0.13921340  0.61623987  1  -0.054266  1e-06  -0.096773  -0.143713  3e-06  3.996435  0.0
C  C111  1  0.38597893  0.86079037  0.38375884  1  -0.054382  1e-06  -0.096779  -0.143681  3e-06  3.99657  0.0
C  C112  1  0.63458330  0.04173591  0.65952877  1  -0.028611  -1.5e-05  -0.100556  -0.092148  -1.1e-05  4.027132  0.0
C  C113  1  0.36540606  0.95826713  0.34047212  1  -0.028636  -1.5e-05  -0.100622  -0.092351  -1.1e-05  4.02736  0.0
C  C114  1  0.60687897  0.01318088  0.75054103  1  -0.04127  -3.1e-05  -0.099952  -0.088588  -3.4e-05  4.034343  0.0
C  C115  1  0.39311735  0.98682290  0.24945865  1  -0.041595  -3.1e-05  -0.099924  -0.088361  -3.4e-05  4.034176  0.0
C  C116  1  0.56049265  0.08258208  0.79675163  1  -0.078983  -6e-06  -0.087835  -0.118863  -2e-06  3.943467  0.0
C  C117  1  0.43950948  0.91742617  0.20324668  1  -0.078759  -6e-06  -0.087769  -0.118812  -2e-06  3.943414  0.0
C  C118  1  0.53771087  0.18337533  0.75402395  1  -0.005067  -5e-06  -0.008559  0.073891  7e-06  3.977487  0.0
C  C119  1  0.46229120  0.81663218  0.24597515  1  -0.005177  -5e-06  -0.008579  0.07394  7e-06  3.977384  0.0
C  C120  1  0.49013623  0.25662112  0.79958533  1  -0.004552  -0.000146  -0.093558  -0.119538  -0.000169  3.989659  0.0
C  C121  1  0.50987149  0.74338786  0.20041124  1  -0.004458  -0.000146  -0.093487  -0.119466  -0.000169  3.989418  0.0
C  C122  1  0.46517565  0.35352818  0.75652435  1  -0.141355  -0.000158  -0.10473  -0.101385  -0.000193  4.054162  0.0
C  C123  1  0.53482917  0.64647934  0.24347519  1  -0.141028  -0.000158  -0.104745  -0.101449  -0.000193  4.054017  0.0
C  C124  1  0.48784422  0.38183851  0.66557079  1  -0.001705  5e-05  -0.101204  -0.095573  2.6e-05  4.056707  0.0
C  C125  1  0.51215503  0.61816749  0.33442636  1  -0.001451  5e-05  -0.101224  -0.095565  2.6e-05  4.056575  0.0
C  C126  1  0.53689325  0.31276109  0.61925427  1  -0.027389  -6e-06  -0.092207  -0.131531  3e-06  3.999323  0.0
C  C127  1  0.46310454  0.68724342  0.38074269  1  -0.027396  -6e-06  -0.092188  -0.131424  3e-06  3.999422  0.0
N  N128  1  0.02250124  0.09364098  0.88494464  1  -1.175615  -0.000341  -0.322407  -0.143623  -0.000346  3.587142  0.0
N  N129  1  0.97749869  0.90635462  0.11505539  1  -1.174941  -0.000341  -0.322398  -0.143587  -0.000346  3.587221  0.0
N  N130  1  0.17254451  0.08048441  0.02899614  1  -1.296454  0.000267  -0.387595  -0.292261  -3.9e-05  3.62899  0.0
N  N131  1  0.82746102  0.91951269  0.97100444  1  -1.29671  0.000267  -0.387592  -0.292322  -3.9e-05  3.629258  0.0
N  N132  1  0.80778815  0.38276664  0.02548761  1  -1.351915  0.057324  -0.372058  -0.367114  0.026707  3.403272  0.031
N  N133  1  0.19220659  0.61723494  0.97451573  1  -1.352083  0.057332  -0.372076  -0.367199  0.026706  3.403355  0.031
N  N134  1  0.21597425  0.40126326  0.99998128  1  -1.365447  0.057364  -0.372082  -0.365919  0.026493  3.35949  0.032
N  N135  1  0.78402011  0.59873159  0.00001988  1  -1.365864  0.057373  -0.372052  -0.365966  0.026494  3.359549  0.032
N  N136  1  0.99535214  0.48012001  0.13765679  1  -1.213022  0.057223  -0.324121  -0.23807  0.026429  3.539482  0.047
N  N137  1  0.00464789  0.51987785  0.86234581  1  -1.213072  0.057221  -0.32419  -0.23816  0.02643  3.539439  0.047
N  N138  1  0.80170116  0.07297447  0.03614515  1  -1.302411  -9.5e-05  -0.386965  -0.294413  -0.000328  3.637593  0.0
N  N139  1  0.19830011  0.92702037  0.96385434  1  -1.302605  -9.5e-05  -0.387025  -0.294577  -0.000328  3.637769  0.0
