# generated using pymatgen
data_LiH9(C3O4)2
_symmetry_space_group_name_H-M   'P 1'
_cell_length_a   6.58343650
_cell_length_b   7.41995835
_cell_length_c   9.03201352
_cell_angle_alpha   85.34748339
_cell_angle_beta   79.54116566
_cell_angle_gamma   72.38303632
_symmetry_Int_Tables_number   1
_chemical_formula_structural   LiH9(C3O4)2
_chemical_formula_sum   'Li2 H18 C12 O16'
_cell_volume   413.36349386
_cell_formula_units_Z   2
loop_
 _symmetry_equiv_pos_site_id
 _symmetry_equiv_pos_as_xyz
  1  'x, y, z'
loop_
 _atom_site_type_symbol
 _atom_site_label
 _atom_site_symmetry_multiplicity
 _atom_site_fract_x
 _atom_site_fract_y
 _atom_site_fract_z
 _atom_site_occupancy
 _atom_site_hle17_bader_spin_density
 _atom_site_hle17_ddec_charge
 _atom_site_hle17_ddec_spin_density
 _atom_site_hle17_ddec_sum_bond_order
 _atom_site_hle17_magmom
 _atom_site_hse06_10hf_bader_spin_density
 _atom_site_hse06_10hf_ddec_charge
 _atom_site_hse06_10hf_ddec_spin_density
 _atom_site_hse06_10hf_ddec_sum_bond_order
 _atom_site_hse06_10hf_magmom
 _atom_site_hse06_bader_spin_density
 _atom_site_hse06_ddec_charge
 _atom_site_hse06_ddec_spin_density
 _atom_site_hse06_ddec_sum_bond_order
 _atom_site_hse06_magmom
 _atom_site_pbe_bader_spin_density
 _atom_site_pbe_cm5_charge
 _atom_site_pbe_ddec_charge
 _atom_site_pbe_ddec_spin_density
 _atom_site_pbe_ddec_sum_bond_order
 _atom_site_pbe_magmom
Li  Li0  1  0.96555491  0.71166530  0.49373042  1  0  0.865302  0  0.365296  0  0  0.822781  0  0.471642  0  0  0.832766  0  0.454521  0  0  0.485665  0.815603  0  0.483771  0
Li  Li1  1  0.03822415  0.28944058  0.50667560  1  0  0.866125  0  0.363232  0  0  0.823031  0  0.470641  0  0  0.833079  0  0.453436  0  0  0.484652  0.815869  0  0.482728  0
H  H2  1  0.49933658  0.17327842  0.25184600  1  0  0.401511  0  0.894804  0  0  0.36556  0  0.979259  0  0  0.379885  0  0.964933  0  0  0.300311  0.35564  0  0.988996  0
H  H3  1  0.16287988  0.94532605  0.33453948  1  0  0.391829  0  0.891751  0  0  0.367533  0  0.961363  0  0  0.378068  0  0.949451  0  0  0.30904  0.360012  0  0.969875  0
H  H4  1  0.00437879  0.96418231  0.00573579  1  0  0.407684  0  0.89417  0  0  0.37319  0  0.972897  0  0  0.385714  0  0.955678  0  0  0.306377  0.364394  0  0.984371  0
H  H5  1  0.71677422  0.62658828  0.21277826  1  0  0.134014  0  0.931202  0  0  0.143848  0  0.996657  0  0  0.147167  0  0.99479  0  0  0.114521  0.141443  0  0.99799  0
H  H6  1  0.61729591  0.62739466  0.40622016  1  0  0.133009  0  0.95032  0  0  0.144166  0  1.010412  0  0  0.147172  0  1.009034  0  0  0.120268  0.141939  0  1.011596  0
H  H7  1  0.32884077  0.89186511  0.07865488  1  0  0.142326  0  0.936894  0  0  0.150037  0  1.000001  0  0  0.154267  0  0.996963  0  0  0.110377  0.147097  0  1.001954  0
H  H8  1  0.48983800  0.66051743  0.02841423  1  0  0.153254  0  0.943738  0  0  0.159991  0  1.010983  0  0  0.16316  0  1.009912  0  0  0.115627  0.157283  0  1.012061  0
H  H9  1  0.97735523  0.48846532  0.99113240  1  0  0.396183  0  0.895202  0  0  0.358748  0  0.983978  0  0  0.372652  0  0.969319  0  0  0.306297  0.349126  0  0.993966  0
H  H10  1  0.50579497  0.82875075  0.74908692  1  0  0.399565  0  0.898625  0  0  0.364511  0  0.981795  0  0  0.378824  0  0.966604  0  0  0.299934  0.354591  0  0.991568  0
H  H11  1  0.84049156  0.05632990  0.66894910  1  0  0.393314  0  0.88998  0  0  0.36847  0  0.960303  0  0  0.378975  0  0.948368  0  0  0.309813  0.360985  0  0.968744  0
H  H12  1  0.28696079  0.37606507  0.78709199  1  0  0.135357  0  0.928907  0  0  0.144538  0  0.994078  0  0  0.147765  0  0.992389  0  0  0.114897  0.142212  0  0.995304  0
H  H13  1  0.38818987  0.37412567  0.59370578  1  0  0.134008  0  0.95002  0  0  0.144452  0  1.010449  0  0  0.147523  0  1.009007  0  0  0.120373  0.142199  0  1.011659  0
H  H14  1  0.65847296  0.11405539  0.92573833  1  0  0.142684  0  0.93557  0  0  0.150154  0  0.998058  0  0  0.154299  0  0.995234  0  0  0.11051  0.147225  0  0.999935  0
H  H15  1  0.50983698  0.34933902  0.97232673  1  0  0.153165  0  0.947976  0  0  0.15915  0  1.01557  0  0  0.162419  0  1.014522  0  0  0.115387  0.1563  0  1.016684  0
H  H16  1  0.00420069  0.78483036  0.77823828  1  0  0.432004  0  0.844292  0  0  0.406096  0  0.90441  0  0  0.414748  0  0.891613  0  0  0.316174  0.400165  0  0.913203  0
H  H17  1  0.14626809  0.87262464  0.65135425  1  0  0.436567  0  0.844586  0  0  0.404025  0  0.919444  0  0  0.414493  0  0.90388  0  0  0.311655  0.396524  0  0.930603  0
H  H18  1  0.00381552  0.21226036  0.22147786  1  0  0.434772  0  0.842387  0  0  0.40799  0  0.903675  0  0  0.416891  0  0.890506  0  0  0.314199  0.401924  0  0.912662  0
H  H19  1  0.85898654  0.12805391  0.34879932  1  0  0.435208  0  0.846919  0  0  0.403189  0  0.920793  0  0  0.413574  0  0.905386  0  0  0.31115  0.39573  0  0.931866  0
C  C20  1  0.60693818  0.89737405  0.31021445  1  0  0.74935  0  3.742857  0  0  0.696874  0  4.051725  0  0  0.730903  0  4.041655  0  0  0.244203  0.673793  0  4.057876  0
C  C21  1  0.58494441  0.70218652  0.29922800  1  0  -0.36402  0  3.623749  0  0  -0.40947  0  3.868123  0  0  -0.416254  0  3.873007  0  0  -0.156213  -0.404565  0  3.864459  0
C  C22  1  0.36652786  0.69119270  0.26733537  1  0  0.283346  0  3.579835  0  0  0.28199  0  3.823785  0  0  0.286097  0  3.835542  0  0  0.080615  0.27892  0  3.81576  0
C  C23  1  0.34232341  0.74160081  0.10020391  1  0  -0.393075  0  3.621251  0  0  -0.435611  0  3.86255  0  0  -0.443916  0  3.867899  0  0  -0.166069  -0.429723  0  3.858951  0
C  C24  1  0.35739848  0.48591294  0.30791392  1  0  0.642184  0  3.822052  0  0  0.593604  0  4.1218  0  0  0.624933  0  4.114653  0  0  0.230547  0.572357  0  4.126417  0
C  C25  1  0.15997015  0.69171347  0.05136808  1  0  0.76063  0  3.669373  0  0  0.701554  0  3.983627  0  0  0.736636  0  3.971797  0  0  0.255666  0.678085  0  3.990891  0
C  C26  1  0.39746523  0.10459103  0.69041478  1  0  0.751332  0  3.741542  0  0  0.698757  0  4.049681  0  0  0.732712  0  4.039807  0  0  0.244974  0.675747  0  4.055695  0
C  C27  1  0.41926833  0.29995910  0.70112149  1  0  -0.367094  0  3.620311  0  0  -0.409355  0  3.862677  0  0  -0.416183  0  3.867625  0  0  -0.155675  -0.404487  0  3.85901  0
C  C28  1  0.63696715  0.31098791  0.73473894  1  0  0.286033  0  3.575516  0  0  0.28344  0  3.819863  0  0  0.287666  0  3.831552  0  0  0.081114  0.280303  0  3.811879  0
C  C29  1  0.65568932  0.26182289  0.90272834  1  0  -0.390797  0  3.620212  0  0  -0.431607  0  3.859611  0  0  -0.440146  0  3.865094  0  0  -0.167394  -0.425575  0  3.855978  0
C  C30  1  0.64679980  0.51571051  0.69368363  1  0  0.642388  0  3.822273  0  0  0.594847  0  4.120891  0  0  0.626153  0  4.113601  0  0  0.229751  0.573633  0  4.125532  0
C  C31  1  0.84462807  0.29490473  0.95541761  1  0  0.769274  0  3.673413  0  0  0.710081  0  3.986518  0  0  0.74554  0  3.974509  0  0  0.258119  0.686371  0  3.99393  0
O  O32  1  0.73873761  0.92072546  0.38484516  1  0  -0.650656  0  1.953244  0  0  -0.60634  0  2.189316  0  0  -0.627695  0  2.177346  0  0  -0.322633  -0.591697  0  2.197265  0
O  O33  1  0.48478224  0.03379202  0.23601614  1  0  -0.561809  0  2.089625  0  0  -0.496221  0  2.305974  0  0  -0.520825  0  2.292439  0  0  -0.31146  -0.479356  0  2.314592  0
O  O34  1  0.19301263  0.80908885  0.36494256  1  0  -0.65061  0  2.151805  0  0  -0.605485  0  2.381743  0  0  -0.621003  0  2.369852  0  0  -0.443881  -0.59431  0  2.389844  0
O  O35  1  0.51957678  0.35479039  0.24823094  1  0  -0.605271  0  2.031813  0  0  -0.550977  0  2.263515  0  0  -0.576442  0  2.25514  0  0  -0.310094  -0.533414  0  2.268886  0
O  O36  1  0.19544416  0.46539100  0.39836858  1  0  -0.721535  0  2.013818  0  0  -0.679482  0  2.25926  0  0  -0.699444  0  2.246363  0  0  -0.393061  -0.665837  0  2.268017  0
O  O37  1  0.15624211  0.52437771  0.05416898  1  0  -0.559402  0  1.999203  0  0  -0.503056  0  2.220423  0  0  -0.526942  0  2.21071  0  0  -0.26795  -0.486738  0  2.226788  0
O  O38  1  0.00257143  0.82470911  0.99928312  1  0  -0.569641  0  2.094226  0  0  -0.508027  0  2.309455  0  0  -0.531132  0  2.290076  0  0  -0.318456  -0.492181  0  2.321912  0
O  O39  1  0.26586421  0.08068318  0.61595377  1  0  -0.65056  0  1.957128  0  0  -0.605579  0  2.193303  0  0  -0.627057  0  2.181479  0  0  -0.320758  -0.590881  0  2.201132  0
O  O40  1  0.52022537  0.96836320  0.76447072  1  0  -0.562149  0  2.090697  0  0  -0.498628  0  2.308722  0  0  -0.52311  0  2.29446  0  0  -0.313197  -0.481774  0  2.317396  0
O  O41  1  0.81191559  0.19232117  0.63864241  1  0  -0.651115  0  2.14751  0  0  -0.605783  0  2.378927  0  0  -0.621333  0  2.367015  0  0  -0.442804  -0.594575  0  2.386847  0
O  O42  1  0.48575139  0.64719195  0.75437266  1  0  -0.605612  0  2.030948  0  0  -0.552116  0  2.261586  0  0  -0.577648  0  2.252935  0  0  -0.310529  -0.534547  0  2.267025  0
O  O43  1  0.80813047  0.53600911  0.60246291  1  0  -0.721794  0  2.014833  0  0  -0.680416  0  2.260419  0  0  -0.700188  0  2.247199  0  0  -0.393188  -0.666825  0  2.269257  0
O  O44  1  0.84815305  0.47124702  0.94662365  1  0  -0.539755  0  2.115911  0  0  -0.481472  0  2.34294  0  0  -0.505286  0  2.328152  0  0  -0.305081  -0.464906  0  2.352445  0
O  O45  1  0.98810834  0.16738125  0.00963541  1  0  -0.59795  0  1.989794  0  0  -0.539481  0  2.206274  0  0  -0.562834  0  2.193549  0  0  -0.285466  -0.523598  0  2.214497  0
O  O46  1  0.01834063  0.82524970  0.67225032  1  0  -0.854562  0  1.869563  0  0  -0.811191  0  2.059794  0  0  -0.827653  0  2.028969  0  0  -0.609056  -0.799781  0  2.081143  0
O  O47  1  0.98719222  0.17499919  0.32837181  1  0  -0.855009  0  1.867995  0  0  -0.812308  0  2.057094  0  0  -0.828992  0  2.026208  0  0  -0.60925  -0.8007  0  2.078394  0
