# generated using pymatgen
data_ZnH28C26(NO)4
_symmetry_space_group_name_H-M   'P 1'
_cell_length_a   9.82530114
_cell_length_b   10.13715084
_cell_length_c   12.53840155
_cell_angle_alpha   80.51667380
_cell_angle_beta   68.22769759
_cell_angle_gamma   83.91078490
_symmetry_Int_Tables_number   1
_chemical_formula_structural   ZnH28C26(NO)4
_chemical_formula_sum   'Zn2 H56 C52 N8 O8'
_cell_volume   1142.51806157
_cell_formula_units_Z   2
loop_
 _symmetry_equiv_pos_site_id
 _symmetry_equiv_pos_as_xyz
  1  'x, y, z'
loop_
 _atom_site_type_symbol
 _atom_site_label
 _atom_site_symmetry_multiplicity
 _atom_site_fract_x
 _atom_site_fract_y
 _atom_site_fract_z
 _atom_site_occupancy
 _atom_site_hle17_bader_spin_density
 _atom_site_hle17_ddec_charge
 _atom_site_hle17_ddec_spin_density
 _atom_site_hle17_ddec_sum_bond_order
 _atom_site_hle17_magmom
 _atom_site_hse06_10hf_bader_spin_density
 _atom_site_hse06_10hf_ddec_charge
 _atom_site_hse06_10hf_ddec_spin_density
 _atom_site_hse06_10hf_ddec_sum_bond_order
 _atom_site_hse06_10hf_magmom
 _atom_site_hse06_bader_spin_density
 _atom_site_hse06_ddec_charge
 _atom_site_hse06_ddec_spin_density
 _atom_site_hse06_ddec_sum_bond_order
 _atom_site_hse06_magmom
 _atom_site_pbe_bader_spin_density
 _atom_site_pbe_cm5_charge
 _atom_site_pbe_ddec_charge
 _atom_site_pbe_ddec_spin_density
 _atom_site_pbe_ddec_sum_bond_order
 _atom_site_pbe_magmom
Zn  Zn0  1  0.31391042  0.12024407  0.05798627  1  0  1.032447  0  1.835602  0  0  0.845243  0  2.298064  0  0  0.896667  0  2.240738  0  0  0.675683  0.809527  0  2.337352  0
Zn  Zn1  1  0.68608777  0.87975606  0.94201317  1  0  1.032393  0  1.835668  0  0  0.845188  0  2.298145  0  0  0.89661  0  2.24082  0  0  0.675677  0.809469  0  2.337436  0
H  H2  1  0.91545368  0.41776848  0.04580766  1  0  0.093903  0  0.950876  0  0  0.108126  0  1.014886  0  0  0.109872  0  1.014393  0  0  0.093805  0.106832  0  1.015488  0
H  H3  1  0.08455003  0.58223062  0.95419031  1  0  0.09392  0  0.950863  0  0  0.108132  0  1.01486  0  0  0.109877  0  1.014368  0  0  0.093806  0.106833  0  1.015475  0
H  H4  1  0.98375773  0.47499751  0.14248997  1  0  0.094331  0  0.934097  0  0  0.108565  0  0.99691  0  0  0.110719  0  0.995814  0  0  0.093238  0.106914  0  0.997991  0
H  H5  1  0.01624145  0.52500461  0.85750811  1  0  0.094376  0  0.934072  0  0  0.108551  0  0.996939  0  0  0.110707  0  0.995839  0  0  0.093229  0.106901  0  0.998021  0
H  H6  1  0.42151178  0.20133341  0.39161428  1  0  0.071894  0  0.928432  0  0  0.089149  0  0.989895  0  0  0.090141  0  0.990408  0  0  0.085849  0.088411  0  0.989605  0
H  H7  1  0.57848869  0.79866471  0.60838316  1  0  0.071879  0  0.928388  0  0  0.089162  0  0.989858  0  0  0.090151  0  0.990375  0  0  0.085872  0.088424  0  0.989566  0
H  H8  1  0.48037485  0.27377098  0.24546543  1  0  0.0693  0  0.960874  0  0  0.085166  0  1.027088  0  0  0.086186  0  1.027076  0  0  0.084093  0.084268  0  1.027426  0
H  H9  1  0.51962348  0.72622614  0.75453197  1  0  0.069231  0  0.960938  0  0  0.085098  0  1.027203  0  0  0.08613  0  1.027177  0  0  0.084083  0.0842  0  1.027538  0
H  H10  1  0.75074210  0.22796410  0.11106426  1  0  0.073141  0  0.94246  0  0  0.089964  0  1.006806  0  0  0.090708  0  1.007361  0  0  0.087238  0.089344  0  1.006536  0
H  H11  1  0.24925823  0.77203702  0.88893522  1  0  0.07312  0  0.942471  0  0  0.089964  0  1.006795  0  0  0.090699  0  1.007361  0  0  0.087228  0.089344  0  1.006525  0
H  H12  1  0.86830107  0.12195560  0.16830498  1  0  0.082056  0  0.93977  0  0  0.098416  0  1.001775  0  0  0.099207  0  1.003123  0  0  0.089945  0.097805  0  1.000981  0
H  H13  1  0.13169930  0.87804452  0.83169462  1  0  0.08207  0  0.939732  0  0  0.098445  0  1.001733  0  0  0.099238  0  1.003078  0  0  0.089953  0.097834  0  1.000937  0
H  H14  1  0.18887190  0.03688288  0.31603700  1  0  0.095286  0  0.930602  0  0  0.104285  0  0.990101  0  0  0.10756  0  0.986824  0  0  0.122039  0.101816  0  0.992603  0
H  H15  1  0.81113525  0.96311320  0.68396117  1  0  0.09526  0  0.930653  0  0  0.104285  0  0.990106  0  0  0.107559  0  0.986827  0  0  0.122035  0.101814  0  0.992608  0
H  H16  1  0.10025775  0.91416893  0.05073004  1  0  0.098713  0  0.930362  0  0  0.105621  0  0.994779  0  0  0.108495  0  0.991885  0  0  0.123971  0.103438  0  0.996964  0
H  H17  1  0.89974402  0.08582517  0.94927155  1  0  0.098817  0  0.930267  0  0  0.105734  0  0.994651  0  0  0.108617  0  0.991761  0  0  0.12404  0.103549  0  0.996839  0
H  H18  1  0.93790495  0.73933305  0.18386033  1  0  0.122274  0  0.955406  0  0  0.128876  0  1.020376  0  0  0.133009  0  1.018226  0  0  0.108389  0.125775  0  1.022324  0
H  H19  1  0.06209786  0.26066204  0.81614162  1  0  0.122216  0  0.955444  0  0  0.128842  0  1.020385  0  0  0.132979  0  1.018228  0  0  0.108363  0.12574  0  1.022336  0
H  H20  1  0.66699185  0.45728532  0.17219692  1  0  0.064716  0  0.936389  0  0  0.082324  0  0.998611  0  0  0.083064  0  0.999724  0  0  0.083394  0.081756  0  0.998012  0
H  H21  1  0.33300957  0.54271580  0.82780224  1  0  0.064686  0  0.936347  0  0  0.082307  0  0.998582  0  0  0.083048  0  0.999693  0  0  0.083391  0.081738  0  0.997981  0
H  H22  1  0.73004847  0.51564595  0.27011498  1  0  0.059122  0  0.942553  0  0  0.076705  0  1.006598  0  0  0.077667  0  1.006239  0  0  0.082418  0.075881  0  1.007122  0
H  H23  1  0.26994866  0.48435318  0.72988569  1  0  0.059082  0  0.942566  0  0  0.076666  0  1.006627  0  0  0.077629  0  1.006266  0  0  0.082393  0.075838  0  1.007152  0
H  H24  1  0.52819787  0.31470027  0.06420992  1  0  0.076578  0  0.953675  0  0  0.084657  0  1.020228  0  0  0.086943  0  1.018274  0  0  0.116216  0.082942  0  1.021773  0
H  H25  1  0.47179245  0.68530389  0.93579207  1  0  0.076594  0  0.953685  0  0  0.084689  0  1.020237  0  0  0.086977  0  1.018284  0  0  0.116235  0.082973  0  1.021782  0
H  H26  1  0.69375005  0.93802956  0.24330688  1  0  0.101176  0  0.939674  0  0  0.114881  0  1.002487  0  0  0.116931  0  1.001915  0  0  0.095015  0.113433  0  1.002904  0
H  H27  1  0.30625575  0.06197153  0.75669022  1  0  0.101158  0  0.939675  0  0  0.114886  0  1.00247  0  0  0.116943  0  1.001888  0  0  0.095014  0.113437  0  1.002886  0
H  H28  1  0.50734834  0.96932482  0.33539369  1  0  0.099564  0  0.941308  0  0  0.113353  0  1.004582  0  0  0.115641  0  1.003434  0  0  0.095464  0.111749  0  1.005352  0
H  H29  1  0.49265652  0.03067328  0.66460328  1  0  0.099533  0  0.941298  0  0  0.113331  0  1.004571  0  0  0.11562  0  1.00342  0  0  0.095438  0.111719  0  1.005349  0
H  H30  1  0.76463743  0.18828136  0.50848797  1  0  0.032587  0  0.943786  0  0  0.049545  0  1.000351  0  0  0.049562  0  1.001669  0  0  0.085319  0.049596  0  0.999372  0
H  H31  1  0.23535847  0.81172078  0.49151187  1  0  0.032542  0  0.943809  0  0  0.049573  0  1.000317  0  0  0.049599  0  1.001635  0  0  0.085328  0.04962  0  0.999343  0
H  H32  1  0.62887262  0.35369675  0.64713026  1  0  0.10699  0  0.994161  0  0  0.111611  0  1.066192  0  0  0.114918  0  1.064399  0  0  0.110691  0.109163  0  1.067661  0
H  H33  1  0.37112985  0.64630536  0.35286926  1  0  0.106961  0  0.994182  0  0  0.111597  0  1.066206  0  0  0.114905  0  1.064413  0  0  0.110697  0.10915  0  1.067676  0
H  H34  1  0.82651487  0.61601963  0.38652669  1  0  0.072247  0  0.92984  0  0  0.080773  0  0.999414  0  0  0.084769  0  0.994737  0  0  0.116382  0.077814  0  1.002776  0
H  H35  1  0.17348331  0.38398049  0.61347594  1  0  0.072289  0  0.929847  0  0  0.080816  0  0.999418  0  0  0.084812  0  0.99474  0  0  0.116413  0.077858  0  1.00278  0
H  H36  1  0.90186971  0.36611933  0.35417413  1  0  0.069244  0  0.943265  0  0  0.08116  0  1.017842  0  0  0.082313  0  1.017245  0  0  0.083765  0.080423  0  1.018132  0
H  H37  1  0.09812847  0.63388080  0.64582610  1  0  0.069272  0  0.943275  0  0  0.081193  0  1.017834  0  0  0.082347  0  1.017235  0  0  0.083791  0.080458  0  1.018122  0
H  H38  1  0.96099377  0.20615809  0.31200258  1  0  0.073897  0  0.959858  0  0  0.087206  0  1.029939  0  0  0.088312  0  1.0303  0  0  0.085366  0.086379  0  1.029805  0
H  H39  1  0.03900332  0.79384204  0.68799957  1  0  0.073938  0  0.959806  0  0  0.087235  0  1.029884  0  0  0.08834  0  1.030247  0  0  0.085366  0.08641  0  1.029748  0
H  H40  1  0.82465605  0.60221396  0.73210463  1  0  0.104016  0  0.949393  0  0  0.108668  0  1.018736  0  0  0.113395  0  1.013621  0  0  0.121793  0.105001  0  1.022826  0
H  H41  1  0.17534194  0.39779017  0.26789912  1  0  0.10406  0  0.949364  0  0  0.108679  0  1.018747  0  0  0.113424  0  1.013611  0  0  0.121818  0.104995  0  1.022858  0
H  H42  1  0.59515872  0.05158606  0.47026021  1  0  0.059117  0  0.970719  0  0  0.074947  0  1.039579  0  0  0.076014  0  1.038977  0  0  0.082734  0.07408  0  1.040157  0
H  H43  1  0.40484175  0.94841206  0.52973803  1  0  0.059124  0  0.970681  0  0  0.074957  0  1.039546  0  0  0.076027  0  1.038939  0  0  0.082722  0.074084  0  1.040128  0
H  H44  1  0.77900061  0.02030645  0.37898691  1  0  0.063413  0  0.959428  0  0  0.079242  0  1.02565  0  0  0.079641  0  1.027674  0  0  0.081578  0.07895  0  1.024222  0
H  H45  1  0.22100190  0.97969466  0.62101194  1  0  0.063454  0  0.959477  0  0  0.079297  0  1.025681  0  0  0.079698  0  1.027703  0  0  0.081593  0.079002  0  1.024256  0
H  H46  1  0.02721017  0.86482760  0.46477519  1  0  0.112842  0  0.956958  0  0  0.121193  0  1.019772  0  0  0.124567  0  1.018399  0  0  0.11233  0.118726  0  1.020939  0
H  H47  1  0.97279130  0.13517251  0.53522489  1  0  0.112882  0  0.956937  0  0  0.121257  0  1.01972  0  0  0.124633  0  1.018344  0  0  0.112357  0.118775  0  1.020904  0
H  H48  1  0.51110596  0.28468581  0.53211118  1  0  0.059937  0  0.930681  0  0  0.080161  0  0.98931  0  0  0.080961  0  0.989523  0  0  0.083338  0.079645  0  0.98909  0
H  H49  1  0.48888903  0.71531233  0.46788706  1  0  0.059964  0  0.930755  0  0  0.080157  0  0.98943  0  0  0.080956  0  0.989642  0  0  0.083338  0.079643  0  0.989207  0
H  H50  1  0.63961195  0.41299960  0.48253195  1  0  0.062923  0  0.961381  0  0  0.07531  0  1.03718  0  0  0.077003  0  1.035601  0  0  0.084213  0.074062  0  1.038385  0
H  H51  1  0.36038184  0.58700055  0.51746796  1  0  0.062916  0  0.961338  0  0  0.075305  0  1.037139  0  0  0.076997  0  1.03556  0  0  0.084226  0.074056  0  1.038348  0
H  H52  1  0.47286858  0.44174095  0.37102022  1  0  0.031801  0  0.986168  0  0  0.042505  0  1.056562  0  0  0.042719  0  1.057896  0  0  0.083746  0.04255  0  1.055495  0
H  H53  1  0.52712965  0.55825818  0.62897695  1  0  0.031788  0  0.986145  0  0  0.042481  0  1.056546  0  0  0.042695  0  1.057887  0  0  0.083733  0.042525  0  1.055481  0
H  H54  1  0.70775431  0.48211137  0.92934405  1  0  0.119127  0  0.95031  0  0  0.127184  0  1.012061  0  0  0.130578  0  1.011308  0  0  0.110862  0.124554  0  1.013024  0
H  H55  1  0.29223591  0.51789479  0.07066089  1  0  0.119016  0  0.950403  0  0  0.12705  0  1.012202  0  0  0.130439  0  1.011456  0  0  0.110819  0.124419  0  1.013168  0
H  H56  1  0.43975478  0.20611006  0.79401734  1  0  0.075775  0  0.966929  0  0  0.087593  0  1.027737  0  0  0.089051  0  1.026816  0  0  0.119062  0.086461  0  1.028569  0
H  H57  1  0.56024664  0.79389106  0.20598103  1  0  0.075771  0  0.966944  0  0  0.087585  0  1.027752  0  0  0.089042  0  1.026831  0  0  0.119051  0.086455  0  1.028583  0
C  C58  1  0.95466568  0.38556935  0.11780712  1  0  -0.312505  0  3.659533  0  0  -0.354369  0  3.900485  0  0  -0.360749  0  3.909586  0  0  -0.165159  -0.349903  0  3.893934  0
C  C59  1  0.04533584  0.61442975  0.88219308  1  0  -0.31252  0  3.659643  0  0  -0.354296  0  3.900483  0  0  -0.360677  0  3.909583  0  0  -0.16514  -0.349832  0  3.893933  0
C  C60  1  0.51690984  0.24434450  0.31937918  1  0  -0.188968  0  3.624131  0  0  -0.23374  0  3.864739  0  0  -0.236268  0  3.880102  0  0  -0.167467  -0.231807  0  3.854248  0
C  C61  1  0.48308848  0.75565262  0.68061981  1  0  -0.188812  0  3.624151  0  0  -0.23369  0  3.864865  0  0  -0.23622  0  3.880219  0  0  -0.167501  -0.231751  0  3.854365  0
C  C62  1  0.77754325  0.19840735  0.18992493  1  0  -0.212497  0  3.583402  0  0  -0.252949  0  3.809496  0  0  -0.255751  0  3.824514  0  0  -0.163093  -0.250778  0  3.798999  0
C  C63  1  0.22245817  0.80159377  0.81007264  1  0  -0.212434  0  3.583363  0  0  -0.252921  0  3.809478  0  0  -0.255722  0  3.824507  0  0  -0.163047  -0.250749  0  3.798979  0
C  C64  1  0.13042625  0.96811813  0.29208059  1  0  0.120214  0  3.707558  0  0  0.088758  0  3.964662  0  0  0.094775  0  3.983147  0  0  0.045757  0.084513  0  3.952476  0
C  C65  1  0.86957756  0.03187897  0.70791921  1  0  0.12032  0  3.70752  0  0  0.088855  0  3.964601  0  0  0.094879  0  3.983081  0  0  0.045801  0.084613  0  3.952407  0
C  C66  1  0.64436568  0.13780324  0.29033265  1  0  0.1651  0  3.545163  0  0  0.194843  0  3.768532  0  0  0.195308  0  3.788381  0  0  -0.014422  0.194473  0  3.755016  0
C  C67  1  0.35563684  0.86219787  0.70966460  1  0  0.164983  0  3.545205  0  0  0.194779  0  3.768594  0  0  0.195244  0  3.78844  0  0  -0.014429  0.194406  0  3.755072  0
C  C68  1  0.68265211  0.43141557  0.77656989  1  0  0.097582  0  3.775474  0  0  0.11148  0  4.007405  0  0  0.114339  0  4.029811  0  0  0.012149  0.109547  0  3.992314  0
C  C69  1  0.31734363  0.56858957  0.22343358  1  0  0.097425  0  3.775553  0  0  0.11133  0  4.007486  0  0  0.114187  0  4.029895  0  0  0.012086  0.109399  0  3.992394  0
C  C70  1  0.08191957  0.89971409  0.14295781  1  0  0.150874  0  3.659686  0  0  0.119039  0  3.913182  0  0  0.126877  0  3.930308  0  0  0.058666  0.114091  0  3.901538  0
C  C71  1  0.91808095  0.10028302  0.85704374  1  0  0.150743  0  3.659727  0  0  0.118904  0  3.913243  0  0  0.126729  0  3.930379  0  0  0.058592  0.113957  0  3.901595  0
C  C72  1  0.82691918  0.32115544  0.22136283  1  0  0.163591  0  3.541956  0  0  0.190255  0  3.768695  0  0  0.190703  0  3.788348  0  0  -0.015014  0.190158  0  3.754972  0
C  C73  1  0.17308009  0.67884468  0.77863629  1  0  0.163555  0  3.541946  0  0  0.190204  0  3.768679  0  0  0.190652  0  3.788332  0  0  -0.015069  0.190106  0  3.754952  0
C  C74  1  0.55299574  0.03627689  0.15548246  1  0  0.716199  0  3.841635  0  0  0.664281  0  4.146475  0  0  0.699233  0  4.137112  0  0  0.214072  0.640596  0  4.152093  0
C  C75  1  0.44700797  0.96372222  0.84451471  1  0  0.71615  0  3.841574  0  0  0.664225  0  4.14645  0  0  0.699176  0  4.137081  0  0  0.214011  0.64054  0  4.152067  0
C  C76  1  0.09092752  0.29388615  0.07620187  1  0  0.681731  0  3.867849  0  0  0.637485  0  4.165733  0  0  0.670571  0  4.159317  0  0  0.189497  0.615123  0  4.169225  0
C  C77  1  0.90907719  0.70611493  0.92380192  1  0  0.681448  0  3.867905  0  0  0.637265  0  4.165659  0  0  0.670354  0  4.159252  0  0  0.189513  0.6149  0  4.169145  0
C  C78  1  0.99122595  0.80114038  0.21893058  1  0  -0.157449  0  3.675743  0  0  -0.175874  0  3.922781  0  0  -0.184499  0  3.944384  0  0  -0.075926  -0.170458  0  3.908317  0
C  C79  1  0.00877572  0.19885572  0.78106918  1  0  -0.157337  0  3.675897  0  0  -0.175828  0  3.922879  0  0  -0.184431  0  3.944497  0  0  -0.075904  -0.170413  0  3.908417  0
C  C80  1  0.69665852  0.42525543  0.24958167  1  0  -0.183646  0  3.63418  0  0  -0.226212  0  3.876055  0  0  -0.22857  0  3.891726  0  0  -0.162529  -0.224344  0  3.865045  0
C  C81  1  0.30334399  0.57474568  0.75041478  1  0  -0.183557  0  3.634124  0  0  -0.22617  0  3.876044  0  0  -0.228526  0  3.891713  0  0  -0.162501  -0.224291  0  3.865021  0
C  C82  1  0.55287297  0.32774721  0.97103002  1  0  0.13803  0  3.702514  0  0  0.104399  0  3.95993  0  0  0.111565  0  3.97793  0  0  0.050793  0.099824  0  3.947425  0
C  C83  1  0.44711954  0.67225695  0.02897133  1  0  0.137992  0  3.702457  0  0  0.104298  0  3.959949  0  0  0.111461  0  3.977954  0  0  0.050746  0.099726  0  3.94744  0
C  C84  1  0.59990494  0.01144848  0.26021038  1  0  -0.328928  0  3.65916  0  0  -0.373242  0  3.906021  0  0  -0.379648  0  3.913425  0  0  -0.167119  -0.368812  0  3.900724  0
C  C85  1  0.40009882  0.98854963  0.73978611  1  0  -0.328809  0  3.659013  0  0  -0.373175  0  3.905918  0  0  -0.379605  0  3.913374  0  0  -0.167086  -0.368737  0  3.900622  0
C  C86  1  0.73447643  0.21933636  0.43141404  1  0  0.0383  0  3.637093  0  0  0.041856  0  3.869909  0  0  0.041547  0  3.8873  0  0  -0.094182  0.042187  0  3.857696  0
C  C87  1  0.26552065  0.78066377  0.56858732  1  0  0.038411  0  3.636839  0  0  0.041856  0  3.869778  0  0  0.041535  0  3.887177  0  0  -0.094139  0.042194  0  3.857564  0
C  C88  1  0.97292732  0.78447707  0.33673841  1  0  0.082823  0  3.817048  0  0  0.09835  0  4.048558  0  0  0.100933  0  4.072146  0  0  0.005732  0.096752  0  4.032442  0
C  C89  1  0.02707315  0.21552104  0.66326302  1  0  0.082686  0  3.817277  0  0  0.098355  0  4.048621  0  0  0.100875  0  4.072291  0  0  0.005694  0.096755  0  4.032502  0
C  C90  1  0.60852257  0.34865625  0.73888097  1  0  -0.135145  0  3.685656  0  0  -0.154845  0  3.932532  0  0  -0.16114  0  3.953631  0  0  -0.071863  -0.150654  0  3.918705  0
C  C91  1  0.39147885  0.65134486  0.26112059  1  0  -0.134969  0  3.685399  0  0  -0.154704  0  3.932297  0  0  -0.160998  0  3.953392  0  0  -0.07182  -0.150513  0  3.918472  0
C  C92  1  0.88635466  0.67731031  0.41764911  1  0  0.089986  0  3.651718  0  0  0.056169  0  3.914051  0  0  0.061882  0  3.925798  0  0  0.080142  0.052381  0  3.905818  0
C  C93  1  0.11364462  0.32268981  0.58235480  1  0  0.089877  0  3.651723  0  0  0.056012  0  3.914037  0  0  0.061743  0  3.925798  0  0  0.080043  0.052225  0  3.905804  0
C  C94  1  0.86682911  0.27903903  0.33038592  1  0  -0.192638  0  3.617092  0  0  -0.237571  0  3.859797  0  0  -0.239529  0  3.8739  0  0  -0.168181  -0.236152  0  3.849914  0
C  C95  1  0.13316903  0.72096210  0.66961340  1  0  -0.192735  0  3.617106  0  0  -0.237638  0  3.859847  0  0  -0.239598  0  3.873959  0  0  -0.168198  -0.236223  0  3.849965  0
C  C96  1  0.77815792  0.53381922  0.69635202  1  0  0.088578  0  3.594994  0  0  0.057085  0  3.853799  0  0  0.063257  0  3.86414  0  0  0.083463  0.05298  0  3.847324  0
C  C97  1  0.22183897  0.46618491  0.30365126  1  0  0.088589  0  3.595042  0  0  0.057106  0  3.853859  0  0  0.063265  0  3.864193  0  0  0.083458  0.053008  0  3.847395  0
C  C98  1  0.68835389  0.09720136  0.39765760  1  0  -0.188111  0  3.627556  0  0  -0.233836  0  3.871024  0  0  -0.235728  0  3.884952  0  0  -0.165502  -0.232357  0  3.86137  0
C  C99  1  0.31164534  0.90279977  0.60234061  1  0  -0.188191  0  3.627545  0  0  -0.233915  0  3.871031  0  0  -0.235805  0  3.884957  0  0  -0.165535  -0.232428  0  3.861365  0
C  C100  1  0.04228337  0.87292093  0.37347432  1  0  -0.148172  0  3.701037  0  0  -0.1688  0  3.950288  0  0  -0.175677  0  3.970974  0  0  -0.077102  -0.164289  0  3.936798  0
C  C101  1  0.95771920  0.12707917  0.62652545  1  0  -0.148189  0  3.701113  0  0  -0.168892  0  3.95033  0  0  -0.175751  0  3.971031  0  0  -0.077104  -0.16437  0  3.936847  0
C  C102  1  0.60686940  0.32494932  0.45840119  1  0  -0.164472  0  3.647153  0  0  -0.210534  0  3.897846  0  0  -0.211913  0  3.911581  0  0  -0.168067  -0.209353  0  3.888082  0
C  C103  1  0.39313217  0.67504879  0.54159833  1  0  -0.164503  0  3.647192  0  0  -0.210554  0  3.897924  0  0  -0.211931  0  3.911661  0  0  -0.168114  -0.20938  0  3.888167  0
C  C104  1  0.56467001  0.36662158  0.35129744  1  0  0.028434  0  3.650024  0  0  0.029626  0  3.883237  0  0  0.028744  0  3.901835  0  0  -0.099159  0.030356  0  3.870131  0
C  C105  1  0.43533036  0.63337854  0.64870137  1  0  0.028422  0  3.650206  0  0  0.029709  0  3.883335  0  0  0.028824  0  3.901937  0  0  -0.099124  0.030436  0  3.870224  0
C  C106  1  0.65390790  0.41885024  0.89605423  1  0  -0.158585  0  3.684564  0  0  -0.176431  0  3.932792  0  0  -0.184416  0  3.954617  0  0  -0.076289  -0.171197  0  3.917953  0
C  C107  1  0.34608341  0.58115592  0.10394960  1  0  -0.158397  0  3.68466  0  0  -0.176189  0  3.932864  0  0  -0.184165  0  3.954693  0  0  -0.076251  -0.170957  0  3.918024  0
C  C108  1  0.50550957  0.26493945  0.82009946  1  0  0.131418  0  3.701966  0  0  0.101737  0  3.94845  0  0  0.107461  0  3.968085  0  0  0.049468  0.097799  0  3.935279  0
C  C109  1  0.49448951  0.73506467  0.17989998  1  0  0.131332  0  3.701974  0  0  0.101682  0  3.948451  0  0  0.107398  0  3.968109  0  0  0.049489  0.097742  0  3.935279  0
N  N110  1  0.47773336  0.25321389  0.93462216  1  0  -0.308986  0  3.255249  0  0  -0.232442  0  3.520446  0  0  -0.250318  0  3.536621  0  0  -0.31036  -0.220006  0  3.509383  0
N  N111  1  0.52226138  0.74678926  0.06537868  1  0  -0.308935  0  3.25522  0  0  -0.232384  0  3.520451  0  0  -0.250266  0  3.536635  0  0  -0.310338  -0.219947  0  3.509384  0
N  N112  1  0.15253623  0.98019807  0.17806902  1  0  -0.302787  0  3.22877  0  0  -0.227033  0  3.49135  0  0  -0.24542  0  3.509077  0  0  -0.309024  -0.214532  0  3.479399  0
N  N113  1  0.84746648  0.01979903  0.82193109  1  0  -0.302836  0  3.228871  0  0  -0.22708  0  3.491447  0  0  -0.24547  0  3.50918  0  0  -0.30906  -0.214577  0  3.47949  0
N  N114  1  0.88261728  0.65325799  0.52335082  1  0  -0.183369  0  3.023934  0  0  -0.155381  0  3.314084  0  0  -0.163194  0  3.330575  0  0  -0.199856  -0.150105  0  3.302866  0
N  N115  1  0.11738196  0.34674313  0.47665217  1  0  -0.183276  0  3.02394  0  0  -0.155281  0  3.314085  0  0  -0.163093  0  3.330576  0  0  -0.199782  -0.150004  0  3.302863  0
N  N116  1  0.79743784  0.54682491  0.58705546  1  0  -0.192527  0  3.036327  0  0  -0.163467  0  3.329238  0  0  -0.172187  0  3.345975  0  0  -0.201424  -0.157851  0  3.318168  0
N  N117  1  0.20256139  0.45317621  0.41294833  1  0  -0.192523  0  3.036264  0  0  -0.16345  0  3.329156  0  0  -0.172171  0  3.345901  0  0  -0.201427  -0.157833  0  3.318086  0
O  O118  1  0.18023422  0.28198811  0.13176312  1  0  -0.666717  0  1.992894  0  0  -0.597997  0  2.246285  0  0  -0.627123  0  2.235172  0  0  -0.336424  -0.577343  0  2.253176  0
O  O119  1  0.81976596  0.71801600  0.86824398  1  0  -0.666597  0  1.992916  0  0  -0.597912  0  2.246301  0  0  -0.627039  0  2.235184  0  0  -0.336469  -0.57727  0  2.253225  0
O  O120  1  0.11277275  0.22938735  0.99283655  1  0  -0.639521  0  1.879196  0  0  -0.58765  0  2.108092  0  0  -0.612201  0  2.099039  0  0  -0.334158  -0.570312  0  2.113783  0
O  O121  1  0.88723969  0.77061269  0.00716752  1  0  -0.639312  0  1.87895  0  0  -0.587523  0  2.107885  0  0  -0.61203  0  2.098748  0  0  -0.334137  -0.570195  0  2.113599  0
O  O122  1  0.64656890  0.01322993  0.05783033  1  0  -0.665597  0  2.105416  0  0  -0.604449  0  2.39702  0  0  -0.630896  0  2.38062  0  0  -0.329561  -0.586082  0  2.40765  0
O  O123  1  0.35343481  0.98676917  0.94216764  1  0  -0.665542  0  2.105419  0  0  -0.604409  0  2.397066  0  0  -0.630838  0  2.380633  0  0  -0.329498  -0.586045  0  2.407695  0
O  O124  1  0.42142604  0.08145737  0.17320148  1  0  -0.640704  0  2.075852  0  0  -0.570996  0  2.347177  0  0  -0.598628  0  2.332843  0  0  -0.315787  -0.551743  0  2.356258  0
O  O125  1  0.57857658  0.91854174  0.82679601  1  0  -0.64072  0  2.075863  0  0  -0.571007  0  2.347195  0  0  -0.598638  0  2.332863  0  0  -0.315772  -0.551751  0  2.356277  0
