# generated using pymatgen
data_HgH7C5SO5
_symmetry_space_group_name_H-M   'P 1'
_cell_length_a   5.73209360
_cell_length_b   11.09089166
_cell_length_c   13.57644559
_cell_angle_alpha   114.40537544
_cell_angle_beta   90.00100497
_cell_angle_gamma   89.99888726
_symmetry_Int_Tables_number   1
_chemical_formula_structural   HgH7C5SO5
_chemical_formula_sum   'Hg4 H28 C20 S4 O20'
_cell_volume   785.98612464
_cell_formula_units_Z   4
loop_
 _symmetry_equiv_pos_site_id
 _symmetry_equiv_pos_as_xyz
  1  'x, y, z'
loop_
 _atom_site_type_symbol
 _atom_site_label
 _atom_site_symmetry_multiplicity
 _atom_site_fract_x
 _atom_site_fract_y
 _atom_site_fract_z
 _atom_site_occupancy
 _atom_site_hle17_bader_spin_density
 _atom_site_hle17_ddec_charge
 _atom_site_hle17_ddec_spin_density
 _atom_site_hle17_ddec_sum_bond_order
 _atom_site_hle17_magmom
 _atom_site_hse06_10hf_bader_spin_density
 _atom_site_hse06_10hf_ddec_charge
 _atom_site_hse06_10hf_ddec_spin_density
 _atom_site_hse06_10hf_ddec_sum_bond_order
 _atom_site_hse06_10hf_magmom
 _atom_site_hse06_bader_spin_density
 _atom_site_hse06_ddec_charge
 _atom_site_hse06_ddec_spin_density
 _atom_site_hse06_ddec_sum_bond_order
 _atom_site_hse06_magmom
 _atom_site_pbe_bader_spin_density
 _atom_site_pbe_cm5_charge
 _atom_site_pbe_ddec_charge
 _atom_site_pbe_ddec_spin_density
 _atom_site_pbe_ddec_sum_bond_order
 _atom_site_pbe_magmom
Hg  Hg0  1  0.65972698  0.54323407  0.57210884  1  0  0.586623  0  1.645721  0  0  0.488698  0  2.066784  0  0  0.514787  0  2.039476  0  0  0.419924  0.469181  0  2.086849  0
Hg  Hg1  1  0.15973130  0.95677295  0.42789523  1  0  0.586646  0  1.645659  0  0  0.488732  0  2.066694  0  0  0.514814  0  2.039383  0  0  0.419954  0.469225  0  2.086749  0
Hg  Hg2  1  0.34026652  0.45676031  0.42788149  1  0  0.586648  0  1.645685  0  0  0.488754  0  2.066726  0  0  0.514838  0  2.039414  0  0  0.419952  0.469243  0  2.086796  0
Hg  Hg3  1  0.84026046  0.04323251  0.57211497  1  0  0.586636  0  1.645733  0  0  0.488721  0  2.066753  0  0  0.514811  0  2.039443  0  0  0.419938  0.469205  0  2.086824  0
H  H4  1  0.90021246  0.74180615  0.71905318  1  0  0.416165  0  0.881205  0  0  0.386981  0  0.949831  0  0  0.397339  0  0.935206  0  0  0.29373  0.379677  0  0.960107  0
H  H5  1  0.40023238  0.75820401  0.28094785  1  0  0.416262  0  0.880964  0  0  0.386968  0  0.949845  0  0  0.397323  0  0.935222  0  0  0.293723  0.379665  0  0.96012  0
H  H6  1  0.09977406  0.25818833  0.28094602  1  0  0.416117  0  0.881203  0  0  0.386992  0  0.949802  0  0  0.397345  0  0.935183  0  0  0.293757  0.379686  0  0.960078  0
H  H7  1  0.59976461  0.24180236  0.71905529  1  0  0.416236  0  0.881129  0  0  0.38696  0  0.949884  0  0  0.397315  0  0.935262  0  0  0.293736  0.379657  0  0.960158  0
H  H8  1  0.99968495  0.61563995  0.73455573  1  0  0.425177  0  0.877755  0  0  0.395621  0  0.938657  0  0  0.406447  0  0.923476  0  0  0.295111  0.387965  0  0.94935  0
H  H9  1  0.49968721  0.88436257  0.26544500  1  0  0.425139  0  0.877822  0  0  0.395599  0  0.938706  0  0  0.406423  0  0.923527  0  0  0.2951  0.387944  0  0.949396  0
H  H10  1  0.00029634  0.38435642  0.26543599  1  0  0.425237  0  0.877638  0  0  0.395608  0  0.938639  0  0  0.406431  0  0.923463  0  0  0.295099  0.387958  0  0.94932  0
H  H11  1  0.50030803  0.11564286  0.73456225  1  0  0.425227  0  0.877681  0  0  0.395638  0  0.938635  0  0  0.406464  0  0.923452  0  0  0.295114  0.387985  0  0.949325  0
H  H12  1  0.96090579  0.27089599  0.44529702  1  0  0.407876  0  0.901097  0  0  0.376769  0  0.966625  0  0  0.386623  0  0.952433  0  0  0.282132  0.369768  0  0.976679  0
H  H13  1  0.46089952  0.22910685  0.55470440  1  0  0.407899  0  0.90105  0  0  0.376758  0  0.966617  0  0  0.386614  0  0.952421  0  0  0.282133  0.369755  0  0.976673  0
H  H14  1  0.03908945  0.72910939  0.55470578  1  0  0.407851  0  0.901126  0  0  0.376704  0  0.96669  0  0  0.38656  0  0.952496  0  0  0.282105  0.369704  0  0.976746  0
H  H15  1  0.53909921  0.77089657  0.44529997  1  0  0.407917  0  0.901025  0  0  0.376803  0  0.966563  0  0  0.38666  0  0.952366  0  0  0.282152  0.3698  0  0.97662  0
H  H16  1  0.01546718  0.33748500  0.57209485  1  0  0.408787  0  0.902737  0  0  0.377911  0  0.96789  0  0  0.387937  0  0.953354  0  0  0.279676  0.370816  0  0.978142  0
H  H17  1  0.51547166  0.16251818  0.42790922  1  0  0.408787  0  0.902735  0  0  0.377881  0  0.967935  0  0  0.387907  0  0.953398  0  0  0.279657  0.370782  0  0.97819  0
H  H18  1  0.98452632  0.66252039  0.42790944  1  0  0.408866  0  0.902643  0  0  0.377926  0  0.967884  0  0  0.387953  0  0.953346  0  0  0.279689  0.370829  0  0.97814  0
H  H19  1  0.48453231  0.83748228  0.57209417  1  0  0.408803  0  0.902702  0  0  0.377915  0  0.967877  0  0  0.38794  0  0.953341  0  0  0.279681  0.370818  0  0.978132  0
H  H20  1  0.00401706  0.30359244  0.85750078  1  0  0.117077  0  0.94594  0  0  0.124201  0  1.010656  0  0  0.127427  0  1.008645  0  0  0.108892  0.12188  0  1.012129  0
H  H21  1  0.50401567  0.19641280  0.14250388  1  0  0.116997  0  0.945877  0  0  0.124182  0  1.010552  0  0  0.12741  0  1.008544  0  0  0.108867  0.12186  0  1.012027  0
H  H22  1  0.99599040  0.69641484  0.14249677  1  0  0.11689  0  0.94585  0  0  0.124166  0  1.010427  0  0  0.127395  0  1.008418  0  0  0.10883  0.121837  0  1.011914  0
H  H23  1  0.49599353  0.80358077  0.85750091  1  0  0.116951  0  0.945735  0  0  0.124145  0  1.010423  0  0  0.127374  0  1.008414  0  0  0.108834  0.121817  0  1.011909  0
H  H24  1  0.03119646  0.31004213  0.04332072  1  0  0.095156  0  0.965256  0  0  0.104198  0  1.027217  0  0  0.106451  0  1.028136  0  0  0.100091  0.102396  0  1.027164  0
H  H25  1  0.53121081  0.18994908  0.95668171  1  0  0.095154  0  0.965474  0  0  0.104268  0  1.027341  0  0  0.106525  0  1.028252  0  0  0.100089  0.102456  0  1.027301  0
H  H26  1  0.96878831  0.68994832  0.95667052  1  0  0.09519  0  0.965553  0  0  0.104259  0  1.027472  0  0  0.106512  0  1.028389  0  0  0.100107  0.102442  0  1.027433  0
H  H27  1  0.46879665  0.81004843  0.04332365  1  0  0.095219  0  0.965549  0  0  0.104273  0  1.027483  0  0  0.106526  0  1.028401  0  0  0.100103  0.102468  0  1.02743  0
H  H28  1  0.34482197  0.43294716  0.16599968  1  0  0.108315  0  0.980971  0  0  0.113524  0  1.050199  0  0  0.117171  0  1.04721  0  0  0.101676  0.110968  0  1.052227  0
H  H29  1  0.84482733  0.06705444  0.83399162  1  0  0.108156  0  0.981  0  0  0.113373  0  1.050244  0  0  0.117021  0  1.047253  0  0  0.101598  0.110816  0  1.052281  0
H  H30  1  0.65516979  0.56704917  0.83398835  1  0  0.108272  0  0.981069  0  0  0.11348  0  1.050303  0  0  0.117128  0  1.047309  0  0  0.101619  0.110924  0  1.052334  0
H  H31  1  0.15519234  0.93295096  0.16601341  1  0  0.108318  0  0.981031  0  0  0.113489  0  1.050324  0  0  0.117139  0  1.047324  0  0  0.101625  0.110933  0  1.052352  0
C  C32  1  0.30502906  0.42604958  0.87848972  1  0  -0.181055  0  3.714883  0  0  -0.157278  0  3.961933  0  0  -0.166005  0  3.984378  0  0  -0.02068  -0.151758  0  3.947017  0
C  C33  1  0.80502279  0.07396634  0.12152001  1  0  -0.181053  0  3.714822  0  0  -0.157287  0  3.961887  0  0  -0.166019  0  3.984334  0  0  -0.020537  -0.151758  0  3.946966  0
C  C34  1  0.69498711  0.57397454  0.12151340  1  0  -0.180985  0  3.714796  0  0  -0.157236  0  3.96194  0  0  -0.165971  0  3.984387  0  0  -0.020558  -0.151713  0  3.947016  0
C  C35  1  0.19498641  0.92603415  0.87848633  1  0  -0.180907  0  3.714651  0  0  -0.157242  0  3.961902  0  0  -0.165975  0  3.984349  0  0  -0.020564  -0.151721  0  3.946988  0
C  C36  1  0.14359089  0.35846639  0.91195317  1  0  -0.035583  0  3.730818  0  0  -0.065854  0  3.986315  0  0  -0.062672  0  4.004382  0  0  -0.07771  -0.067581  0  3.974038  0
C  C37  1  0.64360510  0.14153095  0.08805288  1  0  -0.035457  0  3.731103  0  0  -0.065781  0  3.986621  0  0  -0.062605  0  4.004698  0  0  -0.077761  -0.067512  0  3.974336  0
C  C38  1  0.85639388  0.64152606  0.08804020  1  0  -0.035364  0  3.731259  0  0  -0.065734  0  3.986725  0  0  -0.062556  0  4.004798  0  0  -0.077702  -0.067458  0  3.974437  0
C  C39  1  0.35640235  0.85847162  0.91196226  1  0  -0.035391  0  3.731021  0  0  -0.065691  0  3.986525  0  0  -0.062516  0  4.0046  0  0  -0.077681  -0.06742  0  3.974244  0
C  C40  1  0.16045660  0.36218027  0.01674295  1  0  -0.054276  0  3.73492  0  0  -0.06685  0  3.990924  0  0  -0.070235  0  4.011278  0  0  -0.086273  -0.064816  0  3.977627  0
C  C41  1  0.66045657  0.13782384  0.98326251  1  0  -0.054467  0  3.734594  0  0  -0.067115  0  3.990655  0  0  -0.070504  0  4.011006  0  0  -0.086355  -0.065074  0  3.977367  0
C  C42  1  0.83955434  0.63782603  0.98325426  1  0  -0.054394  0  3.73455  0  0  -0.067007  0  3.99062  0  0  -0.070391  0  4.010968  0  0  -0.086315  -0.06496  0  3.977326  0
C  C43  1  0.33955438  0.86217271  0.01674400  1  0  -0.054457  0  3.734889  0  0  -0.067043  0  3.990917  0  0  -0.070429  0  4.01127  0  0  -0.086329  -0.065007  0  3.977617  0
C  C44  1  0.33663488  0.43187949  0.08575408  1  0  -0.090776  0  3.695442  0  0  -0.118198  0  3.95478  0  0  -0.117917  0  3.971738  0  0  -0.084813  -0.118256  0  3.943166  0
C  C45  1  0.83663821  0.06809946  0.91423482  1  0  -0.090492  0  3.695176  0  0  -0.117893  0  3.954462  0  0  -0.117614  0  3.971437  0  0  -0.084685  -0.117951  0  3.942848  0
C  C46  1  0.66335165  0.56809309  0.91422756  1  0  -0.090768  0  3.695208  0  0  -0.118179  0  3.954527  0  0  -0.117893  0  3.971492  0  0  -0.084785  -0.11824  0  3.942909  0
C  C47  1  0.16335878  0.93190102  0.08577079  1  0  -0.090801  0  3.695331  0  0  -0.118199  0  3.954623  0  0  -0.117916  0  3.971588  0  0  -0.084778  -0.118256  0  3.943002  0
C  C48  1  0.49279814  0.49900871  0.94668542  1  0  0.059404  0  3.736868  0  0  0.068838  0  3.962945  0  0  0.069083  0  3.987709  0  0  0.000316  0.068817  0  3.946325  0
C  C49  1  0.99280062  0.00098395  0.05330846  1  0  0.059416  0  3.73614  0  0  0.068877  0  3.962204  0  0  0.069134  0  3.98695  0  0  0.000278  0.068852  0  3.945584  0
C  C50  1  0.50720932  0.50097877  0.05330558  1  0  0.059378  0  3.735793  0  0  0.068806  0  3.961932  0  0  0.069066  0  3.986677  0  0  0.000287  0.068782  0  3.945315  0
C  C51  1  0.00722080  0.99902334  0.94668909  1  0  0.05927  0  3.736322  0  0  0.068727  0  3.962448  0  0  0.06898  0  3.9872  0  0  0.000238  0.068699  0  3.945832  0
S  S52  1  0.27043529  0.42150499  0.74667436  1  0  1.305561  0  5.577831  0  0  1.202299  0  6.090672  0  0  1.249358  0  6.069673  0  0  0.520814  1.169858  0  6.104022  0
S  S53  1  0.77044464  0.07849737  0.25333504  1  0  1.30544  0  5.577807  0  0  1.202175  0  6.090651  0  0  1.249235  0  6.069666  0  0  0.520708  1.169716  0  6.104011  0
S  S54  1  0.72955996  0.57848844  0.25331934  1  0  1.305465  0  5.57835  0  0  1.202211  0  6.091201  0  0  1.249273  0  6.070202  0  0  0.520785  1.169763  0  6.104556  0
S  S55  1  0.22955933  0.92150511  0.74667270  1  0  1.305408  0  5.577983  0  0  1.202132  0  6.090884  0  0  1.249196  0  6.069893  0  0  0.520745  1.169686  0  6.104244  0
O  O56  1  0.85103843  0.65896752  0.72582285  1  0  -0.722471  0  1.930257  0  0  -0.636613  0  2.122116  0  0  -0.66182  0  2.093312  0  0  -0.54174  -0.618934  0  2.142216  0
O  O57  1  0.35105666  0.84103505  0.27417383  1  0  -0.722582  0  1.930101  0  0  -0.636646  0  2.122043  0  0  -0.661841  0  2.093235  0  0  -0.541769  -0.618968  0  2.142144  0
O  O58  1  0.14894984  0.34102692  0.27417266  1  0  -0.722518  0  1.930085  0  0  -0.636656  0  2.122067  0  0  -0.661853  0  2.093261  0  0  -0.541761  -0.61898  0  2.142165  0
O  O59  1  0.64893510  0.15897032  0.72582898  1  0  -0.722613  0  1.930222  0  0  -0.636634  0  2.122108  0  0  -0.661841  0  2.09331  0  0  -0.541758  -0.618954  0  2.142209  0
O  O60  1  0.98560843  0.35653250  0.50786819  1  0  -0.816185  0  1.922263  0  0  -0.748794  0  2.113261  0  0  -0.77095  0  2.081973  0  0  -0.589307  -0.732577  0  2.134832  0
O  O61  1  0.48560465  0.14346620  0.49213131  1  0  -0.816191  0  1.922222  0  0  -0.74875  0  2.113323  0  0  -0.770893  0  2.082009  0  0  -0.589296  -0.732555  0  2.134949  0
O  O62  1  0.01438681  0.64347088  0.49213248  1  0  -0.816252  0  1.922135  0  0  -0.74876  0  2.113323  0  0  -0.770905  0  2.082008  0  0  -0.589307  -0.732549  0  2.134898  0
O  O63  1  0.51439234  0.85653523  0.50787092  1  0  -0.816217  0  1.922242  0  0  -0.748819  0  2.11327  0  0  -0.770966  0  2.081953  0  0  -0.589333  -0.732612  0  2.134864  0
O  O64  1  0.49071248  0.36320555  0.68731735  1  0  -0.706484  0  2.038833  0  0  -0.636726  0  2.282416  0  0  -0.659879  0  2.267537  0  0  -0.337432  -0.620216  0  2.291998  0
O  O65  1  0.99073596  0.13679211  0.31268111  1  0  -0.706326  0  2.03875  0  0  -0.636677  0  2.282452  0  0  -0.659803  0  2.267506  0  0  -0.337398  -0.620149  0  2.292009  0
O  O66  1  0.50928625  0.63679869  0.31267255  1  0  -0.706447  0  2.039051  0  0  -0.636709  0  2.282684  0  0  -0.659835  0  2.267762  0  0  -0.337404  -0.620201  0  2.29226  0
O  O67  1  0.00927150  0.86320640  0.68732458  1  0  -0.706417  0  2.039054  0  0  -0.636731  0  2.282734  0  0  -0.65985  0  2.267777  0  0  -0.33743  -0.620203  0  2.292277  0
O  O68  1  0.24348462  0.55878228  0.75817928  1  0  -0.666568  0  2.004853  0  0  -0.611813  0  2.25715  0  0  -0.635114  0  2.245713  0  0  -0.330422  -0.595233  0  2.26465  0
O  O69  1  0.74349883  0.94121619  0.24182038  1  0  -0.666411  0  2.004816  0  0  -0.611713  0  2.257238  0  0  -0.63502  0  2.245809  0  0  -0.330366  -0.595132  0  2.264739  0
O  O70  1  0.75651236  0.44122108  0.24181991  1  0  -0.666502  0  2.005194  0  0  -0.611728  0  2.257532  0  0  -0.635031  0  2.246096  0  0  -0.330395  -0.595153  0  2.265032  0
O  O71  1  0.25650165  0.05878332  0.75818638  1  0  -0.666463  0  2.004963  0  0  -0.611734  0  2.257383  0  0  -0.63504  0  2.245949  0  0  -0.330418  -0.595156  0  2.264883  0
O  O72  1  0.06693608  0.33775946  0.69764210  1  0  -0.656724  0  1.986304  0  0  -0.596863  0  2.232757  0  0  -0.618006  0  2.21883  0  0  -0.333978  -0.581897  0  2.241953  0
O  O73  1  0.56694421  0.16226899  0.30236261  1  0  -0.656783  0  1.986228  0  0  -0.596853  0  2.232622  0  0  -0.617997  0  2.218697  0  0  -0.333914  -0.581897  0  2.241861  0
O  O74  1  0.93308010  0.66223690  0.30234888  1  0  -0.656776  0  1.986132  0  0  -0.596912  0  2.232603  0  0  -0.618075  0  2.218686  0  0  -0.334014  -0.581926  0  2.241777  0
O  O75  1  0.43306499  0.83773344  0.69764143  1  0  -0.656778  0  1.986083  0  0  -0.596843  0  2.232495  0  0  -0.617998  0  2.218573  0  0  -0.333901  -0.581862  0  2.241664  0
