# generated using pymatgen
data_Zn3H26C40(NO8)2
_symmetry_space_group_name_H-M   'P 1'
_cell_length_a   8.94052214
_cell_length_b   10.12140987
_cell_length_c   10.98956850
_cell_angle_alpha   100.51392645
_cell_angle_beta   89.02997377
_cell_angle_gamma   105.88668382
_symmetry_Int_Tables_number   1
_chemical_formula_structural   Zn3H26C40(NO8)2
_chemical_formula_sum   'Zn3 H26 C40 N2 O16'
_cell_volume   939.83836228
_cell_formula_units_Z   1
loop_
 _symmetry_equiv_pos_site_id
 _symmetry_equiv_pos_as_xyz
  1  'x, y, z'
loop_
 _atom_site_type_symbol
 _atom_site_label
 _atom_site_symmetry_multiplicity
 _atom_site_fract_x
 _atom_site_fract_y
 _atom_site_fract_z
 _atom_site_occupancy
 _atom_site_hle17_bader_spin_density
 _atom_site_hle17_ddec_charge
 _atom_site_hle17_ddec_spin_density
 _atom_site_hle17_ddec_sum_bond_order
 _atom_site_hle17_magmom
 _atom_site_hse06_10hf_bader_spin_density
 _atom_site_hse06_10hf_ddec_charge
 _atom_site_hse06_10hf_ddec_spin_density
 _atom_site_hse06_10hf_ddec_sum_bond_order
 _atom_site_hse06_10hf_magmom
 _atom_site_hse06_bader_spin_density
 _atom_site_hse06_ddec_charge
 _atom_site_hse06_ddec_spin_density
 _atom_site_hse06_ddec_sum_bond_order
 _atom_site_hse06_magmom
 _atom_site_pbe_bader_spin_density
 _atom_site_pbe_cm5_charge
 _atom_site_pbe_ddec_charge
 _atom_site_pbe_ddec_spin_density
 _atom_site_pbe_ddec_sum_bond_order
 _atom_site_pbe_magmom
Zn  Zn0  1  0.49128774  0.95297845  0.06172027  1  0  1.080935  0  1.794297  0  0  0.894911  0  2.269307  0  0  0.944487  0  2.208968  0  0  0.706419  0.859702  0  2.311104  0
Zn  Zn1  1  0.60328286  0.75552432  0.23117380  1  0  1.247677  0  1.692702  0  0  1.095088  0  2.147939  0  0  1.142011  0  2.084847  0  0  0.69276  1.061587  0  2.19156  0
Zn  Zn2  1  0.28740697  0.77231378  0.58113808  1  0  1.084117  0  1.745655  0  0  0.895908  0  2.22064  0  0  0.948392  0  2.158768  0  0  0.684464  0.858664  0  2.263981  0
H  H3  1  0.86930396  0.42025139  0.30675371  1  0  0.095464  0  0.973723  0  0  0.104188  0  1.038714  0  0  0.107267  0  1.036823  0  0  0.101138  0.10172  0  1.04053  0
H  H4  1  0.69483152  0.37117070  0.12372488  1  0  0.119445  0  0.963025  0  0  0.127568  0  1.027848  0  0  0.130878  0  1.026353  0  0  0.108262  0.125083  0  1.029125  0
H  H5  1  0.02960534  0.67696566  0.96086491  1  0  0.116977  0  0.970787  0  0  0.125025  0  1.038171  0  0  0.128256  0  1.03673  0  0  0.108495  0.122629  0  1.039436  0
H  H6  1  0.69692280  0.83333282  0.74135386  1  0  0.093936  0  0.965487  0  0  0.103286  0  1.030856  0  0  0.106222  0  1.028896  0  0  0.101316  0.101098  0  1.032366  0
H  H7  1  0.82043162  0.74180391  0.55015611  1  0  0.095882  0  0.956294  0  0  0.106053  0  1.01828  0  0  0.109039  0  1.017345  0  0  0.099358  0.103542  0  1.019632  0
H  H8  1  0.91371774  0.52984021  0.54377632  1  0  0.088907  0  0.952633  0  0  0.100177  0  1.011799  0  0  0.102131  0  1.011481  0  0  0.101231  0.098488  0  1.012512  0
H  H9  1  0.88038483  0.41145098  0.72693386  1  0  0.112758  0  0.963714  0  0  0.119121  0  1.031247  0  0  0.122574  0  1.029915  0  0  0.102498  0.116591  0  1.031955  0
H  H10  1  0.77047147  0.02283829  0.68431362  1  0  0.111984  0  0.977015  0  0  0.119416  0  1.045433  0  0  0.122695  0  1.044295  0  0  0.105542  0.117138  0  1.046066  0
H  H11  1  0.11889664  0.31577151  0.51878886  1  0  0.124352  0  0.93867  0  0  0.133835  0  0.99787  0  0  0.137349  0  0.996582  0  0  0.109744  0.131345  0  0.998743  0
H  H12  1  0.95203181  0.25575133  0.32892039  1  0  0.096329  0  0.962909  0  0  0.107612  0  1.023417  0  0  0.110106  0  1.022476  0  0  0.104164  0.105575  0  1.024594  0
H  H13  1  0.90383904  0.29420017  0.91501325  1  0  0.10669  0  0.980383  0  0  0.113209  0  1.048902  0  0  0.116603  0  1.047638  0  0  0.098986  0.111017  0  1.049093  0
H  H14  1  0.87107589  0.18910791  0.10509156  1  0  0.083167  0  0.979222  0  0  0.093519  0  1.04258  0  0  0.094993  0  1.04293  0  0  0.09584  0.092142  0  1.043026  0
H  H15  1  0.97373864  0.98257591  0.11237095  1  0  0.094082  0  0.941907  0  0  0.105757  0  0.9993  0  0  0.109073  0  0.997872  0  0  0.098892  0.103392  0  1.000395  0
H  H16  1  0.09807010  0.88400088  0.92761903  1  0  0.099689  0  0.978651  0  0  0.106463  0  1.047855  0  0  0.110174  0  1.044427  0  0  0.099297  0.103726  0  1.05048  0
H  H17  1  0.51879293  0.00411101  0.80983368  1  0  0.095519  0  0.949021  0  0  0.102314  0  1.015548  0  0  0.105534  0  1.011983  0  0  0.122437  0.099925  0  1.017758  0
H  H18  1  0.46821630  0.17046058  0.69098747  1  0  0.121314  0  0.943327  0  0  0.130527  0  1.00237  0  0  0.133789  0  1.001469  0  0  0.115278  0.127939  0  1.0036  0
H  H19  1  0.36146183  0.40598308  0.03738422  1  0  0.122462  0  0.939522  0  0  0.13427  0  0.994837  0  0  0.137505  0  0.99386  0  0  0.116066  0.132037  0  0.995441  0
H  H20  1  0.41028697  0.22442466  0.14093481  1  0  0.092461  0  0.926292  0  0  0.103818  0  0.982091  0  0  0.106699  0  0.979093  0  0  0.125215  0.10145  0  0.984771  0
H  H21  1  0.21494652  0.68138648  0.81540906  1  0  0.089453  0  0.962586  0  0  0.0961  0  1.029982  0  0  0.099092  0  1.0271  0  0  0.118358  0.094468  0  1.030588  0
H  H22  1  0.24917146  0.50103881  0.93060351  1  0  0.106778  0  0.959538  0  0  0.116988  0  1.021261  0  0  0.119208  0  1.021936  0  0  0.108842  0.115163  0  1.021357  0
H  H23  1  0.50423798  0.35581011  0.62004163  1  0  0.1119  0  0.939368  0  0  0.12623  0  0.990435  0  0  0.129077  0  0.990316  0  0  0.114832  0.124674  0  0.989549  0
H  H24  1  0.44921199  0.53667330  0.51635535  1  0  0.077448  0  0.954313  0  0  0.086161  0  1.019117  0  0  0.089074  0  1.015906  0  0  0.117758  0.083852  0  1.021874  0
H  H25  1  0.91308442  0.73512140  0.27820226  1  0  0.426191  0  0.852494  0  0  0.397019  0  0.924267  0  0  0.404169  0  0.914262  0  0  0.306084  0.391856  0  0.931629  0
H  H26  1  0.89278266  0.86924779  0.36576597  1  0  0.443193  0  0.802681  0  0  0.423094  0  0.861078  0  0  0.430439  0  0.852752  0  0  0.328789  0.417701  0  0.867502  0
H  H27  1  0.41931194  0.52915072  0.29539214  1  0  0.439622  0  0.856862  0  0  0.407672  0  0.922345  0  0  0.418341  0  0.906635  0  0  0.297385  0.399964  0  0.933696  0
H  H28  1  0.58863178  0.51053034  0.31245513  1  0  0.422098  0  0.817577  0  0  0.407911  0  0.867093  0  0  0.414982  0  0.859663  0  0  0.324152  0.403227  0  0.871845  0
C  C29  1  0.25905452  0.73677822  0.13369451  1  0  0.676254  0  3.887186  0  0  0.623594  0  4.177161  0  0  0.658275  0  4.168839  0  0  0.217227  0.599963  0  4.18234  0
C  C30  1  0.16375223  0.59528439  0.34746886  1  0  0.686043  0  3.893212  0  0  0.628333  0  4.203158  0  0  0.662973  0  4.194146  0  0  0.211907  0.604882  0  4.208511  0
C  C31  1  0.09860812  0.64213838  0.13687825  1  0  -0.071973  0  3.772588  0  0  -0.054138  0  4.003779  0  0  -0.058212  0  4.02274  0  0  -0.018649  -0.051746  0  3.992004  0
C  C32  1  0.05651590  0.56935402  0.23548611  1  0  -0.088474  0  3.739764  0  0  -0.073977  0  3.971977  0  0  -0.077834  0  3.99052  0  0  -0.020377  -0.072272  0  3.960374  0
C  C33  1  0.90828537  0.47475019  0.23023575  1  0  -0.090124  0  3.773289  0  0  -0.108293  0  4.021262  0  0  -0.108999  0  4.04042  0  0  -0.092613  -0.107611  0  4.008653  0
C  C34  1  0.80774614  0.44750743  0.12786483  1  0  -0.146125  0  3.703503  0  0  -0.171017  0  3.961258  0  0  -0.173403  0  3.977437  0  0  -0.095113  -0.169267  0  3.950323  0
C  C35  1  0.85248794  0.51902808  0.03006323  1  0  0.295741  0  3.806717  0  0  0.284237  0  4.071375  0  0  0.296499  0  4.082837  0  0  0.08732  0.275834  0  4.063839  0
C  C36  1  0.99592931  0.61865496  0.03553718  1  0  -0.200995  0  3.730377  0  0  -0.234511  0  3.985945  0  0  -0.23766  0  4.003393  0  0  -0.102103  -0.232849  0  3.974996  0
C  C37  1  0.77787229  0.56012623  0.83565960  1  0  0.261575  0  3.757888  0  0  0.246273  0  4.017409  0  0  0.257185  0  4.033597  0  0  0.088662  0.239167  0  4.005762  0
C  C38  1  0.72701679  0.68109927  0.84259366  1  0  -0.168457  0  3.719496  0  0  -0.150626  0  3.956714  0  0  -0.161789  0  3.979399  0  0  -0.021519  -0.143752  0  3.941617  0
C  C39  1  0.74116712  0.74259270  0.73681975  1  0  -0.041231  0  3.730606  0  0  -0.06788  0  3.983492  0  0  -0.066684  0  4.005372  0  0  -0.080332  -0.068763  0  3.968685  0
C  C40  1  0.80769003  0.69014562  0.62996706  1  0  -0.079336  0  3.752274  0  0  -0.095657  0  4.007841  0  0  -0.10015  0  4.029792  0  0  -0.094951  -0.092087  0  3.992874  0
C  C41  1  0.85972286  0.57136549  0.62617117  1  0  -0.026216  0  3.756583  0  0  -0.040379  0  4.00738  0  0  -0.038979  0  4.027762  0  0  -0.080608  -0.041392  0  3.992104  0
C  C42  1  0.84322703  0.50567623  0.72859885  1  0  -0.18116  0  3.745074  0  0  -0.204231  0  4.003882  0  0  -0.210227  0  4.024109  0  0  -0.098323  -0.199233  0  3.987246  0
C  C43  1  0.65823594  0.74661982  0.95537827  1  0  0.701254  0  3.850618  0  0  0.644151  0  4.147483  0  0  0.680577  0  4.138708  0  0  0.22389  0.619458  0  4.152555  0
C  C44  1  0.66637519  0.08859621  0.28422112  1  0  0.677632  0  3.873643  0  0  0.62844  0  4.167089  0  0  0.66247  0  4.158492  0  0  0.21588  0.605295  0  4.172438  0
C  C45  1  0.57197409  0.91582115  0.49448412  1  0  0.67478  0  3.860936  0  0  0.625186  0  4.146171  0  0  0.659641  0  4.138529  0  0  0.219961  0.601805  0  4.150498  0
C  C46  1  0.76751892  0.10127325  0.39545940  1  0  -0.111861  0  3.762755  0  0  -0.099141  0  4.000342  0  0  -0.105717  0  4.021937  0  0  -0.02904  -0.095187  0  3.985877  0
C  C47  1  0.71926918  0.03161912  0.49534975  1  0  -0.057864  0  3.752158  0  0  -0.041144  0  3.985122  0  0  -0.04377  0  4.004968  0  0  -0.016656  -0.039545  0  3.972174  0
C  C48  1  0.81094528  0.07187775  0.60515169  1  0  -0.206412  0  3.724307  0  0  -0.239292  0  3.980117  0  0  -0.244207  0  3.998658  0  0  -0.102312  -0.236661  0  3.968453  0
C  C49  1  0.95309791  0.17381355  0.61370257  1  0  0.312708  0  3.809328  0  0  0.299356  0  4.075386  0  0  0.312929  0  4.086013  0  0  0.093827  0.289772  0  4.068887  0
C  C50  1  0.00600881  0.23850483  0.51288182  1  0  -0.150025  0  3.704259  0  0  -0.174343  0  3.960001  0  0  -0.177224  0  3.974884  0  0  -0.092311  -0.172083  0  3.949854  0
C  C51  1  0.91187867  0.20343303  0.40649467  1  0  -0.0658  0  3.770065  0  0  -0.08668  0  4.018621  0  0  -0.086127  0  4.038267  0  0  -0.085848  -0.086769  0  4.005284  0
C  C52  1  0.01453270  0.14621076  0.81672755  1  0  0.249533  0  3.765242  0  0  0.235807  0  4.023337  0  0  0.245955  0  4.040082  0  0  0.082582  0.229336  0  4.011161  0
C  C53  1  0.94409934  0.20298644  0.91960710  1  0  -0.185503  0  3.75876  0  0  -0.207973  0  4.013928  0  0  -0.213896  0  4.03455  0  0  -0.107061  -0.20298  0  3.996812  0
C  C54  1  0.92719499  0.14389446  0.02589396  1  0  -0.041492  0  3.777466  0  0  -0.054037  0  4.025707  0  0  -0.053452  0  4.047722  0  0  -0.091233  -0.054502  0  4.009749  0
C  C55  1  0.98350518  0.02889751  0.02949464  1  0  -0.077487  0  3.764309  0  0  -0.093261  0  4.017785  0  0  -0.097581  0  4.039411  0  0  -0.09651  -0.089963  0  4.003006  0
C  C56  1  0.05174084  0.97220521  0.92545676  1  0  -0.049376  0  3.737631  0  0  -0.07598  0  3.992449  0  0  -0.074678  0  4.013163  0  0  -0.087724  -0.077203  0  3.978423  0
C  C57  1  0.06655104  0.02687695  0.81589962  1  0  -0.162514  0  3.731253  0  0  -0.144347  0  3.965945  0  0  -0.154563  0  3.989125  0  0  -0.023888  -0.137867  0  3.949843  0
C  C58  1  0.13696858  0.95710353  0.70551369  1  0  0.64354  0  3.942671  0  0  0.595673  0  4.236242  0  0  0.628999  0  4.230927  0  0  0.193291  0.57327  0  4.238937  0
C  C59  1  0.48433555  0.09491019  0.85681465  1  0  0.144224  0  3.668078  0  0  0.109813  0  3.92261  0  0  0.117681  0  3.940263  0  0  0.052357  0.105574  0  3.90745  0
C  C60  1  0.45680147  0.19089594  0.79085721  1  0  -0.128073  0  3.649447  0  0  -0.151291  0  3.90503  0  0  -0.158413  0  3.924364  0  0  -0.069828  -0.146602  0  3.891745  0
C  C61  1  0.40979632  0.30593789  0.85286864  1  0  0.111644  0  3.711452  0  0  0.117839  0  3.952703  0  0  0.123293  0  3.970907  0  0  0.023374  0.114137  0  3.940192  0
C  C62  1  0.39207122  0.31740093  0.98138289  1  0  -0.128414  0  3.654075  0  0  -0.151459  0  3.907634  0  0  -0.158281  0  3.927405  0  0  -0.066498  -0.14682  0  3.893659  0
C  C63  1  0.42045395  0.21694459  0.04118050  1  0  0.139087  0  3.693492  0  0  0.106287  0  3.946075  0  0  0.113528  0  3.964187  0  0  0.056077  0.101748  0  3.933559  0
C  C64  1  0.27665163  0.60536298  0.77616835  1  0  0.14072  0  3.680333  0  0  0.108564  0  3.933225  0  0  0.115931  0  3.951337  0  0  0.050745  0.104388  0  3.918081  0
C  C65  1  0.29881722  0.50556845  0.83989480  1  0  -0.133207  0  3.667069  0  0  -0.157413  0  3.923282  0  0  -0.164343  0  3.943131  0  0  -0.074741  -0.152406  0  3.909248  0
C  C66  1  0.38155903  0.41155230  0.78626572  1  0  0.110974  0  3.718178  0  0  0.117665  0  3.958558  0  0  0.123307  0  3.976654  0  0  0.021595  0.114072  0  3.945624  0
C  C67  1  0.43696594  0.42341227  0.66727188  1  0  -0.142898  0  3.683306  0  0  -0.163032  0  3.930946  0  0  -0.170755  0  3.95232  0  0  -0.071995  -0.157483  0  3.914945  0
C  C68  1  0.40920721  0.52537214  0.60886438  1  0  0.138997  0  3.718984  0  0  0.107195  0  3.97317  0  0  0.114404  0  3.991629  0  0  0.05229  0.102092  0  3.961108  0
N  N69  1  0.46689100  0.10730529  0.98012339  1  0  -0.348482  0  3.320875  0  0  -0.259301  0  3.605533  0  0  -0.280511  0  3.62005  0  0  -0.334094  -0.244551  0  3.593227  0
N  N70  1  0.33024477  0.61547632  0.66191112  1  0  -0.336406  0  3.281012  0  0  -0.253444  0  3.560787  0  0  -0.273251  0  3.574736  0  0  -0.323581  -0.240071  0  3.550384  0
O  O71  1  0.27439824  0.84658640  0.08654609  1  0  -0.630798  0  2.027349  0  0  -0.55561  0  2.289876  0  0  -0.583913  0  2.274132  0  0  -0.317238  -0.535724  0  2.300394  0
O  O72  1  0.36776296  0.69701365  0.17323253  1  0  -0.639669  0  2.104275  0  0  -0.571886  0  2.363551  0  0  -0.599158  0  2.35144  0  0  -0.301696  -0.55271  0  2.370788  0
O  O73  1  0.16107137  0.70570385  0.42633019  1  0  -0.644495  0  2.039833  0  0  -0.573401  0  2.319635  0  0  -0.602475  0  2.301146  0  0  -0.323815  -0.552637  0  2.332202  0
O  O74  1  0.23911810  0.50994585  0.35876736  1  0  -0.634337  0  1.934782  0  0  -0.585923  0  2.156979  0  0  -0.60948  0  2.146057  0  0  -0.32184  -0.569217  0  2.164113  0
O  O75  1  0.75093779  0.48167269  0.92947621  1  0  -0.305464  0  2.393719  0  0  -0.234574  0  2.619695  0  0  -0.25303  0  2.624126  0  0  -0.152629  -0.222103  0  2.616629  0
O  O76  1  0.68121930  0.71406159  0.05822424  1  0  -0.645021  0  2.106656  0  0  -0.5769  0  2.375938  0  0  -0.605632  0  2.363798  0  0  -0.303656  -0.557088  0  2.383537  0
O  O77  1  0.58276710  0.83261721  0.93725355  1  0  -0.651413  0  2.072794  0  0  -0.57673  0  2.351683  0  0  -0.605812  0  2.336696  0  0  -0.321583  -0.556361  0  2.361231  0
O  O78  1  0.62159440  0.96643633  0.21020811  1  0  -0.719028  0  2.21848  0  0  -0.630245  0  2.518924  0  0  -0.661932  0  2.497684  0  0  -0.326768  -0.607965  0  2.532853  0
O  O79  1  0.63254411  0.19347627  0.26279106  1  0  -0.588849  0  1.885661  0  0  -0.549161  0  2.103555  0  0  -0.571068  0  2.094409  0  0  -0.30915  -0.533699  0  2.1093  0
O  O80  1  0.53394461  0.81258984  0.40586101  1  0  -0.653091  0  2.110833  0  0  -0.588462  0  2.379147  0  0  -0.617158  0  2.366077  0  0  -0.31197  -0.56835  0  2.387628  0
O  O81  1  0.49071727  0.92349373  0.59114680  1  0  -0.619939  0  2.048626  0  0  -0.544587  0  2.312477  0  0  -0.57341  0  2.297963  0  0  -0.302798  -0.524674  0  2.322139  0
O  O82  1  0.04323774  0.22129139  0.72027379  1  0  -0.303699  0  2.403026  0  0  -0.233031  0  2.630331  0  0  -0.251349  0  2.634118  0  0  -0.149961  -0.22036  0  2.627533  0
O  O83  1  0.14667869  0.99753748  0.60434969  1  0  -0.599491  0  1.892936  0  0  -0.557823  0  2.105365  0  0  -0.579342  0  2.098243  0  0  -0.328972  -0.543136  0  2.109845  0
O  O84  1  0.18507963  0.85224632  0.72591098  1  0  -0.679945  0  2.065474  0  0  -0.603806  0  2.340727  0  0  -0.635049  0  2.328304  0  0  -0.342513  -0.582495  0  2.348237  0
O  O85  1  0.83562660  0.78218769  0.31312238  1  0  -0.823246  0  1.885323  0  0  -0.773289  0  2.094618  0  0  -0.790532  0  2.067626  0  0  -0.556129  -0.761183  0  2.114363  0
O  O86  1  0.52488883  0.54176735  0.25917599  1  0  -0.807151  0  1.8811  0  0  -0.753384  0  2.078659  0  0  -0.773761  0  2.051267  0  0  -0.555963  -0.739122  0  2.097411  0
