# generated using pymatgen
data_CoH11C17(NO)4
_symmetry_space_group_name_H-M   'P 1'
_cell_length_a   9.64511369
_cell_length_b   9.25755051
_cell_length_c   10.51573807
_cell_angle_alpha   65.30266624
_cell_angle_beta   70.06142803
_cell_angle_gamma   88.84153595
_symmetry_Int_Tables_number   1
_chemical_formula_structural   CoH11C17(NO)4
_chemical_formula_sum   'Co2 H22 C34 N8 O8'
_cell_volume   793.66991896
_cell_formula_units_Z   2
loop_
 _symmetry_equiv_pos_site_id
 _symmetry_equiv_pos_as_xyz
  1  'x, y, z'
loop_
 _atom_site_type_symbol
 _atom_site_label
 _atom_site_symmetry_multiplicity
 _atom_site_fract_x
 _atom_site_fract_y
 _atom_site_fract_z
 _atom_site_occupancy
 _atom_site_hle17_ddec_charge
 _atom_site_hle17_ddec_spin_density
 _atom_site_hle17_ddec_sum_bond_order
 _atom_site_hle17_magmom
 _atom_site_hse06_10hf_ddec_charge
 _atom_site_hse06_10hf_ddec_spin_density
 _atom_site_hse06_10hf_ddec_sum_bond_order
 _atom_site_hse06_10hf_magmom
 _atom_site_hse06_ddec_charge
 _atom_site_hse06_ddec_spin_density
 _atom_site_hse06_ddec_sum_bond_order
 _atom_site_hse06_magmom
 _atom_site_pbe_cm5_charge
 _atom_site_pbe_ddec_charge
 _atom_site_pbe_ddec_spin_density
 _atom_site_pbe_ddec_sum_bond_order
 _atom_site_pbe_magmom
Co  Co0  1  0.60126282  0.99552437  0.22845396  1  0.960794  2.815136  2.041631  2.525  0.89944  2.818339  2.497567  2.576  0.990528  2.865721  2.409873  2.668  0.686979  0.828273  2.773022  2.563485  2.491
Co  Co1  1  0.39871726  0.00447953  0.77154355  1  0.960842  2.815124  2.041603  2.525  0.89949  2.818328  2.497557  2.576  0.990564  2.865708  2.409854  2.668  0.687035  0.828321  2.773003  2.563473  2.491
H  H2  1  0.83394521  0.87194329  0.00395782  1  0.107852  -9.7e-05  0.957527  0.001  0.112721  2.9e-05  1.029545  0.0  0.11599  0.0  1.024769  0.0  0.136903  0.110115  7.1e-05  1.033501  0.0
H  H3  1  0.16607602  0.12806278  0.99603615  1  0.107772  -9.7e-05  0.957528  0.001  0.112655  2.8e-05  1.029529  0.0  0.115903  0.0  1.024816  0.0  0.136879  0.110054  7.1e-05  1.033479  0.0
H  H4  1  0.86872302  0.35870726  0.27886568  1  0.120914  -4.4e-05  0.965308  0.0  0.12673  -2.4e-05  1.032334  0.0  0.130684  -2.4e-05  1.030257  0.0  0.108615  0.12387  -6e-06  1.034225  0.0
H  H5  1  0.13130092  0.64127994  0.72115515  1  0.120762  -4.5e-05  0.965022  0.0  0.126545  -2.3e-05  1.032181  0.0  0.130502  -2.3e-05  1.030095  0.0  0.108603  0.123681  -6e-06  1.034075  0.0
H  H6  1  0.88133573  0.15006691  0.90007898  1  0.11025  2.9e-05  0.956325  0.001  0.115758  8.5e-05  1.027356  0.0  0.119106  4.4e-05  1.02247  0.0  0.138418  0.113109  0.000129  1.031258  0.001
H  H7  1  0.11865300  0.84992353  0.09992985  1  0.110299  2.9e-05  0.956077  0.001  0.115658  8.5e-05  1.027317  0.0  0.119006  4.3e-05  1.022431  0.0  0.138389  0.113013  0.000129  1.03122  0.001
H  H8  1  0.62129803  0.40317924  0.33332093  1  0.145528  0.000183  0.963676  0.0  0.155053  0.000226  1.020597  0.0  0.159241  0.000141  1.017289  0.0  0.131358  0.15193  0.000289  1.023171  0.0
H  H9  1  0.37872204  0.59682510  0.66668460  1  0.145579  0.000183  0.963577  0.0  0.155113  0.000226  1.020464  0.0  0.159301  0.000141  1.017159  0.0  0.131377  0.151992  0.000289  1.02303  0.0
H  H10  1  0.63651967  0.54014678  0.78257137  1  0.116831  0.000216  0.957249  0.0  0.127695  0.000192  1.015799  0.0  0.1309  0.000131  1.013563  0.0  0.127902  0.125179  0.000288  1.017868  0.0
H  H11  1  0.36347793  0.45984624  0.21741358  1  0.116857  0.000215  0.957314  0.0  0.127787  0.000192  1.015775  0.0  0.130971  0.000131  1.013566  0.0  0.127953  0.125271  0.000288  1.017841  0.0
H  H12  1  0.90901576  0.73957864  0.84734622  1  0.103328  -5.2e-05  0.969935  0.0  0.113434  -6e-05  1.032758  0.0  0.115765  -3.9e-05  1.032377  0.0  0.106568  0.111782  -8e-06  1.032942  0.0
H  H13  1  0.09100274  0.26040949  0.15267501  1  0.103443  -5.2e-05  0.970142  0.0  0.113495  -6e-05  1.033003  0.0  0.115835  -3.9e-05  1.032606  0.0  0.106589  0.11185  -7e-06  1.033173  0.0
H  H14  1  0.45674101  0.63260567  0.40137558  1  0.113594  0.000119  0.98674  0.001  0.118936  0.000242  1.053833  0.001  0.121795  0.000159  1.052733  0.001  0.117305  0.116889  0.000318  1.054672  0.001
H  H15  1  0.54327458  0.36741057  0.59861032  1  0.11365  0.000119  0.986577  0.001  0.118998  0.000242  1.053682  0.001  0.12181  0.000159  1.052631  0.001  0.117274  0.116963  0.000318  1.054501  0.001
H  H16  1  0.48226313  0.31374319  0.07750802  1  0.111725  -5.8e-05  0.957349  0.001  0.120626  1.9e-05  1.018035  0.001  0.123736  -3.7e-05  1.016162  0.0  0.120516  0.11828  9.9e-05  1.019394  0.001
H  H17  1  0.51773494  0.68626388  0.92248436  1  0.111648  -5.8e-05  0.957295  0.001  0.120529  1.9e-05  1.018005  0.001  0.123642  -3.6e-05  1.016135  0.0  0.120485  0.118181  9.9e-05  1.019366  0.001
H  H18  1  0.74557682  0.57722597  0.55095883  1  0.109255  -7.7e-05  0.944588  0.0  0.12348  -8.7e-05  0.998393  0.0  0.12609  -7.8e-05  0.997617  0.0  0.113689  0.121509  -7.6e-05  0.999179  0.0
H  H19  1  0.25442051  0.42276309  0.44904020  1  0.109234  -7.7e-05  0.944651  0.0  0.123526  -8.7e-05  0.998382  0.0  0.12614  -7.7e-05  0.9976  0.0  0.113692  0.121553  -7.6e-05  0.999172  0.0
H  H20  1  0.07324031  0.30798753  0.70748259  1  0.113085  -5.6e-05  0.959482  0.0  0.122883  -8.1e-05  1.020165  0.0  0.125225  -7.5e-05  1.020049  0.0  0.111419  0.121029  -6.3e-05  1.02091  0.0
H  H21  1  0.92675828  0.69200214  0.29252437  1  0.113061  -5.6e-05  0.95958  0.0  0.12289  -8.1e-05  1.020202  0.0  0.125237  -7.5e-05  1.020074  0.0  0.111419  0.121029  -6.3e-05  1.020973  0.0
H  H22  1  0.87183830  0.05102491  0.72120877  1  0.092547  -0.000214  0.966848  0.0  0.098603  -0.00014  1.038318  0.0  0.101912  -0.000125  1.036039  0.0  0.09977  0.096075  -7.6e-05  1.040239  0.0
H  H23  1  0.12813091  0.94895930  0.27879741  1  0.092577  -0.000216  0.966924  0.0  0.098652  -0.00014  1.038368  0.0  0.101965  -0.000125  1.036087  0.0  0.099802  0.096129  -7.6e-05  1.040284  0.0
C  C24  1  0.69344881  0.06634917  0.57631043  1  0.673951  -0.00502  3.902369  -0.006  0.627376  0.002445  4.207332  0.001  0.665063  0.00119  4.198938  0.0  0.211021  0.601001  0.00346  4.211028  0.001
C  C25  1  0.30652783  0.93365417  0.42368175  1  0.673798  -0.005014  3.902606  -0.006  0.627382  0.002445  4.207278  0.001  0.66507  0.001189  4.198883  0.0  0.211026  0.601009  0.00346  4.210984  0.001
C  C26  1  0.84972135  0.02651038  0.53385974  1  -0.037168  0.003901  3.695061  0.005  -0.023884  0.002495  3.927756  0.003  -0.02501  0.001345  3.94308  0.002  -0.005615  -0.023956  0.003752  3.918218  0.005
C  C27  1  0.15025832  0.97348980  0.46613752  1  -0.037168  0.003874  3.695247  0.005  -0.02393  0.002495  3.927917  0.003  -0.025047  0.001345  3.943217  0.002  -0.005602  -0.024006  0.003751  3.91838  0.005
C  C28  1  0.92371289  0.99731208  0.40793896  1  -0.06768  0.003867  3.737764  0.006  -0.054462  0.002858  3.971179  0.004  -0.059539  0.001821  3.990451  0.003  -0.014616  -0.051688  0.004021  3.959369  0.005
C  C29  1  0.07626497  0.00269174  0.59205929  1  -0.067635  0.003889  3.737636  0.006  -0.054387  0.002856  3.971081  0.004  -0.059453  0.00182  3.990325  0.003  -0.01466  -0.051612  0.00402  3.959275  0.005
C  C30  1  0.84926934  0.99107586  0.30608292  1  0.626738  -0.006563  3.930132  -0.006  0.583316  0.001681  4.230465  0.001  0.619484  0.001152  4.226021  0.001  0.200369  0.55762  0.002325  4.232654  0.001
C  C31  1  0.15070341  0.00894312  0.69390791  1  0.62665  -0.006568  3.930071  -0.006  0.583102  0.001683  4.230586  0.001  0.619265  0.00115  4.226153  0.001  0.200237  0.557403  0.002327  4.232771  0.001
C  C32  1  0.89747227  0.43592734  0.64723769  1  0.175079  0.000404  3.777749  0.001  0.165762  0.000447  4.024742  0.001  0.17041  0.000342  4.047393  0.0  0.098063  0.162567  0.000376  4.010077  0.0
C  C33  1  0.10252657  0.56406623  0.35275425  1  0.175235  0.000415  3.777652  0.001  0.165873  0.000445  4.024647  0.001  0.170522  0.000341  4.047298  0.0  0.098166  0.162675  0.000375  4.00999  0.0
C  C34  1  0.74729048  0.77885227  0.09905221  1  0.17164  -0.007954  3.616618  -0.004  0.114818  0.002695  3.886557  0.004  0.131007  0.002476  3.898211  0.003  0.14613  0.103221  0.00271  3.878803  0.004
C  C35  1  0.25272752  0.22115401  0.90094747  1  0.17175  -0.007947  3.616335  -0.004  0.11492  0.002698  3.886302  0.004  0.131102  0.002477  3.897943  0.003  0.146125  0.103311  0.002712  3.878567  0.004
C  C36  1  0.92635393  0.41995776  0.15703974  1  -0.124058  1.5e-05  3.711482  0.0  -0.145036  0.000144  3.965214  0.0  -0.147854  9e-05  3.984731  0.0  -0.086578  -0.143464  0.000176  3.952638  0.0
C  C37  1  0.07367254  0.58003073  0.84299785  1  -0.123722  1.7e-05  3.712248  0.0  -0.144837  0.000144  3.965771  0.0  -0.14765  8.8e-05  3.985295  0.0  -0.086629  -0.143261  0.000176  3.953186  0.0
C  C38  1  0.79287882  0.22385787  0.91025933  1  0.174779  -0.013271  3.596058  -0.008  0.118048  0.001033  3.862518  0.002  0.133968  0.001113  3.874702  0.002  0.150438  0.106783  0.000397  3.854612  0.002
C  C39  1  0.20711734  0.77613014  0.08974336  1  0.174685  -0.013265  3.595997  -0.008  0.118009  0.001034  3.862501  0.002  0.133928  0.001116  3.874684  0.002  0.150452  0.106742  0.000397  3.854591  0.002
C  C40  1  0.63641002  0.53332908  0.27495770  1  -0.066455  0.004638  3.639753  0.006  -0.105854  0.00198  3.893525  0.003  -0.104371  0.001307  3.909945  0.002  0.001835  -0.106807  0.002848  3.882878  0.004
C  C41  1  0.36361340  0.46667551  0.72504856  1  -0.066459  0.00464  3.639714  0.006  -0.105846  0.001981  3.893489  0.003  -0.10437  0.001308  3.909903  0.002  0.001871  -0.106801  0.002849  3.882848  0.004
C  C42  1  0.66269323  0.42653239  0.85103364  1  -0.059302  0.003146  3.679099  0.004  -0.099936  0.000636  3.937829  0.001  -0.098425  1.7e-05  3.955816  0.0  0.003822  -0.101342  0.00115  3.926499  0.002
C  C43  1  0.33730255  0.57346353  0.14895928  1  -0.05944  0.003142  3.679212  0.004  -0.100189  0.000635  3.93793  0.001  -0.098662  1.6e-05  3.955931  0.0  0.00385  -0.101596  0.001149  3.926598  0.002
C  C44  1  0.94966274  0.63517966  0.91393442  1  -0.125805  -0.000149  3.744586  0.0  -0.147421  4.5e-05  3.997544  0.0  -0.150265  1.2e-05  4.018775  0.0  -0.088096  -0.144845  -3.8e-05  3.982273  0.0
C  C45  1  0.05037756  0.36480498  0.08608890  1  -0.125856  -0.000147  3.74449  0.0  -0.14757  4.4e-05  3.99733  0.0  -0.150408  1.1e-05  4.018538  0.0  -0.088132  -0.144996  -3.8e-05  3.98207  0.0
C  C46  1  0.55744645  0.64596563  0.30808222  1  -0.005842  -0.004107  3.742278  -0.002  -0.036611  0.001112  4.013946  0.002  -0.034188  0.000594  4.034572  0.001  -0.004728  -0.038835  0.001631  4.00045  0.003
C  C47  1  0.44257069  0.35404375  0.69190980  1  -0.00586  -0.004107  3.742179  -0.002  -0.036654  0.001112  4.013792  0.002  -0.034186  0.000593  4.03444  0.001  -0.004688  -0.038886  0.001631  4.000285  0.003
C  C48  1  0.58866707  0.31568173  0.99635308  1  0.01304  -0.003214  3.725954  -0.002  -0.019098  0.0015  3.993577  0.002  -0.016463  0.001079  4.014142  0.002  0.002007  -0.020614  0.001836  3.979269  0.003
C  C49  1  0.41132941  0.68432050  0.00364179  1  0.01322  -0.003206  3.725704  -0.002  -0.018874  0.0015  3.993339  0.002  -0.016243  0.001079  4.013897  0.002  0.002023  -0.020388  0.001836  3.979034  0.003
C  C50  1  0.87725184  0.55591561  0.07001117  1  0.166728  0.000261  3.784941  0.001  0.157967  0.000238  4.033734  0.0  0.162172  0.00019  4.057023  0.0  0.092288  0.155386  0.000321  4.017536  0.0
C  C51  1  0.12277539  0.44409246  0.93000673  1  0.166394  0.000261  3.785764  0.001  0.158097  0.000238  4.033885  0.0  0.162302  0.000189  4.057167  0.0  0.092392  0.155517  0.000322  4.017688  0.0
C  C52  1  0.85724480  0.54400118  0.52975605  1  -0.117383  0.000337  3.723606  0.0  -0.137944  0.000352  3.973129  0.0  -0.140184  0.000234  3.992812  0.0  -0.080925  -0.136749  0.000355  3.960193  0.0
C  C53  1  0.14276014  0.45598689  0.47024000  1  -0.117473  0.000326  3.723152  0.0  -0.138109  0.000353  3.972699  0.0  -0.140351  0.000235  3.992378  0.0  -0.080943  -0.136913  0.000355  3.959772  0.001
C  C54  1  0.04056052  0.39221575  0.61716900  1  -0.12352  -0.000323  3.733364  0.0  -0.144771  5.6e-05  3.988836  0.0  -0.14803  6.6e-05  4.010429  0.0  -0.082604  -0.14295  6.7e-05  3.975941  0.0
C  C55  1  0.95943468  0.60777354  0.38283538  1  -0.123634  -0.000345  3.733913  0.0  -0.144885  5.7e-05  3.989329  0.0  -0.148144  6.8e-05  4.010924  0.0  -0.082612  -0.143069  6.7e-05  3.976425  0.0
C  C56  1  0.92737746  0.02800248  0.62364004  1  -0.100146  0.000771  3.739256  0.001  -0.132454  0.000954  3.99163  0.001  -0.133466  0.00058  4.010906  0.001  -0.087308  -0.130956  0.00183  3.978971  0.002
C  C57  1  0.07259602  0.97199132  0.37635896  1  -0.100184  0.000803  3.739648  0.001  -0.132518  0.000953  3.992066  0.001  -0.133534  0.000579  4.011346  0.001  -0.087343  -0.13102  0.00183  3.979407  0.002
N  N58  1  0.67089028  0.19006369  0.03185779  1  -0.367583  0.038816  3.33929  0.062  -0.320046  0.028748  3.65695  0.036  -0.34887  0.022783  3.66829  0.028  -0.359183  -0.29894  0.034113  3.649151  0.043
N  N59  1  0.32910182  0.80993857  0.96814133  1  -0.367606  0.038806  3.339282  0.062  -0.320083  0.028743  3.656935  0.036  -0.348895  0.022778  3.668265  0.028  -0.359229  -0.298978  0.034107  3.64914  0.043
N  N60  1  0.62799596  0.79822891  0.19838581  1  -0.385866  0.039236  3.366166  0.059  -0.340383  0.029574  3.690151  0.034  -0.37027  0.023177  3.702542  0.026  -0.369492  -0.318072  0.035598  3.68143  0.042
N  N61  1  0.37202407  0.20177743  0.80159511  1  -0.386003  0.03924  3.366062  0.059  -0.340483  0.029578  3.690055  0.034  -0.370358  0.023181  3.702409  0.026  -0.369534  -0.318166  0.035603  3.681341  0.042
N  N62  1  0.79159498  0.36705011  0.79667764  1  -0.080454  0.00209  3.592518  0.004  0.009818  0.002369  3.800857  0.004  -0.004422  0.001889  3.825544  0.003  -0.219703  0.018745  0.002734  3.785253  0.005
N  N63  1  0.20839952  0.63293288  0.20332478  1  -0.080383  0.002089  3.592572  0.004  0.010027  0.002369  3.800764  0.004  -0.004211  0.001888  3.825449  0.003  -0.219761  0.018955  0.002733  3.785161  0.005
N  N64  1  0.75618899  0.61910211  0.14198084  1  -0.085772  0.001358  3.604867  0.003  0.004727  0.001762  3.814063  0.003  -0.009501  0.001317  3.838984  0.002  -0.224497  0.014338  0.002163  3.797277  0.003
N  N65  1  0.24384088  0.38090051  0.85802703  1  -0.085704  0.001356  3.604604  0.003  0.004629  0.001762  3.813734  0.003  -0.009594  0.001317  3.838648  0.002  -0.224587  0.01424  0.002163  3.796959  0.003
O  O66  1  0.92462140  0.99309591  0.18119491  1  -0.629388  0.003435  1.912231  0.006  -0.591368  0.005876  2.14937  0.01  -0.617945  0.004223  2.142649  0.007  -0.325103  -0.57199  0.007532  2.153357  0.012
O  O67  1  0.07535165  0.00694723  0.81878975  1  -0.62942  0.003437  1.912274  0.006  -0.591355  0.005876  2.149481  0.01  -0.617918  0.004225  2.142742  0.007  -0.325056  -0.571977  0.007532  2.153468  0.012
O  O68  1  0.59804269  0.95405431  0.69784366  1  -0.629234  0.059081  2.038763  0.099  -0.593476  0.042687  2.317776  0.065  -0.638571  0.030969  2.303902  0.047  -0.333066  -0.556847  0.054271  2.324498  0.082
O  O69  1  0.40193163  0.04594856  0.30214374  1  -0.629199  0.059081  2.038749  0.099  -0.593493  0.04269  2.317694  0.065  -0.638585  0.030971  2.303803  0.047  -0.333107  -0.556867  0.054272  2.324419  0.082
O  O70  1  0.70567335  0.98279302  0.35835447  1  -0.595512  0.05864  2.091808  0.098  -0.555313  0.042791  2.370591  0.064  -0.599101  0.031588  2.357895  0.047  -0.315799  -0.521336  0.053847  2.378608  0.081
O  O71  1  0.29430999  0.01722081  0.64164176  1  -0.595533  0.058655  2.09153  0.098  -0.555266  0.042799  2.370305  0.064  -0.599084  0.031594  2.357674  0.047  -0.31578  -0.521289  0.053857  2.378328  0.081
O  O72  1  0.66750072  0.20370393  0.50579385  1  -0.606375  0.005509  1.931894  0.01  -0.569026  0.006782  2.159699  0.011  -0.596501  0.004633  2.151833  0.008  -0.30804  -0.548201  0.008542  2.163773  0.014
O  O73  1  0.33248372  0.79630063  0.49419153  1  -0.606289  0.005508  1.931923  0.01  -0.569004  0.006783  2.159649  0.011  -0.596469  0.004635  2.151752  0.008  -0.308036  -0.548171  0.008543  2.163724  0.014
