# generated using pymatgen
data_Zn5P4H26C20(NO6)4
_symmetry_space_group_name_H-M   'P 1'
_cell_length_a   5.23967077
_cell_length_b   11.41236372
_cell_length_c   13.94399802
_cell_angle_alpha   91.63215454
_cell_angle_beta   100.73987385
_cell_angle_gamma   95.99923850
_symmetry_Int_Tables_number   1
_chemical_formula_structural   Zn5P4H26C20(NO6)4
_chemical_formula_sum   'Zn5 P4 H26 C20 N4 O24'
_cell_volume   813.73557153
_cell_formula_units_Z   1
loop_
 _symmetry_equiv_pos_site_id
 _symmetry_equiv_pos_as_xyz
  1  'x, y, z'
loop_
 _atom_site_type_symbol
 _atom_site_label
 _atom_site_symmetry_multiplicity
 _atom_site_fract_x
 _atom_site_fract_y
 _atom_site_fract_z
 _atom_site_occupancy
 _atom_site_pbe_bader_spin_density
 _atom_site_pbe_cm5_charge
 _atom_site_pbe_ddec_charge
 _atom_site_pbe_ddec_spin_density
 _atom_site_pbe_ddec_sum_bond_order
 _atom_site_pbe_magmom
Zn  Zn0  1  0.55608825  0.34869630  0.30677878  1  0  0.701033  0.927265  0  2.272416  0
Zn  Zn1  1  0.44391089  0.65130327  0.69322615  1  0  0.701058  0.927354  0  2.272245  0
Zn  Zn2  1  0.71488053  0.05307757  0.37808957  1  0  0.715127  1.053102  0  2.292918  0
Zn  Zn3  1  0.28512151  0.94692557  0.62191282  1  0  0.715133  1.053088  0  2.292914  0
Zn  Zn4  1  0.00000048  0.00000175  0.00000081  1  0  0.704673  1.080849  0  2.19563  0
P  P5  1  0.30967058  0.15945484  0.46899404  1  0  0.331578  1.247571  0  5.420532  0
P  P6  1  0.69033170  0.84054919  0.53100768  1  0  0.331493  1.24731  0  5.421097  0
P  P7  1  0.56127408  0.01119637  0.14474657  1  0  0.336439  1.260505  0  5.377324  0
P  P8  1  0.43872771  0.98880590  0.85525505  1  0  0.336441  1.260395  0  5.377437  0
H  H9  1  0.83795752  0.26507691  0.51199564  1  0  0.300651  0.341419  0  0.973934  0
H  H10  1  0.16204959  0.73493059  0.48800941  1  0  0.300667  0.341446  0  0.973966  0
H  H11  1  0.92149633  0.24397764  0.21076737  1  0  0.30243  0.360186  0  0.959559  0
H  H12  1  0.07850547  0.75602460  0.78923569  1  0  0.302439  0.360185  0  0.95956  0
H  H13  1  0.25604306  0.91434192  0.29477075  1  0  0.313183  0.324381  0  0.932699  0
H  H14  1  0.74396724  0.08565609  0.70521913  1  0  0.313153  0.324415  0  0.932632  0
H  H15  1  0.00835278  0.83968354  0.34093259  1  0  0.311772  0.301709  0  0.941854  0
H  H16  1  0.99167110  0.16031427  0.65906612  1  0  0.311779  0.301695  0  0.941802  0
H  H17  1  0.95545666  0.91207503  0.23044332  1  0  0.30773  0.312002  0  0.958582  0
H  H18  1  0.04454346  0.08792109  0.76955583  1  0  0.307709  0.311941  0  0.958687  0
H  H19  1  0.37669469  0.34970544  0.55755697  1  0  0.127021  0.136335  0  0.947888  0
H  H20  1  0.62331195  0.65030034  0.44244440  1  0  0.12705  0.136382  0  0.947874  0
H  H21  1  0.63203074  0.19704911  0.06918968  1  0  0.122823  0.125722  0  1.006154  0
H  H22  1  0.36797130  0.80295401  0.93081342  1  0  0.122828  0.1257  0  1.006175  0
H  H23  1  0.24418005  0.45626137  0.12797990  1  0  0.116421  0.089133  0  1.003851  0
H  H24  1  0.75582153  0.54373289  0.87202502  1  0  0.116421  0.089129  0  1.00384  0
H  H25  1  0.29039631  0.63645742  0.03037941  1  0  0.111338  0.120832  0  0.985362  0
H  H26  1  0.70959341  0.36352908  0.96961654  1  0  0.111331  0.120854  0  0.985365  0
H  H27  1  0.70026610  0.77769437  0.07500355  1  0  0.113138  0.125066  0  1.04447  0
H  H28  1  0.29972288  0.22229661  0.92498891  1  0  0.113111  0.125005  0  1.044481  0
H  H29  1  0.97383853  0.54670262  0.30192211  1  0  0.116236  0.095028  0  1.056051  0
H  H30  1  0.02615986  0.45330142  0.69808006  1  0  0.116217  0.094996  0  1.056042  0
H  H31  1  0.26561181  0.70935510  0.27046178  1  0  0.115183  0.097776  0  0.964528  0
H  H32  1  0.73439026  0.29064121  0.72952603  1  0  0.115151  0.097727  0  0.964511  0
H  H33  1  0.19732899  0.78550611  0.15990548  1  0  0.118381  0.110622  0  1.003988  0
H  H34  1  0.80265585  0.21449112  0.84008404  1  0  0.11837  0.110638  0  1.003998  0
C  C35  1  0.20788022  0.30118545  0.50798836  1  0  -0.012149  -0.204469  0  3.909798  0
C  C36  1  0.79212423  0.69881946  0.49201354  1  0  -0.01217  -0.204409  0  3.90973  0
C  C37  1  0.12435777  0.37914489  0.42287711  1  0  0.225788  0.635107  0  4.135287  0
C  C38  1  0.87564038  0.62085827  0.57712501  1  0  0.225814  0.635129  0  4.135019  0
C  C39  1  0.56172902  0.17454807  0.13668031  1  0  -0.017357  -0.210117  0  3.893606  0
C  C40  1  0.43827254  0.82545329  0.86332270  1  0  -0.017295  -0.209969  0  3.893452  0
C  C41  1  0.28786827  0.20910373  0.13155426  1  0  0.215172  0.599937  0  4.157219  0
C  C42  1  0.71213522  0.79089762  0.86844889  1  0  0.215141  0.599878  0  4.157313  0
C  C43  1  0.41960722  0.51933095  0.14349509  1  0  0.043166  0.080061  0  3.961504  0
C  C44  1  0.58039048  0.48066338  0.85650670  1  0  0.043212  0.080188  0  3.96136  0
C  C45  1  0.44730889  0.61907718  0.08972072  1  0  -0.084186  -0.131927  0  4.004379  0
C  C46  1  0.55268421  0.38091459  0.91027635  1  0  -0.084247  -0.132052  0  4.004242  0
C  C47  1  0.67392128  0.69784847  0.11462898  1  0  -0.06172  -0.067954  0  3.886139  0
C  C48  1  0.32607012  0.30214422  0.88536586  1  0  -0.061557  -0.067749  0  3.885856  0
C  C49  1  0.86913671  0.67320241  0.19206886  1  0  -0.00404  0.046157  0  3.93807  0
C  C50  1  0.13085395  0.32679468  0.80792751  1  0  -0.004049  0.04606  0  3.938076  0
C  C51  1  0.82736639  0.57040492  0.24142996  1  0  0.048664  0.043455  0  3.907724  0
C  C52  1  0.17263081  0.42959473  0.75857054  1  0  0.048679  0.043577  0  3.907712  0
C  C53  1  0.11832866  0.75404756  0.22318958  1  0  -0.056545  -0.037912  0  3.835036  0
C  C54  1  0.88167000  0.24595044  0.77680308  1  0  -0.05653  -0.037903  0  3.835173  0
N  N55  1  0.60694787  0.49541382  0.21835851  1  0  -0.325752  -0.246167  0  3.5563  0
N  N56  1  0.39304933  0.50458580  0.78164414  1  0  -0.325831  -0.246381  0  3.556304  0
N  N57  1  0.07734542  0.86197361  0.27815919  1  0  -0.61729  -0.436086  0  3.3869  0
N  N58  1  0.92266270  0.13802343  0.72183624  1  0  -0.617267  -0.43601  0  3.386786  0
O  O59  1  0.55090630  0.19173603  0.41981274  1  0  -0.362447  -0.766332  0  2.426903  0
O  O60  1  0.44909597  0.80826799  0.58018969  1  0  -0.362457  -0.766334  0  2.426973  0
O  O61  1  0.08690957  0.09226283  0.39474424  1  0  -0.381439  -0.74644  0  2.369408  0
O  O62  1  0.91309100  0.90774208  0.60525811  1  0  -0.38139  -0.746346  0  2.369536  0
O  O63  1  0.38889529  0.09639265  0.56328100  1  0  -0.384135  -0.761049  0  2.35861  0
O  O64  1  0.61110481  0.90361050  0.43672126  1  0  -0.384134  -0.760972  0  2.358626  0
O  O65  1  0.00332296  0.27326072  0.56098891  1  0  -0.384393  -0.449309  0  2.360959  0
O  O66  1  0.99668537  0.72674414  0.43901469  1  0  -0.384386  -0.449325  0  2.360906  0
O  O67  1  0.29208559  0.42146463  0.37461061  1  0  -0.322951  -0.560537  0  2.322087  0
O  O68  1  0.70790821  0.57853682  0.62538900  1  0  -0.32292  -0.560535  0  2.321989  0
O  O69  1  0.88628703  0.39827292  0.40715497  1  0  -0.317863  -0.544707  0  2.357483  0
O  O70  1  0.11371161  0.60173196  0.59285011  1  0  -0.31793  -0.54475  0  2.357323  0
O  O71  1  0.53006584  0.98813086  0.25107326  1  0  -0.386446  -0.757354  0  2.377933  0
O  O72  1  0.46993790  0.01187140  0.74892850  1  0  -0.386449  -0.757334  0  2.3779  0
O  O73  1  0.33392006  0.94573585  0.07239719  1  0  -0.36963  -0.743354  0  2.338478  0
O  O74  1  0.66608004  0.05426731  0.92760435  1  0  -0.369647  -0.743313  0  2.338498  0
O  O75  1  0.83093114  0.98182436  0.13006790  1  0  -0.368179  -0.748572  0  2.302571  0
O  O76  1  0.16907018  0.01817616  0.86993291  1  0  -0.368193  -0.748538  0  2.302604  0
O  O77  1  0.73513437  0.23092840  0.22133293  1  0  -0.376302  -0.475629  0  2.518509  0
O  O78  1  0.26486743  0.76907384  0.77867013  1  0  -0.376349  -0.47569  0  2.518475  0
O  O79  1  0.23878302  0.26509322  0.20638973  1  0  -0.304355  -0.533695  0  2.335088  0
O  O80  1  0.76121830  0.73490725  0.79361396  1  0  -0.304316  -0.533685  0  2.335091  0
O  O81  1  0.11746334  0.18107809  0.05578510  1  0  -0.308403  -0.552206  0  2.311524  0
O  O82  1  0.88254063  0.81892505  0.94421671  1  0  -0.308447  -0.552203  0  2.311553  0
