# generated using pymatgen
data_CdH8C10(SN)2
_symmetry_space_group_name_H-M   'P 1'
_cell_length_a   7.24576555
_cell_length_b   9.39378314
_cell_length_c   18.09847949
_cell_angle_alpha   79.20622627
_cell_angle_beta   78.46649796
_cell_angle_gamma   67.33608662
_symmetry_Int_Tables_number   1
_chemical_formula_structural   CdH8C10(SN)2
_chemical_formula_sum   'Cd4 H32 C40 S8 N8'
_cell_volume   1105.48933635
_cell_formula_units_Z   4
loop_
 _symmetry_equiv_pos_site_id
 _symmetry_equiv_pos_as_xyz
  1  'x, y, z'
loop_
 _atom_site_type_symbol
 _atom_site_label
 _atom_site_symmetry_multiplicity
 _atom_site_fract_x
 _atom_site_fract_y
 _atom_site_fract_z
 _atom_site_occupancy
 _atom_site_hle17_bader_spin_density
 _atom_site_hle17_ddec_charge
 _atom_site_hle17_ddec_spin_density
 _atom_site_hle17_ddec_sum_bond_order
 _atom_site_hle17_magmom
 _atom_site_hse06_10hf_bader_spin_density
 _atom_site_hse06_10hf_ddec_charge
 _atom_site_hse06_10hf_ddec_spin_density
 _atom_site_hse06_10hf_ddec_sum_bond_order
 _atom_site_hse06_10hf_magmom
 _atom_site_hse06_bader_spin_density
 _atom_site_hse06_ddec_charge
 _atom_site_hse06_ddec_spin_density
 _atom_site_hse06_ddec_sum_bond_order
 _atom_site_hse06_magmom
 _atom_site_pbe_bader_spin_density
 _atom_site_pbe_cm5_charge
 _atom_site_pbe_ddec_charge
 _atom_site_pbe_ddec_spin_density
 _atom_site_pbe_ddec_sum_bond_order
 _atom_site_pbe_magmom
Cd  Cd0  1  0.74989289  0.49243649  0.53054119  1  0  0.74246  0  2.096206  0  0  0.573115  0  2.544986  0  0  0.615923  0  2.51747  0  0  0.575301  0.543537  0  2.563085  0
Cd  Cd1  1  0.77300018  0.00745878  0.96940838  1  0  0.742454  0  2.096333  0  0  0.573179  0  2.544708  0  0  0.615917  0  2.517304  0  0  0.575412  0.543582  0  2.562878  0
Cd  Cd2  1  0.25010740  0.50756643  0.46945740  1  0  0.742464  0  2.096162  0  0  0.573125  0  2.544922  0  0  0.615921  0  2.51743  0  0  0.575283  0.543552  0  2.563013  0
Cd  Cd3  1  0.22700045  0.99253832  0.03059153  1  0  0.742502  0  2.096344  0  0  0.573221  0  2.544726  0  0  0.61596  0  2.517322  0  0  0.575442  0.543623  0  2.562895  0
H  H4  1  0.15037859  0.36002577  0.70108866  1  0  0.105819  0  0.943049  0  0  0.118458  0  0.999352  0  0  0.121565  0  0.998472  0  0  0.10179  0.116186  0  1.000216  0
H  H5  1  0.21116906  0.13980653  0.79898348  1  0  0.106194  0  0.942932  0  0  0.118744  0  0.999273  0  0  0.121861  0  0.998387  0  0  0.101797  0.116509  0  1.000102  0
H  H6  1  0.84962793  0.63996903  0.29890940  1  0  0.105802  0  0.94302  0  0  0.118445  0  0.999321  0  0  0.121555  0  0.998437  0  0  0.101803  0.116172  0  1.000184  0
H  H7  1  0.78882773  0.86019521  0.20101783  1  0  0.106182  0  0.942985  0  0  0.118732  0  0.999318  0  0  0.121848  0  0.998435  0  0  0.101815  0.116496  0  1.000147  0
H  H8  1  0.09185465  0.50961351  0.80988544  1  0  0.084467  0  0.968462  0  0  0.095094  0  1.032449  0  0  0.09727  0  1.031482  0  0  0.098669  0.093425  0  1.033293  0
H  H9  1  0.41055550  0.99027252  0.69019075  1  0  0.083616  0  0.97042  0  0  0.095375  0  1.033265  0  0  0.097486  0  1.032363  0  0  0.098823  0.093717  0  1.034083  0
H  H10  1  0.90815002  0.49037895  0.19011430  1  0  0.084496  0  0.968435  0  0  0.095128  0  1.03241  0  0  0.097324  0  1.031421  0  0  0.098682  0.093459  0  1.033255  0
H  H11  1  0.58944204  0.00973038  0.30981060  1  0  0.083608  0  0.970428  0  0  0.095341  0  1.033288  0  0  0.097485  0  1.032353  0  0  0.098821  0.093677  0  1.03411  0
H  H12  1  0.30653592  0.66844342  0.80645193  1  0  0.095981  0  0.999223  0  0  0.099459  0  1.073619  0  0  0.10337  0  1.072274  0  0  0.088782  0.096592  0  1.074767  0
H  H13  1  0.78059233  0.83160425  0.69349856  1  0  0.096201  0  0.999308  0  0  0.099703  0  1.073618  0  0  0.103678  0  1.072227  0  0  0.088934  0.096843  0  1.074762  0
H  H14  1  0.69346690  0.33155137  0.19354702  1  0  0.09602  0  0.999167  0  0  0.099482  0  1.073572  0  0  0.103411  0  1.072213  0  0  0.088797  0.096617  0  1.074717  0
H  H15  1  0.21940242  0.16839750  0.30650196  1  0  0.096202  0  0.999275  0  0  0.099707  0  1.07359  0  0  0.10368  0  1.072201  0  0  0.088921  0.096847  0  1.074736  0
H  H16  1  0.57431767  0.66582882  0.69241207  1  0  0.063474  0  0.970473  0  0  0.070147  0  1.043484  0  0  0.072476  0  1.041555  0  0  0.102338  0.068469  0  1.044837  0
H  H17  1  0.93206115  0.83422780  0.80750347  1  0  0.0638  0  0.969957  0  0  0.070674  0  1.042575  0  0  0.072977  0  1.040689  0  0  0.102828  0.06902  0  1.043871  0
H  H18  1  0.42568167  0.33417062  0.30758649  1  0  0.063424  0  0.970486  0  0  0.070085  0  1.043512  0  0  0.072413  0  1.041587  0  0  0.102304  0.068409  0  1.044863  0
H  H19  1  0.06793470  0.16577279  0.19249657  1  0  0.063791  0  0.969935  0  0  0.070659  0  1.042572  0  0  0.072968  0  1.040671  0  0  0.102816  0.069005  0  1.04387  0
H  H20  1  0.34204626  0.00497977  0.45263257  1  0  0.110532  0  0.959393  0  0  0.120623  0  1.021458  0  0  0.123642  0  1.021272  0  0  0.096671  0.118428  0  1.021845  0
H  H21  1  0.79934320  0.49506078  0.04762346  1  0  0.110804  0  0.959029  0  0  0.120626  0  1.021517  0  0  0.123713  0  1.021213  0  0  0.096646  0.118426  0  1.021862  0
H  H22  1  0.65795587  0.99501966  0.54736744  1  0  0.110528  0  0.95941  0  0  0.120614  0  1.021478  0  0  0.123633  0  1.021292  0  0  0.096667  0.118419  0  1.021864  0
H  H23  1  0.20065559  0.50493749  0.95237628  1  0  0.11081  0  0.958935  0  0  0.120606  0  1.021457  0  0  0.123696  0  1.021151  0  0  0.096659  0.118408  0  1.0218  0
H  H24  1  0.34405416  0.81691040  0.56945408  1  0  0.091439  0  0.958438  0  0  0.103345  0  1.020535  0  0  0.105464  0  1.01908  0  0  0.098026  0.10172  0  1.021665  0
H  H25  1  0.72991398  0.68314494  0.93083730  1  0  0.090357  0  0.958933  0  0  0.102369  0  1.020939  0  0  0.104463  0  1.019538  0  0  0.097754  0.100809  0  1.021993  0
H  H26  1  0.65594686  0.18308901  0.43054703  1  0  0.091451  0  0.95855  0  0  0.103348  0  1.02064  0  0  0.105473  0  1.019179  0  0  0.098036  0.101721  0  1.021775  0
H  H27  1  0.27008371  0.31685448  0.06916292  1  0  0.090385  0  0.958929  0  0  0.102398  0  1.020929  0  0  0.104491  0  1.019527  0  0  0.097774  0.100837  0  1.021983  0
H  H28  1  0.09950424  0.90564563  0.68604747  1  0  0.091589  0  0.982165  0  0  0.101271  0  1.046295  0  0  0.103336  0  1.047387  0  0  0.098876  0.099783  0  1.045696  0
H  H29  1  0.69094241  0.59436915  0.81417650  1  0  0.092252  0  0.983005  0  0  0.102021  0  1.04684  0  0  0.104058  0  1.047961  0  0  0.099354  0.100545  0  1.046221  0
H  H30  1  0.90049718  0.09435843  0.31395361  1  0  0.091591  0  0.982215  0  0  0.101249  0  1.046362  0  0  0.103348  0  1.047419  0  0  0.098894  0.099762  0  1.045763  0
H  H31  1  0.30904974  0.40563142  0.18582442  1  0  0.092222  0  0.982997  0  0  0.102019  0  1.046811  0  0  0.104077  0  1.047909  0  0  0.099358  0.100536  0  1.046199  0
H  H32  1  0.85513016  0.18326194  0.67880535  1  0  0.070854  0  0.928766  0  0  0.082792  0  0.988393  0  0  0.084945  0  0.986696  0  0  0.109958  0.081207  0  0.989667  0
H  H33  1  0.71707912  0.31667558  0.82136809  1  0  0.071039  0  0.929402  0  0  0.082875  0  0.989012  0  0  0.085073  0  0.987261  0  0  0.11  0.081274  0  0.990296  0
H  H34  1  0.14486793  0.81674213  0.32119483  1  0  0.070868  0  0.92875  0  0  0.082806  0  0.988382  0  0  0.084962  0  0.986675  0  0  0.109946  0.081221  0  0.989656  0
H  H35  1  0.28291877  0.68332383  0.17863335  1  0  0.071087  0  0.929526  0  0  0.082926  0  0.989122  0  0  0.085123  0  0.987373  0  0  0.110039  0.081324  0  0.990406  0
C  C36  1  0.39939427  0.42717503  0.64226406  1  0  0.265775  0  3.803464  0  0  0.259819  0  4.062474  0  0  0.272983  0  4.081232  0  0  0.104026  0.250858  0  4.049633  0
C  C37  1  0.46860633  0.07274759  0.85775554  1  0  0.26628  0  3.805216  0  0  0.260361  0  4.063787  0  0  0.273629  0  4.082405  0  0  0.104085  0.251337  0  4.051032  0
C  C38  1  0.60060951  0.57282558  0.35773367  1  0  0.265667  0  3.803688  0  0  0.259731  0  4.062657  0  0  0.272894  0  4.081416  0  0  0.103989  0.250772  0  4.049813  0
C  C39  1  0.53139046  0.92725415  0.14224577  1  0  0.266317  0  3.805048  0  0  0.260293  0  4.063778  0  0  0.273561  0  4.082398  0  0  0.104065  0.25127  0  4.051022  0
C  C40  1  0.24242715  0.42741494  0.70244455  1  0  -0.150873  0  3.712003  0  0  -0.165361  0  3.960784  0  0  -0.173384  0  3.981004  0  0  -0.092935  -0.160253  0  3.947314  0
C  C41  1  0.37190331  0.07247285  0.79760772  1  0  -0.152283  0  3.713378  0  0  -0.166591  0  3.96242  0  0  -0.174654  0  3.982602  0  0  -0.092713  -0.1615  0  3.94895  0
C  C42  1  0.75757568  0.57257985  0.29755439  1  0  -0.150777  0  3.712099  0  0  -0.165287  0  3.960884  0  0  -0.173315  0  3.981111  0  0  -0.092957  -0.160179  0  3.947411  0
C  C43  1  0.62809348  0.92752888  0.20239359  1  0  -0.152198  0  3.713383  0  0  -0.166468  0  3.962422  0  0  -0.174534  0  3.982619  0  0  -0.092674  -0.161375  0  3.948946  0
C  C44  1  0.20961675  0.51223078  0.76210296  1  0  0.001113  0  3.733548  0  0  -0.016857  0  3.980185  0  0  -0.011993  0  3.997804  0  0  -0.073986  -0.019722  0  3.968101  0
C  C45  1  0.48330439  0.98766806  0.73794781  1  0  0.002708  0  3.733352  0  0  -0.01641  0  3.980085  0  0  -0.011516  0  3.997785  0  0  -0.074104  -0.019255  0  3.967978  0
C  C46  1  0.79038683  0.48776634  0.23789541  1  0  0.000983  0  3.733612  0  0  -0.016974  0  3.980238  0  0  -0.012127  0  3.997857  0  0  -0.074026  -0.01984  0  3.968155  0
C  C47  1  0.51669316  0.01233717  0.26205230  1  0  0.002682  0  3.733471  0  0  -0.016413  0  3.980199  0  0  -0.011545  0  3.997887  0  0  -0.07412  -0.019252  0  3.968095  0
C  C48  1  0.32868009  0.60032760  0.76054018  1  0  -0.150211  0  3.760637  0  0  -0.159028  0  4.009093  0  0  -0.166689  0  4.029632  0  0  -0.100934  -0.154078  0  3.995379  0
C  C49  1  0.68888925  0.89963056  0.73945261  1  0  -0.151543  0  3.761049  0  0  -0.160559  0  4.010255  0  0  -0.168276  0  4.030702  0  0  -0.10165  -0.155621  0  3.99656  0
C  C50  1  0.67132199  0.39966486  0.23945933  1  0  -0.150263  0  3.760609  0  0  -0.159085  0  4.009079  0  0  -0.166765  0  4.029613  0  0  -0.100964  -0.154135  0  3.995368  0
C  C51  1  0.31111049  0.10037119  0.26054715  1  0  -0.151652  0  3.76108  0  0  -0.160672  0  4.0103  0  0  -0.168392  0  4.03076  0  0  -0.101713  -0.155735  0  3.996604  0
C  C52  1  0.47743026  0.59824152  0.69851092  1  0  0.121522  0  3.745593  0  0  0.094214  0  3.990568  0  0  0.101501  0  4.009138  0  0  0.034029  0.089516  0  3.977896  0
C  C53  1  0.77367617  0.90173110  0.80145238  1  0  0.122885  0  3.745092  0  0  0.095462  0  3.989963  0  0  0.102759  0  4.008527  0  0  0.03432  0.090762  0  3.977308  0
C  C54  1  0.52257535  0.40175442  0.30148885  1  0  0.121707  0  3.745744  0  0  0.094419  0  3.990688  0  0  0.101706  0  4.009261  0  0  0.03413  0.08972  0  3.978015  0
C  C55  1  0.22632062  0.09827181  0.19854830  1  0  0.12292  0  3.745036  0  0  0.095496  0  3.989911  0  0  0.102792  0  4.00848  0  0  0.034363  0.090796  0  3.977255  0
C  C56  1  0.10185359  0.19550693  0.50486667  1  0  0.264334  0  3.810814  0  0  0.259413  0  4.067608  0  0  0.272259  0  4.086926  0  0  0.103065  0.250604  0  4.054525  0
C  C57  1  0.80208519  0.30442719  0.99535199  1  0  0.264333  0  3.809342  0  0  0.259734  0  4.065509  0  0  0.272616  0  4.084776  0  0  0.1027  0.250921  0  4.052446  0
C  C58  1  0.89814874  0.80449482  0.49513331  1  0  0.264452  0  3.810769  0  0  0.259507  0  4.067586  0  0  0.272376  0  4.086866  0  0  0.103115  0.250697  0  4.054504  0
C  C59  1  0.19791139  0.69557223  0.00464933  1  0  0.264315  0  3.809409  0  0  0.259701  0  4.065579  0  0  0.272588  0  4.084835  0  0  0.102658  0.250889  0  4.052515  0
C  C60  1  0.23952510  0.04167224  0.50410291  1  0  -0.149705  0  3.688989  0  0  -0.163869  0  3.934159  0  0  -0.17224  0  3.954622  0  0  -0.091376  -0.158546  0  3.920657  0
C  C61  1  0.78494139  0.45831849  0.99615827  1  0  -0.151347  0  3.687901  0  0  -0.165369  0  3.933143  0  0  -0.173801  0  3.953573  0  0  -0.091888  -0.160009  0  3.919692  0
C  C62  1  0.76047463  0.95832601  0.49589871  1  0  -0.149662  0  3.688921  0  0  -0.163813  0  3.93407  0  0  -0.172192  0  3.954528  0  0  -0.09133  -0.158491  0  3.920567  0
C  C63  1  0.21505924  0.54167978  0.00384103  1  0  -0.151269  0  3.68774  0  0  -0.16527  0  3.93298  0  0  -0.173704  0  3.953405  0  0  -0.091847  -0.159911  0  3.919529  0
C  C64  1  0.23985019  0.93709247  0.56945523  1  0  0.006738  0  3.721056  0  0  -0.011212  0  3.969085  0  0  -0.006046  0  3.986091  0  0  -0.07331  -0.014321  0  3.957541  0
C  C65  1  0.74603420  0.56293533  0.93079803  1  0  0.010429  0  3.717592  0  0  -0.007463  0  3.965178  0  0  -0.002282  0  3.982181  0  0  -0.071843  -0.010637  0  3.953634  0
C  C66  1  0.76014994  0.06291159  0.43054573  1  0  0.006629  0  3.721059  0  0  -0.011303  0  3.969068  0  0  -0.006143  0  3.986086  0  0  -0.07338  -0.014411  0  3.957523  0
C  C67  1  0.25396479  0.43706409  0.06920230  1  0  0.010422  0  3.717534  0  0  -0.007458  0  3.965117  0  0  -0.00228  0  3.982128  0  0  -0.071858  -0.010632  0  3.95357  0
C  C68  1  0.10398932  0.98598572  0.63455518  1  0  -0.15121  0  3.77422  0  0  -0.162815  0  4.026731  0  0  -0.17031  0  4.048321  0  0  -0.099289  -0.158052  0  4.012241  0
C  C69  1  0.72432931  0.51400335  0.86565305  1  0  -0.154059  0  3.774873  0  0  -0.165763  0  4.027632  0  0  -0.173264  0  4.049258  0  0  -0.100581  -0.160993  0  4.013155  0
C  C70  1  0.89601265  0.01401835  0.36544534  1  0  -0.151136  0  3.774142  0  0  -0.162719  0  4.026626  0  0  -0.170248  0  4.048211  0  0  -0.099287  -0.157956  0  4.012134  0
C  C71  1  0.27567317  0.48599376  0.13434643  1  0  -0.154066  0  3.774793  0  0  -0.1658  0  4.027568  0  0  -0.173321  0  4.049188  0  0  -0.100607  -0.161023  0  4.013093  0
C  C72  1  0.97017609  0.13924601  0.63100241  1  0  0.137823  0  3.737212  0  0  0.104982  0  3.992036  0  0  0.113254  0  4.009401  0  0  0.039651  0.099636  0  3.980172  0
C  C73  1  0.74038294  0.36068836  0.86917300  1  0  0.13788  0  3.739753  0  0  0.105221  0  3.994433  0  0  0.113471  0  4.011847  0  0  0.039011  0.099885  0  3.982543  0
C  C74  1  0.02982589  0.86075806  0.36899811  1  0  0.137783  0  3.73713  0  0  0.104939  0  3.991955  0  0  0.113211  0  4.00933  0  0  0.039659  0.099594  0  3.980091  0
C  C75  1  0.25962048  0.63930990  0.13082774  1  0  0.13783  0  3.739792  0  0  0.10516  0  3.994471  0  0  0.113407  0  4.011893  0  0  0.038965  0.099825  0  3.982578  0
S  S76  1  0.08051950  0.33595770  0.42543776  1  0  -0.456509  0  2.108642  0  0  -0.406346  0  2.45067  0  0  -0.42807  0  2.447139  0  0  -0.211661  -0.390564  0  2.452485  0
S  S77  1  0.84212544  0.16389969  0.07473154  1  0  -0.456064  0  2.108745  0  0  -0.406187  0  2.450838  0  0  -0.427879  0  2.44725  0  0  -0.21143  -0.390421  0  2.452657  0
S  S78  1  0.91948133  0.66404173  0.57456213  1  0  -0.456594  0  2.10864  0  0  -0.406421  0  2.45066  0  0  -0.428154  0  2.447117  0  0  -0.211695  -0.39064  0  2.452477  0
S  S79  1  0.15787205  0.83609741  0.92526870  1  0  -0.456061  0  2.108738  0  0  -0.406179  0  2.450835  0  0  -0.427878  0  2.447256  0  0  -0.211429  -0.390413  0  2.452654  0
S  S80  1  0.46269670  0.31478208  0.56815161  1  0  -0.456591  0  2.14558  0  0  -0.416901  0  2.50497  0  0  -0.438301  0  2.502396  0  0  -0.217722  -0.401543  0  2.506306  0
S  S81  1  0.34561417  0.18515053  0.93186027  1  0  -0.456636  0  2.14593  0  0  -0.417165  0  2.505573  0  0  -0.438558  0  2.502892  0  0  -0.217802  -0.401781  0  2.506932  0
S  S82  1  0.53730688  0.68521737  0.43184552  1  0  -0.456517  0  2.145656  0  0  -0.416832  0  2.505035  0  0  -0.438234  0  2.502466  0  0  -0.217691  -0.401476  0  2.506371  0
S  S83  1  0.65438317  0.81485004  0.06814110  1  0  -0.456628  0  2.145793  0  0  -0.417124  0  2.505486  0  0  -0.4385  0  2.502771  0  0  -0.217777  -0.40174  0  2.506843  0
N  N84  1  0.51308016  0.51336125  0.64156632  1  0  -0.368819  0  3.259674  0  0  -0.288089  0  3.510718  0  0  -0.308383  0  3.529117  0  0  -0.344998  -0.274342  0  3.49801  0
N  N85  1  0.66772309  0.98660335  0.85841073  1  0  -0.370189  0  3.259995  0  0  -0.289109  0  3.510546  0  0  -0.30943  0  3.528913  0  0  -0.345416  -0.27534  0  3.497844  0
N  N86  1  0.48692178  0.48663819  0.35843247  1  0  -0.368909  0  3.259868  0  0  -0.288189  0  3.510925  0  0  -0.308482  0  3.529321  0  0  -0.345029  -0.274443  0  3.498216  0
N  N87  1  0.33227479  0.01339839  0.14158947  1  0  -0.370167  0  3.259963  0  0  -0.289056  0  3.510552  0  0  -0.309381  0  3.528921  0  0  -0.345404  -0.275288  0  3.497848  0
N  N88  1  0.96988142  0.24090868  0.56809731  1  0  -0.369613  0  3.279239  0  0  -0.292025  0  3.535866  0  0  -0.31232  0  3.554544  0  0  -0.344908  -0.278341  0  3.523048  0
N  N89  1  0.77882784  0.25901849  0.93207437  1  0  -0.36951  0  3.28053  0  0  -0.291973  0  3.53713  0  0  -0.312306  0  3.555833  0  0  -0.344297  -0.27829  0  3.524314  0
N  N90  1  0.03012036  0.75909423  0.43190261  1  0  -0.369666  0  3.279214  0  0  -0.292065  0  3.535852  0  0  -0.312366  0  3.554521  0  0  -0.344935  -0.278381  0  3.523033  0
N  N91  1  0.22117169  0.74097977  0.06792603  1  0  -0.369566  0  3.28058  0  0  -0.291992  0  3.53715  0  0  -0.312327  0  3.555853  0  0  -0.344284  -0.278308  0  3.524334  0
