# generated using pymatgen
data_CdH14C15N3O5
_symmetry_space_group_name_H-M   'P 1'
_cell_length_a   9.78719957
_cell_length_b   11.50792718
_cell_length_c   19.11878559
_cell_angle_alpha   106.50932417
_cell_angle_beta   89.99999260
_cell_angle_gamma   89.99985399
_symmetry_Int_Tables_number   1
_chemical_formula_structural   CdH14C15N3O5
_chemical_formula_sum   'Cd4 H56 C60 N12 O20'
_cell_volume   2064.58075538
_cell_formula_units_Z   4
loop_
 _symmetry_equiv_pos_site_id
 _symmetry_equiv_pos_as_xyz
  1  'x, y, z'
loop_
 _atom_site_type_symbol
 _atom_site_label
 _atom_site_symmetry_multiplicity
 _atom_site_fract_x
 _atom_site_fract_y
 _atom_site_fract_z
 _atom_site_occupancy
 _atom_site_pbe_bader_charge
 _atom_site_pbe_bader_spin_density
 _atom_site_pbe_cm5_charge
 _atom_site_pbe_ddec_charge
 _atom_site_pbe_ddec_spin_density
 _atom_site_pbe_ddec_sum_bond_order
 _atom_site_pbe_magmom
Cd  Cd0  1  0.68345497  0.64991952  0.25647558  1  1.273262  0  0.755119  0.873923  0  2.161781  0
Cd  Cd1  1  0.18345540  0.35008153  0.24352388  1  1.27328  0  0.755128  0.873956  0  2.1618  0
Cd  Cd2  1  0.31654448  0.35008072  0.74352406  1  1.273275  0  0.75512  0.87397  0  2.161749  0
Cd  Cd3  1  0.81654405  0.64991961  0.75647592  1  1.273255  0  0.755136  0.874  0  2.161715  0
H  H4  1  0.79251032  0.87670823  0.38312392  1  0.090202  0  0.123798  0.100265  0  0.971909  0
H  H5  1  0.29250942  0.12329253  0.11687810  1  0.09027  0  0.123804  0.100307  0  0.971857  0
H  H6  1  0.20749117  0.12329108  0.61687714  1  0.09022  0  0.123803  0.100292  0  0.971839  0
H  H7  1  0.70749003  0.87670861  0.88312170  1  0.090252  0  0.123796  0.100292  0  0.971878  0
H  H8  1  0.79686614  0.10415656  0.42294355  1  0.068479  0  0.111563  0.120601  0  0.986277  0
H  H9  1  0.29686396  0.89584420  0.07705743  1  0.068498  0  0.111546  0.120573  0  0.986381  0
H  H10  1  0.20313535  0.89584276  0.57705646  1  0.068475  0  0.111566  0.120614  0  0.986292  0
H  H11  1  0.70313345  0.10415694  0.92294238  1  0.068569  0  0.111557  0.120579  0  0.986348  0
H  H12  1  0.53219087  0.09644333  0.24104753  1  0.105415  0  0.114933  0.128891  0  0.989116  0
H  H13  1  0.03219067  0.90355806  0.25895358  1  0.105421  0  0.114929  0.128872  0  0.989124  0
H  H14  1  0.46781062  0.90355598  0.75895301  1  0.105422  0  0.11494  0.128889  0  0.989093  0
H  H15  1  0.96780980  0.09644307  0.74104780  1  0.105441  0  0.114933  0.128875  0  0.989125  0
H  H16  1  0.55019283  0.86938426  0.20476733  1  0.106968  0  0.115894  0.082247  0  1.007033  0
H  H17  1  0.05019186  0.13061708  0.29523481  1  0.106931  0  0.115881  0.082197  0  1.007023  0
H  H18  1  0.44981173  0.13061597  0.79523336  1  0.10692  0  0.115888  0.082229  0  1.00701  0
H  H19  1  0.94981066  0.86938405  0.70476656  1  0.106938  0  0.115899  0.082243  0  1.006995  0
H  H20  1  0.59024191  0.28823436  0.32205487  1  0.123534  0  0.118805  0.117273  0  1.003773  0
H  H21  1  0.09024128  0.71176509  0.17794537  1  0.123535  0  0.118806  0.117271  0  1.003762  0
H  H22  1  0.40975651  0.71176496  0.67794619  1  0.123519  0  0.118812  0.117265  0  1.003784  0
H  H23  1  0.90975511  0.28823515  0.82205376  1  0.12354  0  0.118815  0.117272  0  1.003762  0
H  H24  1  0.61708104  0.28871900  0.41317663  1  0.067814  0  0.122993  0.119566  0  0.968145  0
H  H25  1  0.11708042  0.71128311  0.08682354  1  0.067436  0  0.122984  0.119555  0  0.968144  0
H  H26  1  0.38291739  0.71128214  0.58682369  1  0.067829  0  0.122996  0.119588  0  0.968175  0
H  H27  1  0.88291902  0.28871804  0.91317626  1  0.067448  0  0.123002  0.119576  0  0.968118  0
H  H28  1  0.83147931  0.37628153  0.47320923  1  0.100763  0  0.123136  0.127179  0  1.012977  0
H  H29  1  0.33147795  0.62371734  0.02678984  1  0.100782  0  0.123128  0.127156  0  1.012998  0
H  H30  1  0.16852116  0.62371779  0.52679078  1  0.100779  0  0.123147  0.127187  0  1.012957  0
H  H31  1  0.66851946  0.37628198  0.97321017  1  0.100741  0  0.123132  0.127162  0  1.012977  0
H  H32  1  0.07827397  0.44468196  0.42236148  1  0.10209  0  0.113913  0.113595  0  1.029414  0
H  H33  1  0.57827183  0.55531570  0.07763792  1  0.102083  0  0.113937  0.11366  0  1.029392  0
H  H34  1  0.92172650  0.55531646  0.57763785  1  0.102068  0  0.113925  0.113637  0  1.029381  0
H  H35  1  0.42172456  0.44468452  0.92236277  1  0.10205  0  0.113939  0.113654  0  1.029362  0
H  H36  1  0.89497876  0.27507822  0.18298415  1  0.098309  0  0.105281  0.163897  0  0.997074  0
H  H37  1  0.39498112  0.72492141  0.31701506  1  0.098301  0  0.105284  0.16387  0  0.997127  0
H  H38  1  0.10501966  0.72492111  0.81701534  1  0.098301  0  0.105261  0.163846  0  0.997126  0
H  H39  1  0.60501935  0.27507972  0.68298527  1  0.098311  0  0.105288  0.163889  0  0.997095  0
H  H40  1  0.72348635  0.30644454  0.21181398  1  0.114323  0  0.106408  0.170264  0  0.98276  0
H  H41  1  0.22348880  0.69355641  0.28818599  1  0.11434  0  0.106392  0.17022  0  0.982752  0
H  H42  1  0.27651106  0.69355660  0.78818583  1  0.114352  0  0.106383  0.170209  0  0.982756  0
H  H43  1  0.77651065  0.30644472  0.71181486  1  0.114312  0  0.106382  0.170243  0  0.98273  0
H  H44  1  0.79650745  0.16257575  0.20775370  1  0.055803  0  0.095141  0.137038  0  1.006027  0
H  H45  1  0.29650845  0.83742502  0.29224623  1  0.055808  0  0.095159  0.137051  0  1.00602  0
H  H46  1  0.20349098  0.83742448  0.79224647  1  0.05581  0  0.095139  0.137009  0  1.006055  0
H  H47  1  0.70349100  0.16257520  0.70775446  1  0.055788  0  0.095146  0.137045  0  1.00603  0
H  H48  1  0.69482184  0.64064460  0.50615751  1  0.088649  0  0.106189  0.11659  0  0.997448  0
H  H49  1  0.19482218  0.35935693  0.99384270  1  0.088665  0  0.106204  0.116602  0  0.997437  0
H  H50  1  0.30517863  0.35935745  0.49384245  1  0.088685  0  0.106181  0.116576  0  0.997452  0
H  H51  1  0.80517625  0.64064422  0.00615659  1  0.088643  0  0.106197  0.116587  0  0.997446  0
H  H52  1  0.97002631  0.58826064  0.25777531  1  0.656374  0  0.290341  0.391277  0  0.947274  0
H  H53  1  0.47002655  0.41173971  0.24222454  1  0.656378  0  0.290351  0.391292  0  0.947251  0
H  H54  1  0.02997416  0.41173869  0.74222418  1  0.656398  0  0.290324  0.391302  0  0.947276  0
H  H55  1  0.52997494  0.58826052  0.75777563  1  0.656395  0  0.290358  0.39132  0  0.947246  0
H  H56  1  0.92146185  0.58305035  0.33398440  1  0.599296  0  0.304659  0.386791  0  0.913987  0
H  H57  1  0.42146108  0.41694832  0.16601463  1  0.599299  0  0.304651  0.386785  0  0.91397  0
H  H58  1  0.07853759  0.41694807  0.66601545  1  0.599314  0  0.304653  0.386796  0  0.913945  0
H  H59  1  0.57853837  0.58305102  0.83398434  1  0.59931  0  0.304644  0.386788  0  0.914021  0
C  C60  1  0.73867565  0.92945936  0.35250045  1  0.552443  0  0.053238  0.101777  0  3.952794  0
C  C61  1  0.23867489  0.07054152  0.14750212  1  0.552207  0  0.053231  0.101712  0  3.95283  0
C  C62  1  0.26132584  0.07053996  0.64750009  1  0.552468  0  0.053254  0.101778  0  3.952769  0
C  C63  1  0.76132456  0.92945960  0.85249925  1  0.552374  0  0.053231  0.101708  0  3.952904  0
C  C64  1  0.73931350  0.05557748  0.37460701  1  -0.066129  0  -0.083453  -0.186674  0  3.949958  0
C  C65  1  0.23931320  0.94442341  0.12539399  1  -0.066108  0  -0.083454  -0.186636  0  3.950082  0
C  C66  1  0.26068493  0.94442183  0.62539457  1  -0.066124  0  -0.083488  -0.186732  0  3.949875  0
C  C67  1  0.76068421  0.05557774  0.87460477  1  -0.066223  0  -0.083461  -0.186614  0  3.950056  0
C  C68  1  0.66384034  0.11857323  0.33490507  1  0.020482  0  0.014107  0.145207  0  3.949313  0
C  C69  1  0.16383920  0.88142696  0.16509476  1  0.020638  0  0.014158  0.145218  0  3.949302  0
C  C70  1  0.33616320  0.88142609  0.66509598  1  0.02067  0  0.014142  0.145212  0  3.949197  0
C  C71  1  0.83616230  0.11857329  0.83490436  1  0.020666  0  0.014098  0.145116  0  3.949335  0
C  C72  1  0.59306228  0.05111199  0.27324910  1  -0.001817  0  -0.078341  -0.179042  0  3.938692  0
C  C73  1  0.09305888  0.94888835  0.22675129  1  -0.001736  0  -0.078357  -0.17904  0  3.938803  0
C  C74  1  0.40694125  0.94888823  0.72675159  1  -0.00201  0  -0.078359  -0.179041  0  3.938733  0
C  C75  1  0.90694261  0.05111187  0.77324940  1  -0.001753  0  -0.078339  -0.179  0  3.938795  0
C  C76  1  0.60108370  0.92516730  0.25360239  1  0.440927  0  0.051404  0.10277  0  3.962438  0
C  C77  1  0.10107984  0.07483121  0.24639821  1  0.440599  0  0.051393  0.102822  0  3.962353  0
C  C78  1  0.39891881  0.07483293  0.74639726  1  0.440945  0  0.051441  0.102825  0  3.962428  0
C  C79  1  0.89891960  0.92516810  0.75360337  1  0.440655  0  0.051424  0.102837  0  3.962379  0
C  C80  1  0.65819194  0.25517637  0.35771234  1  0.299151  0  -0.044127  -0.122937  0  3.866621  0
C  C81  1  0.15819223  0.74482382  0.14228750  1  0.299523  0  -0.044096  -0.122864  0  3.866539  0
C  C82  1  0.34180853  0.74482294  0.64228819  1  0.299072  0  -0.044112  -0.1229  0  3.866602  0
C  C83  1  0.84180620  0.25517732  0.85771230  1  0.299493  0  -0.044141  -0.122898  0  3.866398  0
C  C84  1  0.87021564  0.36495619  0.41855631  1  0.290342  0  -0.009351  -0.134547  0  3.979497  0
C  C85  1  0.37021321  0.63504260  0.08144274  1  0.290252  0  -0.009325  -0.134427  0  3.979478  0
C  C86  1  0.12978381  0.63504314  0.58144318  1  0.290322  0  -0.009343  -0.134462  0  3.979444  0
C  C87  1  0.62978317  0.36495763  0.91855690  1  0.290383  0  -0.009335  -0.134447  0  3.979508  0
C  C88  1  0.99036334  0.39842941  0.39278432  1  0.463401  0  -0.016209  -0.048824  0  4.069437  0
C  C89  1  0.49036305  0.60157000  0.10721483  1  0.463419  0  -0.016247  -0.048998  0  4.069518  0
C  C90  1  0.00963508  0.60157083  0.60721532  1  0.463404  0  -0.016209  -0.04891  0  4.069435  0
C  C91  1  0.50963435  0.39842932  0.89278570  1  0.463371  0  -0.016219  -0.04893  0  4.06944  0
C  C92  1  0.86647412  0.31006048  0.29687538  1  0.967803  0  0.218263  0.33016  0  3.953516  0
C  C93  1  0.36647558  0.68994194  0.20312484  1  0.967825  0  0.218264  0.330156  0  3.953477  0
C  C94  1  0.13352533  0.68993975  0.70312479  1  0.967834  0  0.218283  0.330179  0  3.953514  0
C  C95  1  0.63352284  0.31006010  0.79687565  1  0.967847  0  0.218323  0.330315  0  3.953403  0
C  C96  1  0.81737129  0.26029500  0.22080920  1  -0.07846  0  -0.23115  -0.467758  0  3.927647  0
C  C97  1  0.31737463  0.73970482  0.27919056  1  -0.078457  0  -0.231137  -0.467654  0  3.927654  0
C  C98  1  0.18262714  0.73970523  0.77919149  1  -0.0785  0  -0.231106  -0.467589  0  3.927638  0
C  C99  1  0.68262686  0.26029541  0.72080961  1  -0.078411  0  -0.231178  -0.467789  0  3.927605  0
C  C100  1  0.60938585  0.57866259  0.50344605  1  -0.044345  0  -0.085987  -0.138891  0  3.976183  0
C  C101  1  0.10938498  0.42133734  0.99655336  1  -0.044399  0  -0.086005  -0.138866  0  3.976138  0
C  C102  1  0.39061666  0.42133584  0.49655276  1  -0.044446  0  -0.085996  -0.138813  0  3.976096  0
C  C103  1  0.89061549  0.57866381  0.00344592  1  -0.044389  0  -0.085996  -0.138856  0  3.976122  0
C  C104  1  0.53435117  0.53919980  0.43879490  1  -0.032469  0  -0.013543  -0.044071  0  3.95617  0
C  C105  1  0.03435132  0.46080070  0.06120448  1  -0.03245  0  -0.01357  -0.044155  0  3.956222  0
C  C106  1  0.46565032  0.46080135  0.56120386  1  -0.032383  0  -0.013567  -0.044186  0  3.956205  0
C  C107  1  0.96564915  0.53919863  0.93879501  1  -0.032418  0  -0.013537  -0.04411  0  3.956166  0
C  C108  1  0.42299768  0.46067187  0.43586042  1  -0.026601  0  -0.012408  -0.041562  0  3.981507  0
C  C109  1  0.92299763  0.53932769  0.06413929  1  -0.026604  0  -0.01238  -0.041484  0  3.981502  0
C  C110  1  0.57700279  0.53932836  0.56413922  1  -0.026685  0  -0.012391  -0.041487  0  3.98154  0
C  C111  1  0.07700284  0.46067164  0.93585968  1  -0.026621  0  -0.012383  -0.041485  0  3.98142  0
C  C112  1  0.58192041  0.57484640  0.37321842  1  1.585437  0  0.196206  0.572824  0  4.209977  0
C  C113  1  0.08192064  0.42515307  0.12678077  1  1.585442  0  0.196198  0.572789  0  4.20984  0
C  C114  1  0.41808109  0.42515384  0.62678070  1  1.58546  0  0.196254  0.572915  0  4.209832  0
C  C115  1  0.91807983  0.57484535  0.87321856  1  1.585437  0  0.196217  0.572843  0  4.20988  0
C  C116  1  0.33624056  0.41932552  0.36897044  1  1.587473  0  0.180825  0.552626  0  4.278094  0
C  C117  1  0.83624139  0.58067515  0.13103000  1  1.587487  0  0.180791  0.552585  0  4.278068  0
C  C118  1  0.66376094  0.58067471  0.63102973  1  1.587493  0  0.180796  0.552619  0  4.278046  0
C  C119  1  0.16376113  0.41932508  0.86896965  1  1.587394  0  0.18079  0.552618  0  4.278089  0
N  N120  1  0.67100062  0.86524187  0.29281275  1  -1.221609  0  -0.320182  -0.227967  0  3.490449  0
N  N121  1  0.17099761  0.13475918  0.20718933  1  -1.221364  0  -0.320204  -0.228015  0  3.490416  0
N  N122  1  0.32900087  0.13475745  0.70718726  1  -1.221614  0  -0.320238  -0.228026  0  3.490545  0
N  N123  1  0.82900081  0.86524195  0.79281204  1  -1.221552  0  -0.320198  -0.228021  0  3.49051  0
N  N124  1  0.79314670  0.30913303  0.35760396  1  -1.218339  0  -0.241308  0.012552  0  3.708936  0
N  N125  1  0.29314716  0.69086775  0.14239597  1  -1.218302  0  -0.241337  0.012455  0  3.708918  0
N  N126  1  0.20685275  0.69086629  0.64239605  1  -1.21826  0  -0.241337  0.012456  0  3.708901  0
N  N127  1  0.70685127  0.30913248  0.85760420  1  -1.218323  0  -0.241301  0.012493  0  3.708836  0
N  N128  1  0.98696611  0.36389902  0.31726689  1  -1.263486  0  -0.358245  -0.379408  0  3.478651  0
N  N129  1  0.48696672  0.63610040  0.18273227  1  -1.263503  0  -0.358253  -0.379381  0  3.47871  0
N  N130  1  0.01303232  0.63610122  0.68273276  1  -1.263502  0  -0.35829  -0.379458  0  3.478708  0
N  N131  1  0.51303069  0.36389983  0.81726790  1  -1.263517  0  -0.358288  -0.379482  0  3.478648  0
O  O132  1  0.58022137  0.49554878  0.31062389  1  -1.189743  0  -0.323975  -0.578134  0  2.238619  0
O  O133  1  0.08022237  0.50445069  0.18937583  1  -1.189716  0  -0.323984  -0.578141  0  2.238574  0
O  O134  1  0.41977910  0.50445054  0.68937560  1  -1.189716  0  -0.323961  -0.578152  0  2.238615  0
O  O135  1  0.91977810  0.49554954  0.81062382  1  -1.189742  0  -0.323987  -0.578169  0  2.238598  0
O  O136  1  0.91645831  0.63393095  0.30108356  1  -1.229733  0  -0.584573  -0.743348  0  2.0034  0
O  O137  1  0.41645768  0.36606862  0.19891615  1  -1.229734  0  -0.584575  -0.743355  0  2.00337  0
O  O138  1  0.08354216  0.36606746  0.69891629  1  -1.229779  0  -0.58455  -0.743393  0  2.003287  0
O  O139  1  0.58354177  0.63393161  0.80108350  1  -1.229771  0  -0.584576  -0.743423  0  2.003326  0
O  O140  1  0.62912067  0.68096727  0.38262907  1  -1.162127  0  -0.333764  -0.552111  0  2.161398  0
O  O141  1  0.12912122  0.31903210  0.11737010  1  -1.162151  0  -0.333762  -0.552093  0  2.161332  0
O  O142  1  0.37087980  0.31903297  0.61737006  1  -1.16214  0  -0.333813  -0.552171  0  2.161311  0
O  O143  1  0.87087822  0.68096723  0.88262939  1  -1.162115  0  -0.333778  -0.552117  0  2.161324  0
O  O144  1  0.32734850  0.30613496  0.33840206  1  -1.160893  0  -0.342956  -0.558838  0  2.129615  0
O  O145  1  0.82734899  0.69386482  0.16159823  1  -1.160898  0  -0.342951  -0.558819  0  2.129605  0
O  O146  1  0.67265197  0.69386526  0.66159864  1  -1.160896  0  -0.342957  -0.558835  0  2.129574  0
O  O147  1  0.17265250  0.30613451  0.83840126  1  -1.160905  0  -0.342955  -0.558851  0  2.129614  0
O  O148  1  0.27394785  0.50023865  0.34729971  1  -1.162987  0  -0.342622  -0.563215  0  2.155912  0
O  O149  1  0.77394687  0.49976127  0.15270008  1  -1.162962  0  -0.342606  -0.563208  0  2.155936  0
O  O150  1  0.72605364  0.49976158  0.65270046  1  -1.162979  0  -0.342607  -0.563222  0  2.155963  0
O  O151  1  0.22605258  0.50023807  0.84729889  1  -1.162908  0  -0.342614  -0.563229  0  2.155971  0
