# generated using pymatgen
data_Co2H7C10NO7
_symmetry_space_group_name_H-M   'P 1'
_cell_length_a   9.93057943
_cell_length_b   12.66406095
_cell_length_c   13.04948893
_cell_angle_alpha   71.37162633
_cell_angle_beta   67.63107297
_cell_angle_gamma   66.90463085
_symmetry_Int_Tables_number   1
_chemical_formula_structural   Co2H7C10NO7
_chemical_formula_sum   'Co8 H28 C40 N4 O28'
_cell_volume   1367.78811558
_cell_formula_units_Z   4
loop_
 _symmetry_equiv_pos_site_id
 _symmetry_equiv_pos_as_xyz
  1  'x, y, z'
loop_
 _atom_site_type_symbol
 _atom_site_label
 _atom_site_symmetry_multiplicity
 _atom_site_fract_x
 _atom_site_fract_y
 _atom_site_fract_z
 _atom_site_occupancy
 _atom_site_pbe_bader_charge
 _atom_site_pbe_bader_spin_density
 _atom_site_pbe_cm5_charge
 _atom_site_pbe_ddec_charge
 _atom_site_pbe_ddec_spin_density
 _atom_site_pbe_ddec_sum_bond_order
 _atom_site_pbe_magmom
Co  Co0  1  0.96953252  0.61308482  0.89435407  1  1.295533  2.604168  0.651278  0.94801  2.817532  2.443505  2.589
Co  Co1  1  0.25176155  0.16479308  0.25776264  1  1.303675  2.607042  0.66309  1.021041  2.797194  2.426282  2.573
Co  Co2  1  0.47700203  0.88690700  0.60547374  1  1.299181  2.603603  0.651206  0.946405  2.816396  2.443322  2.589
Co  Co3  1  0.67433748  0.33530287  0.24225129  1  1.303244  2.60697  0.662174  1.018638  2.797971  2.427415  2.573
Co  Co4  1  0.03048259  0.38693903  0.10565127  1  1.295446  2.60423  0.651276  0.947868  2.817592  2.443621  2.589
Co  Co5  1  0.74826668  0.83522985  0.74220158  1  1.304114  2.607047  0.663093  1.021011  2.797207  2.426167  2.573
Co  Co6  1  0.52296512  0.11310282  0.39451942  1  1.299032  2.603614  0.651118  0.946364  2.816401  2.443467  2.589
Co  Co7  1  0.32568225  0.66470080  0.75772911  1  1.303347  2.606968  0.66225  1.018726  2.797935  2.427276  2.573
H  H8  1  0.87709414  0.89473783  0.14635471  1  0.085154  0.001155  0.108392  0.113421  0.000572  1.003997  0.0
H  H9  1  0.03009830  0.75059417  0.01787028  1  0.086624  0.001521  0.117037  0.090273  8.8e-05  1.006388  0.001
H  H10  1  0.63777414  0.71682974  0.00764390  1  0.081316  0.001814  0.115517  0.080884  0.000508  1.018477  0.001
H  H11  1  0.46895693  0.86801374  0.12686901  1  0.126003  0.001146  0.116042  0.130024  0.000483  0.981416  0.0
H  H12  1  0.13393773  0.96974812  0.74486993  1  0.066882  0.007062  0.11004  0.075805  0.002526  0.958689  0.004
H  H13  1  0.11894754  0.91364819  0.53811042  1  0.059929  0.000179  0.111696  0.137465  -0.000141  0.971545  0.0
H  H14  1  0.99689410  0.03381254  0.60069628  1  0.086635  0.00256  0.111391  0.141497  0.000954  0.976309  0.002
H  H15  1  0.91836312  0.60524360  0.35321246  1  0.081748  0.001169  0.109112  0.115189  0.000573  1.004478  0.0
H  H16  1  0.79907364  0.74950277  0.48153383  1  0.09583  0.001543  0.117591  0.091212  0.0001  1.005589  0.001
H  H17  1  0.36244489  0.78388851  0.49188833  1  0.106017  0.001793  0.116293  0.081767  0.000497  1.019182  0.001
H  H18  1  0.46361834  0.63283975  0.37262987  1  0.118789  0.001137  0.116051  0.130345  0.000479  0.97978  0.0
H  H19  1  0.84868066  0.53022241  0.75498609  1  0.067389  0.007045  0.109873  0.075104  0.002524  0.958132  0.004
H  H20  1  0.57087291  0.58639737  0.96178529  1  0.063436  0.000166  0.111686  0.137732  -0.000149  0.971179  0.0
H  H21  1  0.63152866  0.46620499  0.89927962  1  0.074576  0.002586  0.111397  0.141101  0.000955  0.974857  0.002
H  H22  1  0.12283152  0.10526241  0.85369961  1  0.085222  0.001154  0.108436  0.113513  0.000572  1.004054  0.0
H  H23  1  0.96987753  0.24942443  0.98214594  1  0.086981  0.001521  0.117024  0.090303  8.8e-05  1.006517  0.001
H  H24  1  0.36224251  0.28315203  0.99235267  1  0.081559  0.001815  0.115535  0.080914  0.000508  1.018444  0.001
H  H25  1  0.53101181  0.13193564  0.87315406  1  0.126174  0.001146  0.116087  0.130029  0.000483  0.98171  0.0
H  H26  1  0.86608635  0.03025554  0.25510919  1  0.066787  0.007055  0.11009  0.075887  0.002523  0.958465  0.004
H  H27  1  0.88102280  0.08634850  0.46189510  1  0.060093  0.000181  0.111677  0.137456  -0.00014  0.971821  0.0
H  H28  1  0.00309485  0.96618939  0.39930597  1  0.087235  0.002557  0.111489  0.141634  0.000953  0.976268  0.002
H  H29  1  0.08165798  0.39476797  0.64678959  1  0.082035  0.001169  0.109098  0.11514  0.000573  1.004659  0.0
H  H30  1  0.20090707  0.25050619  0.51847247  1  0.095924  0.001543  0.117654  0.091308  0.0001  1.0056  0.001
H  H31  1  0.63754444  0.21612830  0.50809076  1  0.106039  0.001793  0.116284  0.081792  0.000497  1.01935  0.001
H  H32  1  0.53637058  0.36717268  0.62735071  1  0.119631  0.001136  0.116077  0.130386  0.000479  0.979778  0.0
H  H33  1  0.15135433  0.46977600  0.24499989  1  0.06777  0.007055  0.109859  0.075052  0.002528  0.958401  0.004
H  H34  1  0.42917098  0.41360631  0.03821329  1  0.063272  0.000166  0.111644  0.137673  -0.000149  0.971257  0.0
H  H35  1  0.36850806  0.53380046  0.10072895  1  0.080936  0.002571  0.111369  0.141098  0.000955  0.974881  0.002
C  C36  1  0.56131148  0.98254630  0.21856786  1  1.587308  -0.004741  0.221318  0.590747  -0.006082  4.16541  -0.003
C  C37  1  0.66040719  0.89257644  0.14638798  1  -0.063636  -0.005979  0.002875  0.013174  -0.008928  3.946156  -0.002
C  C38  1  0.82027118  0.85756346  0.11639213  1  0.080587  0.006031  -0.078735  -0.141967  0.002678  3.952945  0.005
C  C39  1  0.90542551  0.77648232  0.04636600  1  0.459081  -0.009987  0.044577  0.098078  -0.011592  3.929872  -0.006
C  C40  1  0.68629079  0.75854175  0.03987315  1  0.534533  -0.008778  0.046107  0.091667  -0.010218  3.954215  -0.006
C  C41  1  0.59307436  0.84172827  0.10619092  1  -0.080449  0.004924  -0.074374  -0.132365  0.001995  3.941371  0.004
C  C42  1  0.03000444  0.84294769  0.75827169  1  1.571225  0.005817  0.221224  0.58136  0.002264  4.096334  0.004
C  C43  1  0.14944651  0.90782911  0.69466449  1  0.507894  0.012839  -0.007671  0.124634  0.008184  3.937014  0.007
C  C44  1  0.11552828  0.97607844  0.58251559  1  -0.046914  0.014402  -0.162819  -0.35951  0.007312  3.905862  0.011
C  C45  1  0.21614082  0.04781824  0.49701258  1  1.547494  -1.5e-05  0.228316  0.662725  -0.001361  4.06922  0.0
C  C46  1  0.76225521  0.51769419  0.28117262  1  1.574702  -0.005135  0.221113  0.59159  -0.006578  4.164335  -0.003
C  C47  1  0.69934746  0.60771616  0.35323773  1  -0.081403  -0.006168  0.002852  0.013606  -0.009124  3.946097  -0.002
C  C48  1  0.79439698  0.64258009  0.38316721  1  0.052128  0.005572  -0.079711  -0.14514  0.002419  3.955248  0.005
C  C49  1  0.72860813  0.72369378  0.45315383  1  0.445942  -0.009944  0.044034  0.097147  -0.011579  3.932159  -0.006
C  C50  1  0.48488016  0.74201256  0.45966738  1  0.439171  -0.00893  0.045321  0.09067  -0.010337  3.955926  -0.006
C  C51  1  0.54097449  0.65887640  0.39333059  1  0.033452  0.005001  -0.074951  -0.133753  0.002034  3.939307  0.004
C  C52  1  0.63121426  0.65703898  0.74171887  1  1.561133  0.00598  0.220923  0.580168  0.002347  4.095924  0.005
C  C53  1  0.75205717  0.59211839  0.80525220  1  0.503809  0.012828  -0.0069  0.127919  0.008167  3.930343  0.007
C  C54  1  0.67427390  0.52390548  0.91744463  1  -0.029246  0.014361  -0.16274  -0.359937  0.007323  3.904161  0.011
C  C55  1  0.76115125  0.45217005  0.00296838  1  1.53458  0.000104  0.227441  0.662184  -0.001329  4.074177  0.0
C  C56  1  0.43864430  0.01744864  0.78144019  1  1.586974  -0.004731  0.221114  0.590107  -0.006077  4.16556  -0.003
C  C57  1  0.33954031  0.10740976  0.85364440  1  -0.066304  -0.005957  0.002863  0.013235  -0.008907  3.946287  -0.002
C  C58  1  0.17968038  0.14242362  0.88364644  1  0.082411  0.006031  -0.078713  -0.142017  0.002676  3.953574  0.005
C  C59  1  0.09455048  0.22351439  0.95366238  1  0.45677  -0.00998  0.044683  0.098134  -0.011582  3.93017  -0.006
C  C60  1  0.31371286  0.24144004  0.96013719  1  0.534743  -0.008767  0.046059  0.091621  -0.010206  3.954504  -0.006
C  C61  1  0.40690336  0.15823689  0.89383531  1  -0.078404  0.00492  -0.074379  -0.132287  0.001994  3.941589  0.004
C  C62  1  0.96999903  0.15705599  0.24172345  1  1.570935  0.005806  0.221136  0.581164  0.002259  4.096736  0.004
C  C63  1  0.85059140  0.09217019  0.30532266  1  0.507238  0.012838  -0.007624  0.12482  0.008179  3.936034  0.007
C  C64  1  0.88448003  0.02393751  0.41747122  1  -0.047647  0.014392  -0.162936  -0.359633  0.007306  3.906275  0.011
C  C65  1  0.78384334  0.95219243  0.50296689  1  1.546907  -6e-06  0.228421  0.662682  -0.001351  4.069338  0.0
C  C66  1  0.23777947  0.48230773  0.71881466  1  1.575253  -0.005125  0.221194  0.591544  -0.006566  4.164335  -0.003
C  C67  1  0.30067126  0.39228752  0.64675292  1  -0.081405  -0.006179  0.002779  0.013582  -0.009136  3.94594  -0.002
C  C68  1  0.20561232  0.35742271  0.61683031  1  0.051758  0.005574  -0.079676  -0.145067  0.002421  3.955406  0.005
C  C69  1  0.27137870  0.27631342  0.54684740  1  0.445708  -0.009945  0.043979  0.097045  -0.01158  3.932502  -0.006
C  C70  1  0.51511204  0.25799462  0.54032231  1  0.438675  -0.008937  0.045274  0.090623  -0.010346  3.956415  -0.006
C  C71  1  0.45903429  0.34112201  0.60665467  1  0.032617  0.005004  -0.075016  -0.133823  0.002035  3.939829  0.004
C  C72  1  0.36879153  0.34294805  0.25827619  1  1.561217  0.00598  0.221028  0.580195  0.002342  4.095748  0.005
C  C73  1  0.24796003  0.40787566  0.19474727  1  0.504277  0.01282  -0.006918  0.127998  0.008165  3.931778  0.007
C  C74  1  0.32576311  0.47609121  0.08257042  1  -0.035507  0.014379  -0.162617  -0.359823  0.007323  3.904355  0.011
C  C75  1  0.23888318  0.54781702  0.99705811  1  1.535851  0.000107  0.227513  0.662266  -0.001318  4.074492  0.0
N  N76  1  0.84051884  0.72668772  0.00845887  1  -1.226087  0.054392  -0.323392  -0.254773  0.028763  3.588434  0.049
N  N77  1  0.57600424  0.77361331  0.49113761  1  -1.203537  0.054184  -0.323435  -0.253564  0.028629  3.59076  0.048
N  N78  1  0.15948816  0.27330720  0.99153720  1  -1.226169  0.054383  -0.32344  -0.254802  0.028759  3.588579  0.049
N  N79  1  0.42398224  0.22640526  0.50884636  1  -1.203105  0.054187  -0.323342  -0.25351  0.02863  3.590763  0.048
O  O80  1  0.61803175  0.00038591  0.28093956  1  -1.158775  0.062157  -0.296742  -0.535299  0.031974  2.361293  0.055
O  O81  1  0.42520478  0.03186241  0.20947964  1  -1.155785  0.079941  -0.318648  -0.572252  0.040839  2.401617  0.063
O  O82  1  0.08415434  0.73221140  0.79154637  1  -1.15963  0.110156  -0.301894  -0.595906  0.056767  2.637333  0.102
O  O83  1  0.88997459  0.89849318  0.76986962  1  -1.170544  0.061534  -0.310941  -0.545436  0.03145  2.332105  0.047
O  O84  1  0.29812122  0.82699003  0.67966966  1  -1.085056  0.219976  -0.379752  -0.61095  0.11636  2.571409  0.189
O  O85  1  0.15424330  0.12716142  0.42489585  1  -1.167202  0.076508  -0.321048  -0.576481  0.039075  2.33474  0.061
O  O86  1  0.35430064  0.02429352  0.49597940  1  -1.171673  0.095191  -0.291996  -0.573793  0.051398  2.507484  0.082
O  O87  1  0.89935198  0.49951307  0.21899259  1  -1.157469  0.062566  -0.296615  -0.536043  0.032191  2.361697  0.056
O  O88  1  0.66625210  0.46859715  0.29010412  1  -1.148181  0.079726  -0.318515  -0.571539  0.040709  2.401398  0.063
O  O89  1  0.60783141  0.76778418  0.70849505  1  -1.153518  0.110058  -0.30125  -0.595057  0.056671  2.634702  0.102
O  O90  1  0.55830526  0.60154070  0.73011807  1  -1.166912  0.061712  -0.310052  -0.543985  0.031533  2.334274  0.047
O  O91  1  0.80489924  0.67295043  0.82020518  1  -1.084484  0.22022  -0.38146  -0.613986  0.116532  2.571587  0.189
O  O92  1  0.70641610  0.37284874  0.07505942  1  -1.163979  0.076284  -0.320834  -0.575514  0.038992  2.333126  0.061
O  O93  1  0.87476692  0.47567045  0.00397071  1  -1.161177  0.094582  -0.291481  -0.574297  0.051459  2.511546  0.082
O  O94  1  0.38193613  0.99958449  0.71907643  1  -1.158044  0.062155  -0.296519  -0.534854  0.031973  2.361172  0.055
O  O95  1  0.57475980  0.96815090  0.79050551  1  -1.15586  0.079901  -0.318723  -0.572157  0.040818  2.40155  0.063
O  O96  1  0.91584539  0.26779669  0.20847301  1  -1.159328  0.110138  -0.301889  -0.595909  0.056757  2.637511  0.102
O  O97  1  0.11003422  0.10151836  0.23009697  1  -1.170468  0.0615  -0.310931  -0.54541  0.031432  2.331915  0.047
O  O98  1  0.70186831  0.17301539  0.32030910  1  -1.084491  0.220019  -0.379798  -0.611169  0.116394  2.570169  0.189
O  O99  1  0.84573372  0.87283436  0.57508193  1  -1.166603  0.076511  -0.321085  -0.576436  0.039077  2.335133  0.061
O  O100  1  0.64567130  0.97571543  0.50402182  1  -1.171398  0.095169  -0.291985  -0.573748  0.051391  2.507279  0.082
O  O101  1  0.10069201  0.50046871  0.78101050  1  -1.157391  0.062541  -0.296614  -0.536028  0.032175  2.361225  0.056
O  O102  1  0.33376210  0.53140743  0.70991210  1  -1.14852  0.079746  -0.318533  -0.571529  0.040722  2.402013  0.063
O  O103  1  0.39217435  0.23220023  0.29150084  1  -1.153744  0.11009  -0.301418  -0.595183  0.056687  2.63493  0.102
O  O104  1  0.44171319  0.39845244  0.26985756  1  -1.166984  0.061713  -0.310079  -0.543985  0.031539  2.334237  0.047
O  O105  1  0.19514748  0.32707341  0.17979394  1  -1.084355  0.22008  -0.381316  -0.613734  0.116469  2.572853  0.189
O  O106  1  0.29357309  0.62714706  0.92493701  1  -1.164161  0.076275  -0.320889  -0.575657  0.038989  2.332927  0.061
O  O107  1  0.12527131  0.52433412  0.99604535  1  -1.162386  0.094619  -0.291673  -0.574437  0.051465  2.511949  0.082
