# generated using pymatgen
data_AgH12C10N2O2F3
_symmetry_space_group_name_H-M   'P 1'
_cell_length_a   8.90998072
_cell_length_b   9.08989108
_cell_length_c   9.44522342
_cell_angle_alpha   117.17717503
_cell_angle_beta   115.99237792
_cell_angle_gamma   91.94175433
_symmetry_Int_Tables_number   1
_chemical_formula_structural   AgH12C10N2O2F3
_chemical_formula_sum   'Ag2 H24 C20 N4 O4 F6'
_cell_volume   584.89786087
_cell_formula_units_Z   2
loop_
 _symmetry_equiv_pos_site_id
 _symmetry_equiv_pos_as_xyz
  1  'x, y, z'
loop_
 _atom_site_type_symbol
 _atom_site_label
 _atom_site_symmetry_multiplicity
 _atom_site_fract_x
 _atom_site_fract_y
 _atom_site_fract_z
 _atom_site_occupancy
 _atom_site_pbe_bader_charge
 _atom_site_pbe_bader_spin_density
 _atom_site_pbe_cm5_charge
 _atom_site_pbe_ddec_charge
 _atom_site_pbe_ddec_spin_density
 _atom_site_pbe_ddec_sum_bond_order
 _atom_site_pbe_magmom
Ag  Ag0  1  0.39034610  0.88752072  0.73197348  1  0.612121  0  0.480222  0.433834  0  1.831923  0
Ag  Ag1  1  0.60965334  0.11248050  0.26802754  1  0.612163  0  0.480215  0.433821  0  1.831958  0
H  H2  1  0.07865624  0.45762730  0.20261975  1  0.077713  0  0.091728  0.137591  0  1.02746  0
H  H3  1  0.92134454  0.54237004  0.79738012  1  0.077737  0  0.091747  0.137625  0  1.027418  0
H  H4  1  0.16919087  0.67724258  0.38932182  1  0.057955  0  0.081729  0.116051  0  1.07278  0
H  H5  1  0.83080617  0.32275476  0.61067650  1  0.057982  0  0.081726  0.116059  0  1.072776  0
H  H6  1  0.21529969  0.60730271  0.20735053  1  0.103043  0  0.100514  0.17005  0  0.996711  0
H  H7  1  0.78469860  0.39269463  0.79264936  1  0.10301  0  0.100522  0.170077  0  0.996741  0
H  H8  1  0.86688757  0.76780875  0.92388360  1  0.053256  0  0.097674  0.145575  0  1.005141  0
H  H9  1  0.13311274  0.23219117  0.07611826  1  0.053246  0  0.097661  0.145559  0  1.005166  0
H  H10  1  0.71224323  0.88866629  0.89970097  1  0.065547  0  0.09037  0.128876  0  1.048728  0
H  H11  1  0.28775746  0.11133493  0.10029950  1  0.065506  0  0.090375  0.128885  0  1.048717  0
H  H12  1  0.69787989  0.74010336  0.96886022  1  0.093208  0  0.09736  0.15789  0  1.003008  0
H  H13  1  0.30211955  0.25989785  0.03114080  1  0.093217  0  0.097362  0.157891  0  1.00301  0
H  H14  1  0.29840306  0.98551835  0.36462960  1  0.119486  0  0.099287  0.158017  0  1.020458  0
H  H15  1  0.70159811  0.01448028  0.63536782  1  0.119545  0  0.099276  0.157965  0  1.020495  0
H  H16  1  0.42387027  0.06482245  0.60675804  1  0.051773  0  0.085829  0.126047  0  1.06518  0
H  H17  1  0.57613091  0.93517619  0.39323938  1  0.051774  0  0.085825  0.126038  0  1.065157  0
H  H18  1  0.34787883  0.20699880  0.52945340  1  0.060532  0  0.091496  0.141212  0  1.012931  0
H  H19  1  0.65212109  0.79299983  0.47054351  1  0.060528  0  0.091499  0.141201  0  1.012934  0
H  H20  1  0.91529103  0.72934578  0.62944930  1  0.068661  0  0.092548  0.141461  0  1.019221  0
H  H21  1  0.08470476  0.27065156  0.37054321  1  0.068675  0  0.092542  0.141471  0  1.019208  0
H  H22  1  0.13434837  0.86162980  0.80121396  1  0.069871  0  0.088646  0.127538  0  1.064451  0
H  H23  1  0.86564791  0.13836495  0.19878503  1  0.069978  0  0.088636  0.12756  0  1.064428  0
H  H24  1  0.95522189  0.93938561  0.81019453  1  0.049362  0  0.101643  0.152148  0  0.988468  0
H  H25  1  0.04477314  0.06060914  0.18980076  1  0.049361  0  0.101643  0.15213  0  0.988475  0
C  C26  1  0.67300877  0.26560702  0.00734284  1  1.649056  0  0.184779  0.412563  0  4.374751  0
C  C27  1  0.32699365  0.73439161  0.99266145  1  1.649358  0  0.184775  0.412554  0  4.374647  0
C  C28  1  0.72418254  0.45837694  0.16381817  1  1.673463  0  0.292601  0.570413  0  3.995709  0
C  C29  1  0.27581738  0.54162170  0.83618191  1  1.673239  0  0.292566  0.57032  0  3.995821  0
C  C30  1  0.35224750  0.53170343  0.40263636  1  0.495542  0  0.120562  0.217388  0  3.9269  0
C  C31  1  0.64775281  0.46829649  0.59736445  1  0.495548  0  0.120557  0.21739  0  3.9269  0
C  C32  1  0.61080258  0.62469526  0.68093329  1  0.506397  0  0.120674  0.216452  0  3.936797  0
C  C33  1  0.38919648  0.37530467  0.31906700  1  0.506374  0  0.120681  0.216479  0  3.936761  0
C  C34  1  0.19515707  0.56988863  0.29502309  1  -0.079825  0  -0.24696  -0.444441  0  3.928132  0
C  C35  1  0.80484122  0.43010871  0.70497680  1  -0.079848  0  -0.246982  -0.444512  0  3.928183  0
C  C36  1  0.72963310  0.76275691  0.87902052  1  -0.060498  0  -0.244272  -0.4523  0  3.935355  0
C  C37  1  0.27036759  0.23724431  0.12098101  1  -0.060445  0  -0.244257  -0.452287  0  3.935375  0
C  C38  1  0.15037417  0.03622409  0.50137531  1  0.496546  0  0.120584  0.220524  0  3.929143  0
C  C39  1  0.84962575  0.96377454  0.49862266  1  0.496552  0  0.120618  0.220572  0  3.929124  0
C  C40  1  0.00160140  0.93421406  0.60382184  1  0.515811  0  0.121722  0.217984  0  3.92885  0
C  C41  1  0.99840015  0.06578587  0.39617843  1  0.515785  0  0.121726  0.217998  0  3.928841  0
C  C42  1  0.31388155  0.07529775  0.50070202  1  -0.081155  0  -0.244599  -0.448117  0  3.92151  0
C  C43  1  0.68611962  0.92470089  0.49929646  1  -0.081183  0  -0.24463  -0.448087  0  3.921505  0
C  C44  1  0.00221019  0.86241110  0.71793787  1  -0.05788  0  -0.240129  -0.442116  0  3.930083  0
C  C45  1  0.99778723  0.13758753  0.28206118  1  -0.057997  0  -0.240124  -0.442143  0  3.930119  0
N  N46  1  0.46364550  0.65283696  0.58259112  1  -1.184692  0  -0.32196  -0.287092  0  3.509349  0
N  N47  1  0.53635317  0.34716167  0.41740950  1  -1.184648  0  -0.32196  -0.287106  0  3.50931  0
N  N48  1  0.14913051  0.97040989  0.60324420  1  -1.182728  0  -0.31776  -0.285598  0  3.481247  0
N  N49  1  0.85087104  0.02959003  0.39675606  1  -1.182757  0  -0.317726  -0.285573  0  3.481279  0
O  O50  1  0.57091848  0.16249112  0.00558735  1  -1.152484  0  -0.335961  -0.534386  0  2.445742  0
O  O51  1  0.42908269  0.83750751  0.99441642  1  -1.152653  0  -0.33591  -0.534303  0  2.445705  0
O  O52  1  0.73902420  0.23465641  0.90853620  1  -1.137752  0  -0.313052  -0.500231  0  2.191738  0
O  O53  1  0.26097735  0.76534352  0.09146830  1  -1.137812  0  -0.313101  -0.500283  0  2.191655  0
F  F54  1  0.58515148  0.50576815  0.17798709  1  -0.624624  0  -0.099923  -0.19801  0  1.365794  0
F  F55  1  0.41484507  0.49423177  0.82200793  1  -0.624567  0  -0.099906  -0.197983  0  1.365891  0
F  F56  1  0.84327655  0.48295160  0.33274665  1  -0.625378  0  -0.100878  -0.210871  0  1.348393  0
F  F57  1  0.15671828  0.51705091  0.66725832  1  -0.62536  0  -0.100856  -0.21084  0  1.348396  0
F  F58  1  0.79857627  0.57383581  0.14222355  1  -0.632381  0  -0.09448  -0.18847  0  1.355196  0
F  F59  1  0.20142577  0.42616153  0.85777895  1  -0.632255  0  -0.094493  -0.188458  0  1.355147  0
