# generated using pymatgen
data_CdH6C9O7
_symmetry_space_group_name_H-M   'P 1'
_cell_length_a   6.95499851
_cell_length_b   7.04335981
_cell_length_c   10.16460685
_cell_angle_alpha   83.72684714
_cell_angle_beta   86.44248709
_cell_angle_gamma   69.12584475
_symmetry_Int_Tables_number   1
_chemical_formula_structural   CdH6C9O7
_chemical_formula_sum   'Cd2 H12 C18 O14'
_cell_volume   462.31862234
_cell_formula_units_Z   2
loop_
 _symmetry_equiv_pos_site_id
 _symmetry_equiv_pos_as_xyz
  1  'x, y, z'
loop_
 _atom_site_type_symbol
 _atom_site_label
 _atom_site_symmetry_multiplicity
 _atom_site_fract_x
 _atom_site_fract_y
 _atom_site_fract_z
 _atom_site_occupancy
 _atom_site_hle17_bader_spin_density
 _atom_site_hle17_ddec_charge
 _atom_site_hle17_ddec_spin_density
 _atom_site_hle17_ddec_sum_bond_order
 _atom_site_hle17_magmom
 _atom_site_hse06_10hf_bader_spin_density
 _atom_site_hse06_10hf_ddec_charge
 _atom_site_hse06_10hf_ddec_spin_density
 _atom_site_hse06_10hf_ddec_sum_bond_order
 _atom_site_hse06_10hf_magmom
 _atom_site_hse06_bader_spin_density
 _atom_site_hse06_ddec_charge
 _atom_site_hse06_ddec_spin_density
 _atom_site_hse06_ddec_sum_bond_order
 _atom_site_hse06_magmom
 _atom_site_pbe_bader_spin_density
 _atom_site_pbe_cm5_charge
 _atom_site_pbe_ddec_charge
 _atom_site_pbe_ddec_spin_density
 _atom_site_pbe_ddec_sum_bond_order
 _atom_site_pbe_magmom
Cd  Cd0  1  0.23436142  0.73317496  0.45618700  1  0  1.313686  0  1.51235  0  0  1.140631  0  1.948262  0  0  1.202661  0  1.885041  0  0  0.799983  1.092596  0  1.994338  0
Cd  Cd1  1  0.76563838  0.26682539  0.54381278  1  0  1.313687  0  1.512344  0  0  1.140632  0  1.948256  0  0  1.202664  0  1.885035  0  0  0.799996  1.092601  0  1.994332  0
H  H2  1  0.13077264  0.42342357  0.33246598  1  0  0.443645  0  0.856555  0  0  0.408245  0  0.925582  0  0  0.420174  0  0.908607  0  0  0.296488  0.399739  0  0.937668  0
H  H3  1  0.86922662  0.57657831  0.66753272  1  0  0.443694  0  0.856509  0  0  0.408302  0  0.925518  0  0  0.420232  0  0.908543  0  0  0.296506  0.399795  0  0.937605  0
H  H4  1  0.38612347  0.33953547  0.34198183  1  0  0.45665  0  0.831366  0  0  0.421935  0  0.898648  0  0  0.433783  0  0.88162  0  0  0.303244  0.41349  0  0.91076  0
H  H5  1  0.61387579  0.66046641  0.65801686  1  0  0.45662  0  0.831416  0  0  0.421923  0  0.898665  0  0  0.43377  0  0.881638  0  0  0.303256  0.413477  0  0.910777  0
H  H6  1  0.26874748  0.58735359  0.19745377  1  0  0.409477  0  0.891526  0  0  0.378499  0  0.965374  0  0  0.390861  0  0.948749  0  0  0.301411  0.369873  0  0.973874  0
H  H7  1  0.73125232  0.41264676  0.80254502  1  0  0.409453  0  0.891578  0  0  0.378482  0  0.965415  0  0  0.390844  0  0.948777  0  0  0.301398  0.369855  0  0.973915  0
H  H8  1  0.28492791  0.78823787  0.87749265  1  0  0.112056  0  0.942062  0  0  0.121667  0  1.00424  0  0  0.125457  0  1.001314  0  0  0.110963  0.118777  0  1.006591  0
H  H9  1  0.71507243  0.21176095  0.12250623  1  0  0.112043  0  0.942108  0  0  0.121643  0  1.004292  0  0  0.125432  0  1.001368  0  0  0.110955  0.118757  0  1.006643  0
H  H10  1  0.20748571  0.26102574  0.13158710  1  0  0.108146  0  0.952032  0  0  0.11521  0  1.01763  0  0  0.119497  0  1.013976  0  0  0.108255  0.111989  0  1.020446  0
H  H11  1  0.79251714  0.73897005  0.86841585  1  0  0.108173  0  0.952061  0  0  0.115253  0  1.017639  0  0  0.119539  0  1.013985  0  0  0.108254  0.112034  0  1.020447  0
H  H12  1  0.20772414  0.50290598  0.93407111  1  0  0.10475  0  0.965614  0  0  0.112178  0  1.031972  0  0  0.115717  0  1.029893  0  0  0.103664  0.109508  0  1.033747  0
H  H13  1  0.79227710  0.49709438  0.06593155  1  0  0.104763  0  0.965631  0  0  0.112189  0  1.031984  0  0  0.115729  0  1.029905  0  0  0.103668  0.10952  0  1.03376  0
C  C14  1  0.23979491  0.28348945  0.79375817  1  0  -0.036827  0  3.686931  0  0  -0.025798  0  3.92372  0  0  -0.027094  0  3.94108  0  0  -0.001505  -0.025187  0  3.912407  0
C  C15  1  0.76020183  0.71651548  0.20624040  1  0  -0.036737  0  3.686846  0  0  -0.025701  0  3.92366  0  0  -0.026995  0  3.941018  0  0  -0.001502  -0.02509  0  3.912349  0
C  C16  1  0.26202838  0.08040519  0.77832750  1  0  -0.074505  0  3.717422  0  0  -0.058555  0  3.955936  0  0  -0.065484  0  3.975708  0  0  -0.010427  -0.053932  0  3.942581  0
C  C17  1  0.73797394  0.91959212  0.22167339  1  0  -0.074646  0  3.717506  0  0  -0.058703  0  3.956059  0  0  -0.065633  0  3.975828  0  0  -0.010471  -0.054082  0  3.942709  0
C  C18  1  0.26821997  0.94472291  0.89016560  1  0  -0.058869  0  3.685642  0  0  -0.09745  0  3.939495  0  0  -0.09484  0  3.957628  0  0  -0.072735  -0.098759  0  3.927449  0
C  C19  1  0.73178073  0.05527896  0.10983303  1  0  -0.058822  0  3.685582  0  0  -0.097383  0  3.939425  0  0  -0.094773  0  3.957559  0  0  -0.072714  -0.098695  0  3.927384  0
C  C20  1  0.24664042  0.01002324  0.01731908  1  0  -0.087401  0  3.788455  0  0  -0.064211  0  4.025998  0  0  -0.074441  0  4.051194  0  0  -0.019176  -0.057575  0  4.009269  0
C  C21  1  0.75335955  0.98997254  0.98268104  1  0  -0.087374  0  3.788398  0  0  -0.064186  0  4.02591  0  0  -0.074419  0  4.051109  0  0  -0.019147  -0.057551  0  4.009184  0
C  C22  1  0.22417592  0.21195233  0.03227538  1  0  -0.036491  0  3.693281  0  0  -0.064203  0  3.947545  0  0  -0.06181  0  3.965251  0  0  -0.07321  -0.065626  0  3.935717  0
C  C23  1  0.77582441  0.78804651  0.96772646  1  0  -0.036536  0  3.693338  0  0  -0.064267  0  3.94759  0  0  -0.061874  0  3.965298  0  0  -0.073209  -0.065686  0  3.935759  0
C  C24  1  0.22232635  0.34692531  0.92115875  1  0  -0.081691  0  3.70912  0  0  -0.105186  0  3.966674  0  0  -0.108197  0  3.985387  0  0  -0.083858  -0.103297  0  3.95438  0
C  C25  1  0.77767399  0.65307353  0.07884210  1  0  -0.081733  0  3.709144  0  0  -0.105213  0  3.966699  0  0  -0.108225  0  3.985407  0  0  -0.083877  -0.103323  0  3.954405  0
C  C26  1  0.24486680  0.43080978  0.67629383  1  0  0.67491  0  3.885799  0  0  0.618069  0  4.185323  0  0  0.653288  0  4.176945  0  0  0.214583  0.593946  0  4.190059  0
C  C27  1  0.75513192  0.56919364  0.32370772  1  0  0.674894  0  3.885648  0  0  0.617984  0  4.185292  0  0  0.653199  0  4.176917  0  0  0.214509  0.593861  0  4.190028  0
C  C28  1  0.25694243  0.00898971  0.64564203  1  0  0.691304  0  3.870761  0  0  0.634368  0  4.16817  0  0  0.670551  0  4.159384  0  0  0.21739  0.609531  0  4.173082  0
C  C29  1  0.74305719  0.99101522  0.35435740  1  0  0.691423  0  3.870737  0  0  0.634466  0  4.168185  0  0  0.67065  0  4.159397  0  0  0.21741  0.609629  0  4.173098  0
C  C30  1  0.24680693  0.86825063  0.13665401  1  0  0.662456  0  3.817641  0  0  0.608732  0  4.116543  0  0  0.642792  0  4.110238  0  0  0.233908  0.585426  0  4.120172  0
C  C31  1  0.75319539  0.13174666  0.86334392  1  0  0.662453  0  3.817523  0  0  0.60878  0  4.116363  0  0  0.642842  0  4.110056  0  0  0.23394  0.585471  0  4.119998  0
O  O32  1  0.40611353  0.39508984  0.60440440  1  0  -0.659753  0  2.085116  0  0  -0.594004  0  2.347195  0  0  -0.626009  0  2.337113  0  0  -0.317519  -0.570747  0  2.35318  0
O  O33  1  0.59388446  0.60490747  0.39559667  1  0  -0.659709  0  2.085014  0  0  -0.593953  0  2.347166  0  0  -0.625957  0  2.337087  0  0  -0.317474  -0.570693  0  2.353146  0
O  O34  1  0.08748595  0.59286337  0.65399647  1  0  -0.634552  0  2.012004  0  0  -0.566496  0  2.246106  0  0  -0.596318  0  2.235148  0  0  -0.308315  -0.544873  0  2.252518  0
O  O35  1  0.91250845  0.40714005  0.34600329  1  0  -0.634546  0  2.012054  0  0  -0.566446  0  2.246167  0  0  -0.596265  0  2.235209  0  0  -0.308264  -0.544832  0  2.252601  0
O  O36  1  0.12472882  0.12014092  0.56303037  1  0  -0.662327  0  2.017593  0  0  -0.598831  0  2.276693  0  0  -0.628681  0  2.26347  0  0  -0.322142  -0.576488  0  2.285389  0
O  O37  1  0.87527729  0.87985789  0.43696925  1  0  -0.662414  0  2.017599  0  0  -0.598882  0  2.276667  0  0  -0.628734  0  2.263443  0  0  -0.322138  -0.576538  0  2.285364  0
O  O38  1  0.22431602  0.92632184  0.25011877  1  0  -0.588124  0  2.016334  0  0  -0.532383  0  2.264282  0  0  -0.558311  0  2.254111  0  0  -0.290429  -0.513725  0  2.271365  0
O  O39  1  0.77568486  0.07367546  0.74988120  1  0  -0.588081  0  2.016287  0  0  -0.532376  0  2.264225  0  0  -0.558304  0  2.254054  0  0  -0.290448  -0.513718  0  2.271308  0
O  O40  1  0.25927464  0.46206271  0.32211252  1  0  -0.853144  0  1.945348  0  0  -0.781633  0  2.147211  0  0  -0.80744  0  2.111476  0  0  -0.558256  -0.763185  0  2.171594  0
O  O41  1  0.74072660  0.53793764  0.67788621  1  0  -0.853165  0  1.945346  0  0  -0.781678  0  2.147221  0  0  -0.807483  0  2.111485  0  0  -0.558285  -0.763236  0  2.171617  0
O  O42  1  0.38011509  0.83066749  0.62265087  1  0  -0.649943  0  2.051871  0  0  -0.573958  0  2.29021  0  0  -0.605293  0  2.278783  0  0  -0.309113  -0.551475  0  2.297476  0
O  O43  1  0.61988668  0.16933135  0.37734992  1  0  -0.64996  0  2.051973  0  0  -0.573964  0  2.290327  0  0  -0.605299  0  2.278899  0  0  -0.309105  -0.551482  0  2.297593  0
O  O44  1  0.27156435  0.68112439  0.11078359  1  0  -0.553462  0  2.113529  0  0  -0.496848  0  2.33373  0  0  -0.520885  0  2.319836  0  0  -0.323222  -0.480024  0  2.340599  0
O  O45  1  0.72843635  0.31887748  0.88921405  1  0  -0.553472  0  2.113493  0  0  -0.49688  0  2.333669  0  0  -0.520919  0  2.319765  0  0  -0.323239  -0.480055  0  2.340541  0
