# generated using pymatgen
data_CoH19C21Br2(NO3)2
_symmetry_space_group_name_H-M   'P 1'
_cell_length_a   9.96390297
_cell_length_b   10.80253006
_cell_length_c   11.43465638
_cell_angle_alpha   88.34732936
_cell_angle_beta   73.21159839
_cell_angle_gamma   70.36502646
_symmetry_Int_Tables_number   1
_chemical_formula_structural   CoH19C21Br2(NO3)2
_chemical_formula_sum   'Co2 H38 C42 Br4 N4 O12'
_cell_volume   1106.61883143
_cell_formula_units_Z   2
loop_
 _symmetry_equiv_pos_site_id
 _symmetry_equiv_pos_as_xyz
  1  'x, y, z'
loop_
 _atom_site_type_symbol
 _atom_site_label
 _atom_site_symmetry_multiplicity
 _atom_site_fract_x
 _atom_site_fract_y
 _atom_site_fract_z
 _atom_site_occupancy
 _atom_site_pbe_bader_charge
 _atom_site_pbe_bader_spin_density
 _atom_site_pbe_cm5_charge
 _atom_site_pbe_ddec_charge
 _atom_site_pbe_ddec_spin_density
 _atom_site_pbe_ddec_sum_bond_order
 _atom_site_pbe_magmom
Co  Co0  1  0.19558498  0.30970901  0.45442179  1  1.176283  -0.905391  0.611916  0.784578  -1.020368  2.736172  -0.899
Co  Co1  1  0.80739319  0.68646613  0.54277423  1  1.29687  2.600276  0.654612  0.952688  2.858398  2.371511  2.583
H  H2  1  0.04549353  0.25014108  0.35611910  1  0.650718  6.5e-05  0.288694  0.369877  8e-05  0.97889  0.0
H  H3  1  0.96622304  0.75060302  0.64062676  1  0.651834  3.7e-05  0.284457  0.371671  0.000323  0.977723  0.001
H  H4  1  0.95631653  0.39656090  0.42752446  1  0.648641  4e-06  0.294568  0.372489  -0.000201  0.977771  0.0
H  H5  1  0.05187101  0.60166668  0.57673035  1  0.630636  -0.000212  0.287856  0.370894  0.000343  0.986973  0.0
H  H6  1  0.31321174  0.58692758  0.18570545  1  0.058753  -5e-05  0.091305  0.086721  -3.1e-05  1.042045  0.0
H  H7  1  0.69579630  0.41024712  0.81167866  1  0.081726  0.000101  0.090849  0.087692  4.4e-05  1.043126  0.0
H  H8  1  0.33519609  0.72176776  0.00928963  1  0.051375  2.8e-05  0.083126  0.077087  5e-06  1.080523  0.0
H  H9  1  0.67036936  0.27575201  0.98996335  1  0.053191  -2.3e-05  0.08399  0.0764  5e-06  1.079648  0.0
H  H10  1  0.87766385  0.78519386  0.02935057  1  0.075904  -2.3e-05  0.093389  0.094716  -2.7e-05  1.03657  0.0
H  H11  1  0.12595687  0.21355433  0.97538743  1  0.095027  0.00016  0.092156  0.093263  8.6e-05  1.044802  0.0
H  H12  1  0.85572058  0.65142115  0.20942776  1  0.061378  -4.4e-05  0.101336  0.103529  -8.4e-05  1.016072  0.0
H  H13  1  0.15063987  0.34778300  0.79371697  1  0.096306  5.8e-05  0.101211  0.103192  6.8e-05  1.019665  0.0
H  H14  1  0.00384691  0.88720931  0.88212534  1  0.096827  1.8e-05  0.100986  0.107648  -2e-06  1.034859  0.0
H  H15  1  0.99689024  0.11271690  0.11997917  1  0.089616  1.8e-05  0.102923  0.108314  3.5e-05  1.037544  0.0
H  H16  1  0.33180244  0.85173305  0.85779060  1  0.036711  -3.5e-05  0.0967  0.100652  -6.4e-05  1.013957  0.0
H  H17  1  0.66906220  0.15257940  0.13855815  1  0.079822  -7e-06  0.098437  0.104022  2.2e-05  1.013682  0.0
H  H18  1  0.42758947  0.14219445  0.55695764  1  0.130805  -8.1e-05  0.112465  0.08178  1.9e-05  1.054899  0.0
H  H19  1  0.57344506  0.86337806  0.44281313  1  0.125696  0.001605  0.109631  0.077152  0.000497  1.046178  0.001
H  H20  1  0.44601674  0.97260161  0.70709339  1  0.108021  0.00012  0.096911  0.112976  -1.2e-05  1.055884  0.0
H  H21  1  0.55338947  0.03213882  0.28904365  1  0.120977  0.00061  0.097405  0.115594  0.000237  1.059271  0.0
H  H22  1  0.99523351  0.00193808  0.72910440  1  0.11565  4.5e-05  0.103857  0.116762  -1.4e-05  1.034117  0.0
H  H23  1  0.00216397  0.00900004  0.26910645  1  0.124817  0.000665  0.103359  0.115389  0.000289  1.038626  0.0
H  H24  1  0.99757000  0.16693421  0.57677362  1  0.143645  -6.6e-05  0.116923  0.101909  2.7e-05  1.022722  0.0
H  H25  1  0.00053643  0.84424295  0.42412436  1  0.116314  0.001411  0.114467  0.097241  0.000381  1.016645  0.001
H  H26  1  0.42857950  0.40596233  0.30241871  1  0.132601  0.000101  0.130961  0.06457  0.000114  1.019705  0.0
H  H27  1  0.56190923  0.58802327  0.69891100  1  0.108444  0.00166  0.126091  0.058436  0.000439  1.010372  0.001
H  H28  1  0.62368409  0.46708861  0.22396634  1  0.076436  -1.4e-05  0.103769  0.113235  -1e-05  1.018147  0.0
H  H29  1  0.36493417  0.53097165  0.77884372  1  0.081846  0.000178  0.100958  0.108183  7.7e-05  1.023691  0.0
H  H30  1  0.79169410  0.36112869  0.24993282  1  0.095493  -6e-06  0.105996  0.132732  -2.3e-05  0.991817  0.0
H  H31  1  0.19715948  0.63919126  0.75401762  1  0.084732  0.000241  0.105027  0.131123  0.000123  0.993524  0.0
H  H32  1  0.69295317  0.51681891  0.33644873  1  0.113187  0.000158  0.106436  0.132101  -4.4e-05  1.012152  0.0
H  H33  1  0.29145610  0.48328301  0.66830950  1  0.102207  -0.000126  0.106081  0.132588  3.1e-05  1.017161  0.0
H  H34  1  0.56712348  0.30067173  0.56061186  1  0.090119  -4e-05  0.101007  0.117457  -1.8e-05  1.044549  0.0
H  H35  1  0.42584881  0.69767416  0.44312440  1  0.080375  0.000582  0.098958  0.113656  0.000237  1.047963  0.0
H  H36  1  0.70012776  0.38475693  0.51837996  1  0.074317  -7.8e-05  0.110448  0.135832  -0.000107  0.997171  0.0
H  H37  1  0.29197754  0.61395669  0.48138955  1  0.092201  0.000384  0.108062  0.133137  0.0002  1.003741  0.0
H  H38  1  0.74707836  0.22269895  0.45263518  1  0.082637  5.6e-05  0.103507  0.125444  2.1e-05  0.997893  0.0
H  H39  1  0.24398543  0.77479715  0.54874288  1  0.076381  0.000138  0.102915  0.125585  8.2e-05  0.997345  0.0
C  C40  1  0.06393129  0.53148855  0.31952688  1  1.508072  0.015745  0.221453  0.580491  0.009888  4.105043  0.012
C  C41  1  0.94226700  0.46274006  0.68141969  1  1.517058  -0.022518  0.211524  0.575828  -0.013755  4.155658  -0.018
C  C42  1  0.08234492  0.61033308  0.21059281  1  -0.071816  0.003144  -0.022452  -0.044774  0.001613  3.971428  0.001
C  C43  1  0.92516949  0.38648412  0.79152224  1  0.027763  0.003377  -0.023334  -0.040484  0.00182  3.982084  0.004
C  C44  1  0.21763128  0.63005849  0.15121586  1  0.00019  0.001998  -0.097245  -0.104142  0.001024  4.030361  0.001
C  C45  1  0.78920538  0.36727196  0.84871906  1  -0.108971  -0.004464  -0.097787  -0.105877  -0.00229  4.039115  -0.003
C  C46  1  0.22948173  0.70663335  0.05154938  1  -0.035095  0.002181  -0.098507  -0.13844  0.001106  3.976531  0.001
C  C47  1  0.77575990  0.29171082  0.94844311  1  0.025354  -2.2e-05  -0.099311  -0.13721  -3.7e-05  3.986092  0.0
C  C48  1  0.10685187  0.76612404  0.00614191  1  -0.059203  0.002561  -0.007342  0.116114  0.001282  4.006454  0.001
C  C49  1  0.89789870  0.23359660  0.99438872  1  -0.1004  -0.00546  -0.011806  0.111877  -0.002853  4.030147  -0.003
C  C50  1  0.97300753  0.74233574  0.06423135  1  -0.019504  0.002055  -0.087264  -0.121407  0.00106  3.945528  0.001
C  C51  1  0.03226678  0.25683411  0.93869985  1  -0.040531  -0.000279  -0.08802  -0.122746  -0.000162  3.960414  0.0
C  C52  1  0.96060820  0.66684371  0.16449235  1  0.036274  0.002693  -0.084977  -0.085701  0.001336  3.979824  0.002
C  C53  1  0.04598711  0.33196304  0.83853735  1  -0.036985  -0.004446  -0.085856  -0.087785  -0.002321  3.985599  -0.002
C  C54  1  0.10916841  0.85091942  0.90469303  1  -0.097107  0.011177  -0.080754  -0.110883  0.005783  3.946025  0.007
C  C55  1  0.89298277  0.15005725  0.09553903  1  -0.016079  -0.0066  -0.081267  -0.109058  -0.003523  3.972089  -0.004
C  C56  1  0.22496961  0.88696998  0.83750513  1  0.02966  -0.000623  -0.090757  -0.129414  -0.000291  3.93973  -0.001
C  C57  1  0.77465458  0.11703039  0.16071622  1  -0.083093  -0.002405  -0.094483  -0.139454  -0.001325  3.964379  -0.001
C  C58  1  0.33417647  0.10867197  0.59753674  1  0.401924  0.010898  0.034529  0.071835  0.00569  3.946092  0.007
C  C59  1  0.66548254  0.89869487  0.40135988  1  0.403647  -0.006417  0.038539  0.089792  -0.002838  3.975766  -0.004
C  C60  1  0.34234142  0.01506104  0.68329869  1  0.003087  -0.001835  -0.089423  -0.179764  -0.000887  3.928061  -0.002
C  C61  1  0.65607143  0.99085535  0.31452059  1  -0.05855  0.004431  -0.093217  -0.18628  0.002276  3.9279  0.004
C  C62  1  0.21917558  0.97528418  0.73916539  1  -0.061758  0.012485  0.001277  0.145592  0.006373  4.01908  0.008
C  C63  1  0.77911416  0.03065212  0.25969859  1  0.023629  -0.0088  0.001998  0.149003  -0.004661  4.034001  -0.005
C  C64  1  0.09456138  0.02951832  0.69514675  1  -0.038069  -0.001461  -0.086422  -0.176566  -0.000732  3.936835  -0.001
C  C65  1  0.90404903  0.97987797  0.30374438  1  -0.063704  0.003701  -0.088001  -0.180839  0.001926  3.937807  0.003
C  C66  1  0.09437702  0.12214012  0.60897044  1  0.404523  0.008232  0.033216  0.06853  0.004277  3.936566  0.005
C  C67  1  0.90436812  0.88851379  0.39073769  1  0.425409  -0.004242  0.034663  0.083662  -0.002056  3.974955  -0.002
C  C68  1  0.27339662  0.14852189  0.21829458  1  1.64575  0.000965  0.197637  0.567281  -6e-06  4.284522  0.002
C  C69  1  0.72953525  0.84972903  0.77871000  1  1.631739  -0.002872  0.197406  0.574306  -0.001095  4.284983  -0.002
C  C70  1  0.38812775  0.07128595  0.10254187  1  0.117386  -0.002757  -0.022505  -0.09581  -0.001664  3.979403  -0.002
C  C71  1  0.61150309  0.92659578  0.89331428  1  0.116072  -4.4e-05  -0.022252  -0.094843  4.2e-05  3.97711  0.001
C  C72  1  0.43821712  0.13631533  0.00016173  1  -0.050062  -0.0044  -0.024132  0.019916  -0.002301  3.964517  -0.003
C  C73  1  0.56150284  0.86155135  0.99573928  1  -0.05408  0.002996  -0.024088  0.020412  0.001493  3.964326  0.002
C  C74  1  0.54916635  0.06399463  0.89621326  1  -0.109754  0.003163  -0.020981  0.029594  0.001574  3.961046  0.002
C  C75  1  0.45069820  0.93387218  0.09981690  1  -0.122566  -0.004397  -0.021309  0.027775  -0.002282  3.962982  -0.003
C  C76  1  0.46360581  0.36738874  0.38286812  1  1.34412  0.004336  0.180863  0.286886  0.002624  4.021378  0.003
C  C77  1  0.52689747  0.62742200  0.61844454  1  1.377067  -0.004637  0.178774  0.297403  -0.002252  4.065344  -0.003
C  C78  1  0.68055217  0.43298469  0.29394971  1  0.196514  -0.000102  -0.132648  -0.282898  -4.4e-05  3.884808  0.0
C  C79  1  0.30722719  0.56598805  0.70948224  1  0.215591  0.001296  -0.134663  -0.282613  0.000739  3.889355  0.001
C  C80  1  0.65556413  0.31692780  0.48588011  1  0.23874  -0.000114  -0.138339  -0.277534  -5.7e-05  3.858721  0.0
C  C81  1  0.33589839  0.68089128  0.51589234  1  0.219518  0.001512  -0.14022  -0.274959  0.000891  3.867834  0.001
Br  Br82  1  0.35493313  0.32349193  0.00826942  1  -0.002519  -0.00097  0.08258  0.005737  -0.000617  1.619566  -0.001
Br  Br83  1  0.64737712  0.67458698  0.98818367  1  -0.022607  0.000355  0.082637  0.007058  0.000158  1.615117  0.0
Br  Br84  1  0.61755707  0.14846803  0.75470036  1  -0.031788  0.000335  0.084661  0.002634  0.000148  1.616974  0.0
Br  Br85  1  0.38476837  0.84974862  0.24241040  1  -0.031039  -0.000935  0.083558  0.002912  -0.00059  1.611399  -0.001
N  N86  1  0.21078618  0.16596740  0.56112695  1  -1.153835  0.008365  -0.33477  -0.201681  0.003321  3.597344  0.005
N  N87  1  0.78859854  0.84494282  0.43787642  1  -1.216709  0.059103  -0.343241  -0.274675  0.03326  3.603492  0.048
N  N88  1  0.59405128  0.37211502  0.38721341  1  -1.215561  0.002257  -0.275655  0.042094  0.001103  3.719117  0.002
N  N89  1  0.39506356  0.62476062  0.61537375  1  -1.212297  -0.000601  -0.280531  0.036337  -0.000414  3.722747  -0.001
O  O90  1  0.18128190  0.45511786  0.34345936  1  -1.115925  0.01999  -0.296124  -0.509063  0.009219  2.406336  0.017
O  O91  1  0.82444887  0.53044268  0.65437815  1  -1.161072  0.038969  -0.315604  -0.564192  0.022424  2.370834  0.034
O  O92  1  0.93027396  0.54131286  0.38250763  1  -1.187009  0.030851  -0.314109  -0.587711  0.017087  2.360582  0.021
O  O93  1  0.07494628  0.45738267  0.62049444  1  -1.183801  -0.017054  -0.313495  -0.578768  -0.009568  2.354927  -0.006
O  O94  1  0.32870506  0.18344483  0.29281377  1  -1.134019  -0.053939  -0.295335  -0.533995  -0.030095  2.374965  -0.048
O  O95  1  0.67795821  0.80908647  0.70410591  1  -1.14873  0.057037  -0.305194  -0.559178  0.031319  2.375234  0.051
O  O96  1  0.13728439  0.16923562  0.22977627  1  -1.171874  0.000377  -0.30953  -0.534387  0.000324  2.195302  0.0
O  O97  1  0.86343371  0.83525675  0.76904336  1  -1.158377  -0.001027  -0.307976  -0.535422  -0.000788  2.189823  -0.001
O  O98  1  0.38120063  0.32360545  0.46696292  1  -1.108188  0.002988  -0.278941  -0.399921  0.000705  2.512745  0.002
O  O99  1  0.60959911  0.66977739  0.53439695  1  -1.157092  0.058129  -0.294249  -0.454139  0.032128  2.453339  0.048
O  O100  1  0.00773339  0.30107053  0.44026636  1  -1.216307  0.006552  -0.555027  -0.706146  0.002527  2.285991  0.006
O  O101  1  0.00670686  0.69657034  0.55930540  1  -1.261528  0.076642  -0.579917  -0.772619  0.041792  2.208791  0.063
