# generated using pymatgen
data_CoH36C32(N2O3)2
_symmetry_space_group_name_H-M   'P 1'
_cell_length_a   8.13256616
_cell_length_b   8.98270359
_cell_length_c   11.22931023
_cell_angle_alpha   84.15355707
_cell_angle_beta   89.52668128
_cell_angle_gamma   64.66424536
_symmetry_Int_Tables_number   1
_chemical_formula_structural   CoH36C32(N2O3)2
_chemical_formula_sum   'Co1 H36 C32 N4 O6'
_cell_volume   736.99955382
_cell_formula_units_Z   1
loop_
 _symmetry_equiv_pos_site_id
 _symmetry_equiv_pos_as_xyz
  1  'x, y, z'
loop_
 _atom_site_type_symbol
 _atom_site_label
 _atom_site_symmetry_multiplicity
 _atom_site_fract_x
 _atom_site_fract_y
 _atom_site_fract_z
 _atom_site_occupancy
 _atom_site_hse06_10hf_ddec_charge
 _atom_site_hse06_10hf_ddec_spin_density
 _atom_site_hse06_10hf_ddec_sum_bond_order
 _atom_site_hse06_10hf_magmom
 _atom_site_hse06_ddec_charge
 _atom_site_hse06_ddec_spin_density
 _atom_site_hse06_ddec_sum_bond_order
 _atom_site_hse06_magmom
 _atom_site_pbe_cm5_charge
 _atom_site_pbe_ddec_charge
 _atom_site_pbe_ddec_spin_density
 _atom_site_pbe_ddec_sum_bond_order
 _atom_site_pbe_magmom
Co  Co0  1  0.00000106  0.00000109  0.99999912  1  0.756955  -1.033542  2.786386  -0.967  0.836752  -1.020064  2.707349  -0.962  0.633353  0.717364  -1.035865  2.831297  -0.96
H  H1  1  0.23012728  0.09958186  0.07296860  1  0.362535  0.000135  0.991231  0.0  0.373649  0.00023  0.975021  0.0  0.280904  0.355038  2e-06  1.00213  0.0
H  H2  1  0.76987252  0.90041895  0.92703182  1  0.362575  0.000134  0.991166  0.0  0.373688  0.00023  0.974956  0.0  0.28092  0.355078  2e-06  1.002065  0.0
H  H3  1  0.23295098  0.13844532  0.92755815  1  0.334248  -0.000101  1.030892  0.0  0.345739  6.7e-05  1.014591  0.0  0.276403  0.326563  -0.000281  1.041801  0.0
H  H4  1  0.76705664  0.86154926  0.07244187  1  0.334292  -0.000101  1.030845  0.0  0.345783  6.7e-05  1.014543  0.0  0.276429  0.326606  -0.000282  1.041754  0.0
H  H5  1  0.31116140  0.83094960  0.16230121  1  0.085836  0.000472  1.048929  0.0  0.087399  0.000472  1.046346  0.0  0.118606  0.083937  0.000519  1.051497  0.0
H  H6  1  0.68884326  0.16904866  0.83769583  1  0.085806  0.000472  1.048941  0.0  0.087368  0.000472  1.046359  0.0  0.11859  0.083906  0.000519  1.05151  0.0
H  H7  1  0.51760194  0.54120226  0.23375940  1  0.102873  6.6e-05  1.046882  0.0  0.104746  3.4e-05  1.048931  0.0  0.099389  0.101216  7.2e-05  1.045991  0.0
H  H8  1  0.48239714  0.45879478  0.76623780  1  0.1029  6.6e-05  1.046856  0.0  0.104772  3.4e-05  1.048907  0.0  0.099396  0.101234  7.2e-05  1.045973  0.0
H  H9  1  0.23098771  0.38694009  0.98910191  1  0.113253  8.1e-05  1.044011  0.0  0.115925  6.6e-05  1.043957  0.0  0.104679  0.11095  -1.7e-05  1.044579  0.0
H  H10  1  0.76900970  0.61306309  0.01089207  1  0.113214  8.1e-05  1.044117  0.0  0.115873  6.6e-05  1.044081  0.0  0.104656  0.110928  -1.7e-05  1.044669  0.0
H  H11  1  0.03643281  0.68465438  0.92488189  1  0.079664  0.000488  1.058977  0.0  0.082032  0.000491  1.055798  0.0  0.115237  0.077707  0.000507  1.061519  0.0
H  H12  1  0.96356460  0.31534886  0.07511565  1  0.079716  0.000488  1.058961  0.0  0.082085  0.00049  1.055785  0.0  0.115261  0.077763  0.000507  1.06149  0.0
H  H13  1  0.42726405  0.21245109  0.22756637  1  0.139852  0.000477  1.015878  0.0  0.142644  0.000263  1.013704  0.0  0.092245  0.137538  0.000632  1.017854  0.001
H  H14  1  0.57273264  0.78754839  0.77242796  1  0.139864  0.000478  1.015851  0.0  0.142653  0.000262  1.013681  0.0  0.09226  0.13755  0.000632  1.017823  0.001
H  H15  1  0.62931575  0.24384110  0.21282073  1  0.135528  6.8e-05  1.012458  0.0  0.13806  6.8e-05  1.01157  0.0  0.089315  0.133511  6.1e-05  1.013525  0.0
H  H16  1  0.37068144  0.75615466  0.78717394  1  0.135545  6.8e-05  1.012449  0.0  0.138077  6.7e-05  1.011562  0.0  0.089328  0.133504  6.1e-05  1.013535  0.0
H  H17  1  0.54496140  0.17973819  0.09238571  1  0.165108  0.000166  1.001234  0.0  0.167836  9.6e-05  0.999689  0.0  0.099117  0.16258  0.000162  1.002936  0.0
H  H18  1  0.45503587  0.82026005  0.90760873  1  0.165151  0.000166  1.001244  0.0  0.167893  9.6e-05  0.999681  0.0  0.099158  0.162596  0.000162  1.002973  0.0
H  H19  1  0.17219175  0.05461120  0.65832254  1  0.107936  -2.7e-05  1.042919  0.0  0.110659  4.7e-05  1.042611  0.0  0.101425  0.105997  -5.4e-05  1.043204  0.0
H  H20  1  0.82779689  0.94538713  0.34167553  1  0.107897  -2.7e-05  1.042838  0.0  0.110625  4.8e-05  1.042537  0.0  0.101393  0.105959  -5.4e-05  1.043123  0.0
H  H21  1  0.77801792  0.88576363  0.55902430  1  0.100982  1e-06  1.02282  0.0  0.104537  -7e-06  1.020529  0.0  0.099213  0.098487  1.3e-05  1.024538  0.0
H  H22  1  0.22197616  0.11423097  0.44097407  1  0.100967  1e-06  1.022796  0.0  0.104522  -7e-06  1.020505  0.0  0.099201  0.09847  1.3e-05  1.024515  0.0
H  H23  1  0.48535093  0.06154273  0.76880595  1  0.091871  -6.2e-05  1.015727  0.0  0.094258  -4.4e-05  1.013745  0.0  0.117517  0.089813  -7.4e-05  1.017706  0.0
H  H24  1  0.51465917  0.93845176  0.23118961  1  0.091929  -6.2e-05  1.015697  0.0  0.094314  -4.4e-05  1.01372  0.0  0.117532  0.089867  -7.4e-05  1.01768  0.0
H  H25  1  0.53303118  0.18125457  0.56917203  1  0.113647  4e-06  1.024453  0.0  0.116331  2e-06  1.024988  0.0  0.102708  0.111676  9e-06  1.024246  0.0
H  H26  1  0.46697564  0.81875492  0.43083018  1  0.113647  4e-06  1.024468  0.0  0.116336  3e-06  1.024997  0.0  0.102703  0.111676  9e-06  1.024259  0.0
H  H27  1  0.03428857  0.61497776  0.60981964  1  0.116921  -2e-06  1.033137  0.0  0.119443  -1e-06  1.033776  0.0  0.103341  0.115001  0.0  1.033095  0.0
H  H28  1  0.96571737  0.38502326  0.39019406  1  0.11697  -2e-06  1.03307  0.0  0.119492  -1e-06  1.033709  0.0  0.103366  0.115051  0.0  1.033028  0.0
H  H29  1  0.00227525  0.47390741  0.80502443  1  0.076232  2.9e-05  1.027686  0.0  0.077812  1.4e-05  1.027321  0.0  0.109623  0.075386  5.1e-05  1.027501  0.0
H  H30  1  0.99772897  0.52607610  0.19497931  1  0.076178  2.9e-05  1.027767  0.0  0.077753  1.4e-05  1.027404  0.0  0.109639  0.075333  5.1e-05  1.027582  0.0
H  H31  1  0.21319987  0.47856160  0.38312496  1  0.138015  5e-06  1.020938  0.0  0.138494  3e-06  1.022263  0.0  0.096123  0.137589  7e-06  1.02021  0.0
H  H32  1  0.78679890  0.52144679  0.61688367  1  0.138117  6e-06  1.020901  0.0  0.138595  3e-06  1.022227  0.0  0.096151  0.137691  7e-06  1.020173  0.0
H  H33  1  0.44436483  0.42503362  0.41939867  1  0.134124  -7e-06  1.012169  0.0  0.135223  -4e-06  1.012445  0.0  0.093522  0.133333  -9e-06  1.011963  0.0
H  H34  1  0.55563228  0.57498090  0.58060585  1  0.134123  -7e-06  1.012133  0.0  0.135222  -4e-06  1.012409  0.0  0.093541  0.133333  -9e-06  1.011928  0.0
H  H35  1  0.26921498  0.61928751  0.45134440  1  0.139841  8e-06  0.998891  0.0  0.140797  1e-06  0.999873  0.0  0.095733  0.139063  1.2e-05  0.998337  0.0
H  H36  1  0.73078139  0.38072337  0.54866492  1  0.139865  8e-06  0.998953  0.0  0.140819  1e-06  0.999938  0.0  0.095751  0.139087  1.2e-05  0.998398  0.0
C  C37  1  0.29488677  0.72940440  0.12772701  1  0.098815  0.008565  3.928817  0.005  0.111978  0.005397  3.944171  0.003  0.041875  0.09056  0.009493  3.919728  0.005
C  C38  1  0.70511484  0.27059507  0.87226817  1  0.09888  0.008568  3.928821  0.005  0.112043  0.005399  3.944175  0.003  0.041893  0.090624  0.009495  3.919731  0.005
C  C39  1  0.41003795  0.56615928  0.16703446  1  -0.20468  -0.00062  3.983052  -0.002  -0.214168  -0.000545  4.002798  -0.001  -0.09106  -0.198465  -0.000317  3.970014  -0.002
C  C40  1  0.58996184  0.43384152  0.83296507  1  -0.204788  -0.00062  3.983222  -0.002  -0.214276  -0.000545  4.002965  -0.001  -0.091095  -0.198564  -0.000317  3.970186  -0.002
C  C41  1  0.38886292  0.43602121  0.12127392  1  0.222492  0.009053  3.976163  0.006  0.232463  0.005155  3.9948  0.003  0.008738  0.215728  0.011148  3.963156  0.007
C  C42  1  0.61113616  0.56397576  0.87871973  1  0.222581  0.009053  3.976126  0.006  0.232551  0.005156  3.994764  0.003  0.008761  0.215817  0.011148  3.963113  0.007
C  C43  1  0.25147121  0.48152296  0.03193695  1  -0.206683  -0.00076  3.965007  -0.002  -0.216267  -0.000619  3.984622  -0.001  -0.092337  -0.200226  -0.00047  3.952436  -0.002
C  C44  1  0.74852569  0.51848401  0.96806114  1  -0.206652  -0.00076  3.964795  -0.002  -0.216229  -0.000618  3.984419  -0.001  -0.092341  -0.20021  -0.00047  3.95222  -0.002
C  C45  1  0.14217971  0.64726596  0.99515974  1  0.079186  0.007254  3.948665  0.004  0.090965  0.004987  3.964587  0.003  0.037596  0.069529  0.008996  3.941972  0.005
C  C46  1  0.85781952  0.35273603  0.00483701  1  0.079094  0.007253  3.948605  0.004  0.090878  0.004988  3.964511  0.003  0.037583  0.069438  0.008996  3.941919  0.005
C  C47  1  0.50474169  0.25897500  0.16567534  1  -0.4349  0.000206  3.915443  0.0  -0.438912  8.7e-05  3.920715  0.0  -0.245127  -0.432034  0.000273  3.913005  0.0
C  C48  1  0.49525557  0.74102325  0.83431999  1  -0.435003  0.000206  3.915486  0.0  -0.439023  8.7e-05  3.920745  0.0  -0.245208  -0.432091  0.000274  3.913085  0.0
C  C49  1  0.93992781  0.93330395  0.75254684  1  0.566762  0.001139  4.213652  0.0  0.602533  -0.000126  4.207621  -0.002  0.204513  0.542626  0.001883  4.216598  0.001
C  C50  1  0.06006757  0.06669315  0.24745306  1  0.566772  0.001139  4.213583  0.0  0.602541  -0.000125  4.207555  -0.002  0.204457  0.542637  0.001883  4.21653  0.001
C  C51  1  0.97295628  0.96586880  0.62192725  1  -0.038546  -0.000146  3.987047  0.0  -0.045263  -0.000257  4.009281  0.0  -0.019429  -0.033837  -0.000177  3.971583  0.0
C  C52  1  0.02703903  0.03412579  0.37807111  1  -0.038504  -0.000146  3.987121  0.0  -0.045217  -0.000256  4.009354  0.0  -0.019346  -0.033797  -0.000177  3.971659  0.0
C  C53  1  0.09786537  0.03057469  0.58830971  1  -0.10143  0.000291  3.986256  0.0  -0.10178  0.000333  4.006595  0.0  -0.090543  -0.100904  0.000376  3.972228  0.0
C  C54  1  0.90212878  0.96942237  0.41168754  1  -0.101372  0.000291  3.986145  0.0  -0.101734  0.000331  4.006492  0.0  -0.090515  -0.100845  0.000376  3.97212  0.0
C  C55  1  0.87530912  0.93577726  0.53236059  1  -0.11836  9.5e-05  4.03011  0.0  -0.119652  -4e-06  4.050198  0.0  -0.093472  -0.117404  0.000159  4.016219  0.0
C  C56  1  0.12468554  0.06421614  0.46763967  1  -0.118429  9.4e-05  4.030237  0.0  -0.119723  -5e-06  4.050322  0.0  -0.093526  -0.117472  0.000159  4.016342  0.0
C  C57  1  0.38588797  0.18305604  0.72969969  1  0.096994  -4.7e-05  3.975098  0.0  0.10346  -3.3e-05  3.992165  0.0  0.048487  0.092995  -6.4e-05  3.963859  0.0
C  C58  1  0.61411849  0.81694100  0.27029922  1  0.096872  -4.7e-05  3.975066  0.0  0.103337  -3.3e-05  3.992138  0.0  0.048453  0.092877  -6.4e-05  3.963826  0.0
C  C59  1  0.41221563  0.25084765  0.61790371  1  -0.205952  2.6e-05  3.95135  0.0  -0.214672  2.3e-05  3.973643  0.0  -0.089019  -0.200228  3.6e-05  3.936212  0.0
C  C60  1  0.58779105  0.74915688  0.38209808  1  -0.205988  2.5e-05  3.951384  0.0  -0.214713  2.1e-05  3.973675  0.0  -0.089025  -0.200264  3.6e-05  3.936245  0.0
C  C61  1  0.28517966  0.40871508  0.57045482  1  0.210856  -2.5e-05  3.988023  0.0  0.216108  -8e-06  4.010311  0.0  0.009538  0.207524  -7.5e-05  3.972745  0.0
C  C62  1  0.71482281  0.59129322  0.42954933  1  0.210926  -2.5e-05  3.988045  0.0  0.216179  -7e-06  4.010333  0.0  0.009558  0.207595  -7.5e-05  3.972766  0.0
C  C63  1  0.13601444  0.49047548  0.64036102  1  -0.205725  3e-05  3.951221  0.0  -0.213926  1.4e-05  3.973144  0.0  -0.091263  -0.200557  5.8e-05  3.936882  0.0
C  C64  1  0.86399151  0.50952544  0.35964734  1  -0.205881  3e-05  3.95114  0.0  -0.214082  1.3e-05  3.973053  0.0  -0.091281  -0.200712  5.8e-05  3.936802  0.0
C  C65  1  0.11886076  0.41257238  0.75027971  1  0.094219  -1.9e-05  4.000141  0.0  0.100674  1e-06  4.01788  0.0  0.044768  0.090577  -5e-05  3.987411  0.0
C  C66  1  0.88114490  0.58741856  0.24972423  1  0.094466  -1.9e-05  3.999908  0.0  0.10093  0.0  4.017637  0.0  0.044862  0.090823  -5e-05  3.987182  0.0
C  C67  1  0.30559386  0.48676862  0.45029248  1  -0.43028  3e-06  3.954247  0.0  -0.432872  -3e-06  3.963622  0.0  -0.238764  -0.428273  9e-06  3.947658  0.0
C  C68  1  0.69440925  0.51324096  0.54971421  1  -0.430465  3e-06  3.954324  0.0  -0.433055  -4e-06  3.963695  0.0  -0.238869  -0.428462  9e-06  3.947736  0.0
N  N69  1  0.15974705  0.77177943  0.04387130  1  -0.201629  0.012495  3.645413  0.008  -0.232846  0.009092  3.665873  0.006  -0.346166  -0.185662  0.014051  3.634575  0.01
N  N70  1  0.84025275  0.22822138  0.95612912  1  -0.20161  0.012495  3.645413  0.008  -0.232829  0.009091  3.665876  0.006  -0.346159  -0.185644  0.014051  3.634577  0.01
N  N71  1  0.24134777  0.26135093  0.79544134  1  -0.250587  -7.7e-05  3.400922  0.0  -0.264339  -1.5e-05  3.41572  0.0  -0.307826  -0.241783  -0.000173  3.390955  0.0
N  N72  1  0.75866152  0.73863746  0.20455923  1  -0.250626  -7.7e-05  3.400742  0.0  -0.264378  -1.5e-05  3.415534  0.0  -0.307894  -0.241823  -0.000173  3.390777  0.0
O  O73  1  0.03158809  0.97074461  0.82656232  1  -0.538504  -0.001185  2.428373  -0.003  -0.577617  0.00206  2.421219  0.0  -0.299938  -0.512225  -0.002979  2.430959  -0.006
O  O74  1  0.96841236  0.02925743  0.17343797  1  -0.538458  -0.001185  2.428466  -0.003  -0.577571  0.002058  2.421317  0.0  -0.299903  -0.512187  -0.002978  2.431065  -0.006
O  O75  1  0.82455997  0.87564383  0.77864728  1  -0.58295  0.001261  2.17699  0.001  -0.608059  0.00124  2.167908  0.001  -0.325473  -0.565407  0.001305  2.182558  0.001
O  O76  1  0.17544041  0.12435576  0.22135413  1  -0.58301  0.001262  2.176799  0.001  -0.608118  0.001241  2.16772  0.001  -0.325493  -0.565464  0.001305  2.182368  0.001
O  O77  1  0.24217849  0.05270842  0.99499490  1  -0.766008  -0.022571  2.212828  -0.037  -0.791734  -0.018543  2.176885  -0.031  -0.576855  -0.746565  -0.027164  2.235119  -0.044
O  O78  1  0.75782673  0.94728869  0.00500758  1  -0.76607  -0.022571  2.212755  -0.037  -0.79179  -0.018544  2.1768  -0.031  -0.576883  -0.746626  -0.027163  2.235049  -0.044
