# generated using pymatgen
data_ZnH7C8N5O2
_symmetry_space_group_name_H-M   'P 1'
_cell_length_a   7.89914499
_cell_length_b   10.05992411
_cell_length_c   19.09608381
_cell_angle_alpha   90.00001921
_cell_angle_beta   90.00006261
_cell_angle_gamma   95.72731088
_symmetry_Int_Tables_number   1
_chemical_formula_structural   ZnH7C8N5O2
_chemical_formula_sum   'Zn4 H28 C32 N20 O8'
_cell_volume   1509.89144611
_cell_formula_units_Z   4
loop_
 _symmetry_equiv_pos_site_id
 _symmetry_equiv_pos_as_xyz
  1  'x, y, z'
loop_
 _atom_site_type_symbol
 _atom_site_label
 _atom_site_symmetry_multiplicity
 _atom_site_fract_x
 _atom_site_fract_y
 _atom_site_fract_z
 _atom_site_occupancy
 _atom_site_hle17_bader_spin_density
 _atom_site_hle17_ddec_charge
 _atom_site_hle17_ddec_spin_density
 _atom_site_hle17_ddec_sum_bond_order
 _atom_site_hle17_magmom
 _atom_site_hse06_10hf_bader_spin_density
 _atom_site_hse06_10hf_ddec_charge
 _atom_site_hse06_10hf_ddec_spin_density
 _atom_site_hse06_10hf_ddec_sum_bond_order
 _atom_site_hse06_10hf_magmom
 _atom_site_hse06_bader_spin_density
 _atom_site_hse06_ddec_charge
 _atom_site_hse06_ddec_spin_density
 _atom_site_hse06_ddec_sum_bond_order
 _atom_site_hse06_magmom
 _atom_site_pbe_bader_spin_density
 _atom_site_pbe_cm5_charge
 _atom_site_pbe_ddec_charge
 _atom_site_pbe_ddec_spin_density
 _atom_site_pbe_ddec_sum_bond_order
 _atom_site_pbe_magmom
Zn  Zn0  1  0.80459099  0.40756527  0.34022076  1  0  0.92828  0  1.933783  0  0  0.727414  0  2.412185  0  0  0.770916  0  2.364182  0  0  0.722258  0.697159  0  2.445259  0
Zn  Zn1  1  0.19540777  0.09243405  0.84021997  1  0  0.928293  0  1.933788  0  0  0.727416  0  2.412191  0  0  0.77092  0  2.364191  0  0  0.722268  0.69716  0  2.445266  0
Zn  Zn2  1  0.19540922  0.59243397  0.65977935  1  0  0.928301  0  1.933764  0  0  0.727424  0  2.412163  0  0  0.770926  0  2.364162  0  0  0.722266  0.697164  0  2.445239  0
Zn  Zn3  1  0.80459117  0.90756520  0.15977962  1  0  0.928256  0  1.933813  0  0  0.727393  0  2.412221  0  0  0.770896  0  2.364221  0  0  0.722249  0.697138  0  2.445289  0
H  H4  1  0.43471557  0.42841646  0.31853822  1  0  0.096888  0  0.925718  0  0  0.100974  0  0.993662  0  0  0.104935  0  0.989064  0  0  0.124279  0.098046  0  0.997032  0
H  H5  1  0.56528312  0.07158285  0.81853707  1  0  0.096853  0  0.925747  0  0  0.100956  0  0.993675  0  0  0.104917  0  0.989076  0  0  0.124263  0.09803  0  0.997032  0
H  H6  1  0.56528476  0.57158379  0.68146241  1  0  0.09686  0  0.92577  0  0  0.10098  0  0.993681  0  0  0.104942  0  0.989079  0  0  0.124264  0.098053  0  0.997049  0
H  H7  1  0.43471708  0.92841639  0.18146252  1  0  0.096842  0  0.925694  0  0  0.100949  0  0.993628  0  0  0.104909  0  0.989031  0  0  0.124263  0.098025  0  0.996986  0
H  H8  1  0.72240740  0.32329476  0.48820134  1  0  0.093631  0  0.918543  0  0  0.104601  0  0.973156  0  0  0.107517  0  0.970552  0  0  0.124387  0.102411  0  0.975126  0
H  H9  1  0.27759317  0.17670569  0.98820060  1  0  0.093662  0  0.918504  0  0  0.104612  0  0.973134  0  0  0.107529  0  0.97053  0  0  0.124392  0.102421  0  0.975108  0
H  H10  1  0.27759181  0.67670649  0.51179982  1  0  0.093628  0  0.91854  0  0  0.104596  0  0.973153  0  0  0.107512  0  0.970549  0  0  0.12439  0.102404  0  0.975121  0
H  H11  1  0.72240717  0.82329455  0.01179899  1  0  0.093618  0  0.918573  0  0  0.104594  0  0.973184  0  0  0.10751  0  0.97058  0  0  0.124386  0.102404  0  0.975154  0
H  H12  1  0.17847517  0.32797038  0.51297069  1  0  0.112169  0  0.919572  0  0  0.121567  0  0.978229  0  0  0.125248  0  0.974663  0  0  0.115973  0.118848  0  0.980814  0
H  H13  1  0.82152534  0.17202965  0.01296987  1  0  0.112152  0  0.919586  0  0  0.121548  0  0.978244  0  0  0.125228  0  0.974679  0  0  0.115973  0.118829  0  0.980835  0
H  H14  1  0.82152376  0.67202887  0.48702942  1  0  0.112157  0  0.919597  0  0  0.121563  0  0.978258  0  0  0.125244  0  0.974692  0  0  0.115967  0.118843  0  0.980842  0
H  H15  1  0.17847640  0.82797159  0.98702919  1  0  0.112171  0  0.919589  0  0  0.121579  0  0.978248  0  0  0.12526  0  0.974683  0  0  0.115966  0.118863  0  0.980838  0
H  H16  1  0.46058506  0.28978635  0.56512542  1  0  0.114476  0  0.96911  0  0  0.115755  0  1.038713  0  0  0.119911  0  1.036748  0  0  0.109396  0.112759  0  1.040295  0
H  H17  1  0.53941560  0.21021372  0.06512449  1  0  0.114506  0  0.969109  0  0  0.11577  0  1.038725  0  0  0.119926  0  1.036759  0  0  0.109408  0.112773  0  1.04031  0
H  H18  1  0.53941401  0.71021390  0.43487469  1  0  0.11451  0  0.969074  0  0  0.115788  0  1.038676  0  0  0.119946  0  1.036708  0  0  0.109407  0.11279  0  1.040251  0
H  H19  1  0.46058474  0.78978652  0.93487458  1  0  0.114472  0  0.969113  0  0  0.115746  0  1.038719  0  0  0.119902  0  1.036752  0  0  0.109398  0.112751  0  1.040304  0
H  H20  1  0.96026628  0.64565825  0.13744573  1  0  0.131828  0  0.954555  0  0  0.15019  0  1.014766  0  0  0.152177  0  1.014135  0  0  0.098255  0.148732  0  1.015234  0
H  H21  1  0.03973151  0.85434092  0.63744597  1  0  0.131843  0  0.954574  0  0  0.150207  0  1.014786  0  0  0.152194  0  1.014155  0  0  0.09825  0.148749  0  1.015255  0
H  H22  1  0.03973406  0.35434200  0.86255438  1  0  0.131839  0  0.954564  0  0  0.150197  0  1.014779  0  0  0.152184  0  1.014148  0  0  0.098249  0.148738  0  1.015249  0
H  H23  1  0.96026630  0.14565934  0.36255467  1  0  0.131832  0  0.954587  0  0  0.150195  0  1.014796  0  0  0.152182  0  1.014165  0  0  0.098251  0.148739  0  1.015261  0
H  H24  1  0.86471180  0.48421153  0.16295145  1  0  0.136425  0  0.946882  0  0  0.151805  0  1.011436  0  0  0.1537  0  1.010751  0  0  0.101144  0.150446  0  1.011922  0
H  H25  1  0.13528787  0.01578863  0.66295167  1  0  0.136462  0  0.946874  0  0  0.151851  0  1.011419  0  0  0.153747  0  1.010735  0  0  0.101161  0.150495  0  1.011903  0
H  H26  1  0.13528868  0.51578971  0.83704814  1  0  0.136447  0  0.946878  0  0  0.151829  0  1.011427  0  0  0.153725  0  1.010742  0  0  0.101149  0.150472  0  1.011913  0
H  H27  1  0.86471120  0.98421162  0.33704897  1  0  0.136433  0  0.946875  0  0  0.151812  0  1.011432  0  0  0.153707  0  1.010747  0  0  0.101149  0.150456  0  1.011915  0
H  H28  1  0.05396944  0.55246049  0.20499759  1  0  0.159876  0  0.922844  0  0  0.180797  0  0.97529  0  0  0.18336  0  0.973842  0  0  0.109865  0.178946  0  0.97637  0
H  H29  1  0.94602994  0.94753973  0.70499773  1  0  0.159927  0  0.922852  0  0  0.180851  0  0.975288  0  0  0.183413  0  0.97384  0  0  0.109881  0.178999  0  0.976366  0
H  H30  1  0.94602963  0.44753976  0.79500252  1  0  0.15995  0  0.922829  0  0  0.180872  0  0.975264  0  0  0.183434  0  0.973817  0  0  0.109894  0.17902  0  0.976345  0
H  H31  1  0.05396927  0.05246152  0.29500291  1  0  0.159867  0  0.9228  0  0  0.18079  0  0.975251  0  0  0.183352  0  0.973802  0  0  0.109855  0.178939  0  0.976329  0
C  C32  1  0.43733475  0.39704541  0.37316879  1  0  0.13387  0  3.653475  0  0  0.089433  0  3.904629  0  0  0.098491  0  3.921424  0  0  0.062201  0.083738  0  3.89314  0
C  C33  1  0.56266550  0.10295494  0.87316817  1  0  0.133921  0  3.653516  0  0  0.089486  0  3.904661  0  0  0.098543  0  3.921457  0  0  0.062242  0.083801  0  3.893169  0
C  C34  1  0.56266573  0.60295584  0.62683184  1  0  0.133932  0  3.653557  0  0  0.089469  0  3.904692  0  0  0.098526  0  3.921488  0  0  0.06224  0.083781  0  3.893212  0
C  C35  1  0.43733723  0.89704429  0.12683089  1  0  0.134015  0  3.653386  0  0  0.08956  0  3.904543  0  0  0.098617  0  3.921338  0  0  0.062269  0.08387  0  3.893049  0
C  C36  1  0.12338864  0.40438491  0.37555927  1  0  0.623895  0  3.955804  0  0  0.579238  0  4.240534  0  0  0.612714  0  4.23593  0  0  0.194826  0.556617  0  4.242885  0
C  C37  1  0.87660994  0.09561245  0.87555721  1  0  0.62396  0  3.955943  0  0  0.579306  0  4.240671  0  0  0.61278  0  4.236069  0  0  0.194847  0.556684  0  4.243031  0
C  C38  1  0.87661016  0.59561334  0.62444085  1  0  0.624003  0  3.955746  0  0  0.579333  0  4.240492  0  0  0.612809  0  4.235889  0  0  0.194889  0.556717  0  4.242843  0
C  C39  1  0.12339026  0.90438680  0.12444185  1  0  0.623981  0  3.95593  0  0  0.579308  0  4.240684  0  0  0.612783  0  4.236082  0  0  0.19484  0.556695  0  4.243026  0
C  C40  1  0.59578363  0.33727877  0.46848627  1  0  0.133355  0  3.682797  0  0  0.101855  0  3.929013  0  0  0.109689  0  3.947498  0  0  0.053562  0.096955  0  3.916323  0
C  C41  1  0.40421688  0.16272165  0.96848611  1  0  0.133344  0  3.682812  0  0  0.101864  0  3.929024  0  0  0.109697  0  3.94751  0  0  0.053555  0.096963  0  3.916335  0
C  C42  1  0.40421685  0.66272247  0.53151384  1  0  0.133401  0  3.68281  0  0  0.101902  0  3.929019  0  0  0.109736  0  3.947504  0  0  0.05357  0.097004  0  3.916323  0
C  C43  1  0.59578599  0.83727857  0.03151400  1  0  0.133419  0  3.682726  0  0  0.101904  0  3.928952  0  0  0.109738  0  3.947437  0  0  0.053589  0.097007  0  3.91626  0
C  C44  1  0.83124716  0.63966917  0.23528828  1  0  0.426314  0  3.710811  0  0  0.405927  0  3.971646  0  0  0.42072  0  3.987767  0  0  0.238687  0.396058  0  3.960541  0
C  C45  1  0.16875230  0.86033107  0.73528805  1  0  0.426232  0  3.711066  0  0  0.405876  0  3.971845  0  0  0.42067  0  3.987967  0  0  0.238711  0.39601  0  3.960728  0
C  C46  1  0.16875065  0.36033109  0.76471236  1  0  0.426306  0  3.710959  0  0  0.405921  0  3.971757  0  0  0.420715  0  3.98788  0  0  0.238691  0.396054  0  3.960642  0
C  C47  1  0.83124804  0.13966917  0.26471259  1  0  0.426321  0  3.710818  0  0  0.40596  0  3.971616  0  0  0.420753  0  3.987738  0  0  0.238721  0.396091  0  3.960509  0
C  C48  1  0.29428821  0.34008365  0.48160303  1  0  0.002923  0  3.671651  0  0  -0.028335  0  3.920982  0  0  -0.021988  0  3.938103  0  0  -0.052091  -0.032048  0  3.909215  0
C  C49  1  0.70571108  0.15991680  0.98160301  1  0  0.003001  0  3.671734  0  0  -0.028252  0  3.92106  0  0  -0.021903  0  3.93818  0  0  -0.052082  -0.031965  0  3.909298  0
C  C50  1  0.70570960  0.65991661  0.51839656  1  0  0.002991  0  3.671896  0  0  -0.028301  0  3.921239  0  0  -0.021954  0  3.938362  0  0  -0.052091  -0.032013  0  3.90947  0
C  C51  1  0.29429053  0.84008344  0.01839658  1  0  0.002888  0  3.671975  0  0  -0.028409  0  3.921324  0  0  -0.022063  0  3.938448  0  0  -0.052123  -0.032126  0  3.909569  0
C  C52  1  0.28629046  0.38007029  0.41159863  1  0  -0.105469  0  3.737972  0  0  -0.077576  0  3.968934  0  0  -0.091301  0  3.994212  0  0  -0.008622  -0.068962  0  3.952106  0
C  C53  1  0.71370976  0.11992908  0.91159808  1  0  -0.1055  0  3.738009  0  0  -0.077617  0  3.968979  0  0  -0.091343  0  3.994257  0  0  -0.008611  -0.069012  0  3.952163  0
C  C54  1  0.71370974  0.61992895  0.58840149  1  0  -0.105561  0  3.738059  0  0  -0.077648  0  3.969023  0  0  -0.091374  0  3.994301  0  0  -0.008627  -0.069047  0  3.952209  0
C  C55  1  0.28629058  0.88007116  0.08840099  1  0  -0.105557  0  3.737988  0  0  -0.077629  0  3.968938  0  0  -0.091354  0  3.994215  0  0  -0.008613  -0.069018  0  3.952114  0
C  C56  1  0.45138897  0.31789920  0.51030162  1  0  -0.122878  0  3.743496  0  0  -0.133261  0  3.9986  0  0  -0.142748  0  4.021798  0  0  -0.081299  -0.127257  0  3.982983  0
C  C57  1  0.54861154  0.18210083  0.01030016  1  0  -0.122945  0  3.743671  0  0  -0.133312  0  3.998775  0  0  -0.1428  0  4.021974  0  0  -0.081319  -0.127305  0  3.983156  0
C  C58  1  0.54861250  0.68210004  0.48969954  1  0  -0.122955  0  3.74373  0  0  -0.133318  0  3.998812  0  0  -0.142807  0  4.022012  0  0  -0.081313  -0.127315  0  3.983186  0
C  C59  1  0.45138767  0.81790042  0.98969839  1  0  -0.122855  0  3.743676  0  0  -0.133208  0  3.998765  0  0  -0.142695  0  4.021964  0  0  -0.081287  -0.127203  0  3.983152  0
C  C60  1  0.93406074  0.57753453  0.18174171  1  0  -0.399844  0  3.686213  0  0  -0.474107  0  3.913622  0  0  -0.478412  0  3.919221  0  0  -0.230663  -0.470899  0  3.909622  0
C  C61  1  0.06593717  0.92246467  0.68174145  1  0  -0.399906  0  3.686281  0  0  -0.474197  0  3.913676  0  0  -0.478499  0  3.919271  0  0  -0.230674  -0.470989  0  3.909672  0
C  C62  1  0.06593833  0.42246572  0.81825840  1  0  -0.399943  0  3.686266  0  0  -0.474215  0  3.913666  0  0  -0.478516  0  3.919258  0  0  -0.230685  -0.471007  0  3.909668  0
C  C63  1  0.93406064  0.07753559  0.31825866  1  0  -0.39983  0  3.68622  0  0  -0.474103  0  3.913624  0  0  -0.478407  0  3.919223  0  0  -0.230642  -0.470903  0  3.909624  0
N  N64  1  0.58869596  0.37640582  0.40103213  1  0  -0.327921  0  3.319357  0  0  -0.243715  0  3.602166  0  0  -0.263346  0  3.617276  0  0  -0.331225  -0.230522  0  3.591688  0
N  N65  1  0.41130436  0.12359455  0.90103092  1  0  -0.327974  0  3.319353  0  0  -0.24378  0  3.602166  0  0  -0.263411  0  3.617277  0  0  -0.331268  -0.230589  0  3.591684  0
N  N66  1  0.41130438  0.62359442  0.59896903  1  0  -0.327967  0  3.319384  0  0  -0.243774  0  3.602216  0  0  -0.263406  0  3.617327  0  0  -0.331265  -0.230585  0  3.591741  0
N  N67  1  0.58869598  0.87640569  0.09896867  1  0  -0.328032  0  3.31938  0  0  -0.243836  0  3.602222  0  0  -0.263467  0  3.617332  0  0  -0.331302  -0.230647  0  3.591742  0
N  N68  1  0.77497978  0.76099289  0.23116858  1  0  -0.362178  0  3.21744  0  0  -0.288439  0  3.518243  0  0  -0.308628  0  3.529532  0  0  -0.249562  -0.274927  0  3.510518  0
N  N69  1  0.22501967  0.73900735  0.73116888  1  0  -0.36215  0  3.217467  0  0  -0.288428  0  3.518265  0  0  -0.308618  0  3.529554  0  0  -0.249549  -0.274903  0  3.510526  0
N  N70  1  0.22501929  0.23900736  0.76883101  1  0  -0.362172  0  3.21749  0  0  -0.288433  0  3.518282  0  0  -0.308624  0  3.529574  0  0  -0.249545  -0.274918  0  3.510552  0
N  N71  1  0.77497814  0.26099291  0.26883123  1  0  -0.362185  0  3.217431  0  0  -0.288464  0  3.518239  0  0  -0.308652  0  3.529526  0  0  -0.249557  -0.274946  0  3.510512  0
N  N72  1  0.77687818  0.58434571  0.29637356  1  0  -0.360502  0  3.207005  0  0  -0.288026  0  3.511699  0  0  -0.308049  0  3.521895  0  0  -0.248552  -0.274672  0  3.504756  0
N  N73  1  0.22312132  0.91565358  0.79637336  1  0  -0.360467  0  3.207082  0  0  -0.28797  0  3.511734  0  0  -0.307995  0  3.521932  0  0  -0.248557  -0.274608  0  3.504787  0
N  N74  1  0.22312216  0.41565453  0.70362655  1  0  -0.360513  0  3.207049  0  0  -0.287984  0  3.511676  0  0  -0.308009  0  3.521874  0  0  -0.248539  -0.274622  0  3.504724  0
N  N75  1  0.77687762  0.08434567  0.20362675  1  0  -0.360457  0  3.206943  0  0  -0.287982  0  3.511621  0  0  -0.308007  0  3.521822  0  0  -0.248543  -0.274617  0  3.504669  0
N  N76  1  0.68652736  0.67380017  0.32947091  1  0  -0.079024  0  2.99497  0  0  -0.072829  0  3.292377  0  0  -0.072036  0  3.303666  0  0  -0.090286  -0.073113  0  3.284712  0
N  N77  1  0.31347349  0.82619915  0.82947126  1  0  -0.07905  0  2.994879  0  0  -0.072868  0  3.292297  0  0  -0.072074  0  3.303587  0  0  -0.090303  -0.073165  0  3.284657  0
N  N78  1  0.31347284  0.32619908  0.67052920  1  0  -0.079013  0  2.994893  0  0  -0.072841  0  3.292306  0  0  -0.072047  0  3.303596  0  0  -0.090285  -0.073133  0  3.284653  0
N  N79  1  0.68652685  0.17380110  0.17052885  1  0  -0.079113  0  2.994926  0  0  -0.072923  0  3.292345  0  0  -0.072128  0  3.303634  0  0  -0.090338  -0.073217  0  3.284697  0
N  N80  1  0.68521808  0.77956258  0.29050586  1  0  -0.089645  0  2.965243  0  0  -0.091238  0  3.259364  0  0  -0.089156  0  3.269587  0  0  -0.103134  -0.092474  0  3.252465  0
N  N81  1  0.31478154  0.72043771  0.79050620  1  0  -0.089667  0  2.965244  0  0  -0.091263  0  3.259389  0  0  -0.089181  0  3.269614  0  0  -0.103176  -0.092501  0  3.252503  0
N  N82  1  0.31478099  0.22043767  0.70949425  1  0  -0.089672  0  2.965262  0  0  -0.091273  0  3.259407  0  0  -0.089191  0  3.269633  0  0  -0.103183  -0.092515  0  3.252518  0
N  N83  1  0.68521754  0.27956254  0.20949444  1  0  -0.089615  0  2.965272  0  0  -0.091206  0  3.259402  0  0  -0.089124  0  3.269626  0  0  -0.103135  -0.092446  0  3.252516  0
O  O84  1  0.12654075  0.44267471  0.31319046  1  0  -0.602067  0  1.899048  0  0  -0.556428  0  2.108491  0  0  -0.580016  0  2.100182  0  0  -0.318805  -0.539985  0  2.113688  0
O  O85  1  0.87345626  0.05732161  0.81319102  1  0  -0.602084  0  1.899223  0  0  -0.556446  0  2.108672  0  0  -0.580031  0  2.100364  0  0  -0.318818  -0.540004  0  2.113869  0
O  O86  1  0.87345652  0.55732156  0.68680913  1  0  -0.602146  0  1.899016  0  0  -0.556506  0  2.108475  0  0  -0.580094  0  2.100168  0  0  -0.318866  -0.540065  0  2.113671  0
O  O87  1  0.12654408  0.94267864  0.18680805  1  0  -0.602087  0  1.899182  0  0  -0.556439  0  2.108638  0  0  -0.580025  0  2.100331  0  0  -0.318801  -0.539999  0  2.113828  0
O  O88  1  0.98405929  0.38064490  0.41174908  1  0  -0.644392  0  1.993262  0  0  -0.575584  0  2.250261  0  0  -0.603681  0  2.235433  0  0  -0.340594  -0.55584  0  2.259751  0
O  O89  1  0.01594106  0.11935548  0.91174926  1  0  -0.644415  0  1.993249  0  0  -0.575612  0  2.250248  0  0  -0.603711  0  2.235423  0  0  -0.340589  -0.555865  0  2.259742  0
O  O90  1  0.01594105  0.61935535  0.58825104  1  0  -0.644381  0  1.993226  0  0  -0.575576  0  2.250235  0  0  -0.603674  0  2.235408  0  0  -0.340584  -0.555831  0  2.259724  0
O  O91  1  0.98405900  0.88064276  0.08825085  1  0  -0.644396  0  1.993258  0  0  -0.575609  0  2.250287  0  0  -0.603707  0  2.235461  0  0  -0.340595  -0.555868  0  2.259776  0
