# generated using pymatgen
data_CuH3C9N2
_symmetry_space_group_name_H-M   'P 1'
_cell_length_a   35.68750276
_cell_length_b   36.05797221
_cell_length_c   36.04575201
_cell_angle_alpha   89.99228743
_cell_angle_beta   89.99690316
_cell_angle_gamma   89.96705859
_symmetry_Int_Tables_number   1
_chemical_formula_structural   CuH3C9N2
_chemical_formula_sum   'Cu12 H36 C108 N24'
_cell_volume   46384.34978771
_cell_formula_units_Z   12
loop_
 _symmetry_equiv_pos_site_id
 _symmetry_equiv_pos_as_xyz
  1  'x, y, z'
loop_
 _atom_site_type_symbol
 _atom_site_label
 _atom_site_symmetry_multiplicity
 _atom_site_fract_x
 _atom_site_fract_y
 _atom_site_fract_z
 _atom_site_occupancy
 _atom_site_pbe_bader_charge
 _atom_site_pbe_bader_spin_density
 _atom_site_pbe_cm5_charge
 _atom_site_pbe_ddec_charge
 _atom_site_pbe_ddec_spin_density
 _atom_site_pbe_ddec_sum_bond_order
 _atom_site_pbe_magmom
Cu  Cu0  1  0.37504007  0.59100500  0.65944403  1  0.549489  0  0.494939  0.214585  0  2.101368  0
Cu  Cu1  1  0.33857984  0.62656048  0.58756656  1  0.551125  0  0.491482  0.215598  0  2.079287  0
Cu  Cu2  1  0.41155730  0.66315177  0.62393221  1  0.54905  0  0.495791  0.214424  0  2.099093  0
Cu  Cu3  1  0.62570071  0.90912535  0.16003985  1  0.548655  0  0.497363  0.213362  0  2.113706  0
Cu  Cu4  1  0.66141691  0.87418307  0.08731519  1  0.553013  0  0.495899  0.215088  0  2.099088  0
Cu  Cu5  1  0.58846664  0.83802551  0.12378083  1  0.553974  0  0.493438  0.215637  0  2.087526  0
Cu  Cu6  1  0.87477193  0.40934164  0.84023948  1  0.549179  0  0.493008  0.214319  0  2.091844  0
Cu  Cu7  1  0.83806312  0.37372686  0.91217138  1  0.553309  0  0.492317  0.216704  0  2.081481  0
Cu  Cu8  1  0.91119630  0.33711882  0.87571227  1  0.553151  0  0.493199  0.215787  0  2.085774  0
Cu  Cu9  1  0.12410966  0.08936164  0.34132204  1  0.547219  0  0.495863  0.213818  0  2.105554  0
Cu  Cu10  1  0.16146335  0.12569214  0.41270583  1  0.550889  0  0.49583  0.215498  0  2.09921  0
Cu  Cu11  1  0.08832963  0.16184371  0.37630176  1  0.555444  0  0.491105  0.216244  0  2.076407  0
H  H12  1  0.32047628  0.52282709  0.67302805  1  0.109065  0  0.129106  0.122758  0  0.977102  0
H  H13  1  0.26999853  0.57079935  0.57464475  1  0.128329  0  0.128992  0.122759  0  0.975576  0
H  H14  1  0.47997050  0.67606710  0.67942775  1  0.108564  0  0.129108  0.122824  0  0.97723  0
H  H15  1  0.42981112  0.57758185  0.72738782  1  0.11699  0  0.129053  0.122592  0  0.976183  0
H  H16  1  0.32562547  0.68162545  0.51978679  1  0.108994  0  0.129094  0.122932  0  0.977128  0
H  H17  1  0.42456243  0.73088528  0.56920125  1  0.119971  0  0.129006  0.123166  0  0.975105  0
H  H18  1  0.68074117  0.97666038  0.17379511  1  0.117266  0  0.129261  0.123154  0  0.976737  0
H  H19  1  0.72950721  0.92993041  0.07397311  1  0.097683  0  0.128914  0.122538  0  0.975218  0
H  H20  1  0.51943792  0.82573943  0.17899939  1  0.128386  0  0.129468  0.123593  0  0.976189  0
H  H21  1  0.57139085  0.92259086  0.22835848  1  0.140707  0  0.12925  0.123453  0  0.975489  0
H  H22  1  0.67419178  0.81967954  0.01933059  1  0.124348  0  0.129446  0.123386  0  0.975214  0
H  H23  1  0.57509911  0.77050802  0.06856816  1  0.098213  0  0.129244  0.122834  0  0.976859  0
H  H24  1  0.82004017  0.47756834  0.82679341  1  0.090884  0  0.129261  0.123371  0  0.976821  0
H  H25  1  0.76950708  0.42948022  0.92504066  1  0.129959  0  0.129193  0.122984  0  0.976065  0
H  H26  1  0.97981711  0.32421652  0.82018346  1  0.098203  0  0.128819  0.1227  0  0.975781  0
H  H27  1  0.92975470  0.42281783  0.77228978  1  0.104335  0  0.129127  0.123024  0  0.977005  0
H  H28  1  0.82499305  0.31868036  0.97981925  1  0.089937  0  0.128985  0.122623  0  0.976284  0
H  H29  1  0.92396519  0.26925479  0.93055335  1  0.128776  0  0.128981  0.122743  0  0.976614  0
H  H30  1  0.17872693  0.02129810  0.32806999  1  0.115202  0  0.129217  0.12321  0  0.977068  0
H  H31  1  0.23048766  0.07077454  0.42499668  1  0.129757  0  0.129209  0.122739  0  0.974978  0
H  H32  1  0.01995531  0.17502219  0.32027160  1  0.087622  0  0.129131  0.122859  0  0.975672  0
H  H33  1  0.06907498  0.07539360  0.27357504  1  0.142233  0  0.129293  0.123465  0  0.975441  0
H  H34  1  0.17484503  0.18068665  0.48015928  1  0.136591  0  0.12897  0.122707  0  0.975127  0
H  H35  1  0.07561291  0.22987885  0.43111247  1  0.105979  0  0.129073  0.122899  0  0.977697  0
H  H36  1  0.82579894  0.12398687  0.07587940  1  0.059423  0  0.113533  0.12293  0  0.980441  0
H  H37  1  0.92392466  0.17350483  0.12549109  1  0.084159  0  0.113646  0.123524  0  0.981766  0
H  H38  1  0.87479270  0.07541045  0.17403852  1  0.105689  0  0.113895  0.123732  0  0.98124  0
H  H39  1  0.17449004  0.37559810  0.57612436  1  0.114286  0  0.113292  0.12248  0  0.981123  0
H  H40  1  0.07638667  0.32592664  0.62560069  1  0.07651  0  0.113811  0.123805  0  0.980099  0
H  H41  1  0.12520117  0.42413477  0.67419378  1  0.060971  0  0.113194  0.12302  0  0.981111  0
H  H42  1  0.32627289  0.87606435  0.42386753  1  0.075535  0  0.113681  0.123618  0  0.980149  0
H  H43  1  0.42454021  0.82666756  0.37431958  1  0.080011  0  0.113679  0.123579  0  0.980262  0
H  H44  1  0.37519801  0.92467152  0.32571126  1  0.096678  0  0.114073  0.124267  0  0.981055  0
H  H45  1  0.62483815  0.57630666  0.82560926  1  0.084374  0  0.113458  0.123537  0  0.97997  0
H  H46  1  0.57587903  0.67456669  0.87397737  1  0.108404  0  0.113825  0.123312  0  0.980512  0
H  H47  1  0.67394221  0.62494262  0.92370318  1  0.077466  0  0.113766  0.123069  0  0.981127  0
C  C48  1  0.31290977  0.53933816  0.64900391  1  0.42455  0  0.021259  -0.039902  0  3.916761  0
C  C49  1  0.28295511  0.53439863  0.62393175  1  0.181504  0  -0.026408  0.036898  0  4.201183  0
C  C50  1  0.28710185  0.56393461  0.59855492  1  0.384744  0  0.021491  -0.038919  0  3.914149  0
C  C51  1  0.46293066  0.65213066  0.68629133  1  0.46153  0  0.021825  -0.038888  0  3.918453  0
C  C52  1  0.46715460  0.62671831  0.71576015  1  0.136158  0  -0.026387  0.035932  0  4.20948  0
C  C53  1  0.43726841  0.60161423  0.71087642  1  0.422764  0  0.021828  -0.037815  0  3.91665  0
C  C54  1  0.34971772  0.68882030  0.53664300  1  0.473973  0  0.021231  -0.040318  0  3.916558  0
C  C55  1  0.37508741  0.71849242  0.53226536  1  0.095084  0  -0.026828  0.037054  0  4.207896  0
C  C56  1  0.40046300  0.71405769  0.56193562  1  0.438274  0  0.021453  -0.040766  0  3.916968  0
C  C57  1  0.68786442  0.96044502  0.14944899  1  0.401267  0  0.02159  -0.040348  0  3.917737  0
C  C58  1  0.71734463  0.96565632  0.12393175  1  0.188533  0  -0.026535  0.037527  0  4.209251  0
C  C59  1  0.71281646  0.93649028  0.09825148  1  0.432695  0  0.021856  -0.039043  0  3.91574  0
C  C60  1  0.53692815  0.84924629  0.18618859  1  0.407431  0  0.021615  -0.040178  0  3.917725  0
C  C61  1  0.53310499  0.87435974  0.21596202  1  0.15607  0  -0.026617  0.038384  0  4.208025  0
C  C62  1  0.56351713  0.89891771  0.21151916  1  0.398673  0  0.021611  -0.040355  0  3.917615  0
C  C63  1  0.65006746  0.81245435  0.03614658  1  0.422734  0  0.0214  -0.039975  0  3.917148  0
C  C64  1  0.62458463  0.78290363  0.03166177  1  0.163456  0  -0.026476  0.037927  0  4.206687  0
C  C65  1  0.59924359  0.78729041  0.06137803  1  0.453236  0  0.021204  -0.039545  0  3.916852  0
C  C66  1  0.81249782  0.46100199  0.85077454  1  0.445469  0  0.020832  -0.041398  0  3.916638  0
C  C67  1  0.78249567  0.46591266  0.87580504  1  0.152136  0  -0.026414  0.038672  0  4.199987  0
C  C68  1  0.78664373  0.43635599  0.90115782  1  0.41584  0  0.021313  -0.039258  0  3.915243  0
C  C69  1  0.96278812  0.34818327  0.81333206  1  0.429737  0  0.022118  -0.038612  0  3.914195  0
C  C70  1  0.96710104  0.37362431  0.78387927  1  0.157002  0  -0.026961  0.036258  0  4.202817  0
C  C71  1  0.93717886  0.39875112  0.78877748  1  0.459486  0  0.021266  -0.039635  0  3.917783  0
C  C72  1  0.84911769  0.31143801  0.96300437  1  0.458714  0  0.021248  -0.039141  0  3.915976  0
C  C73  1  0.87445121  0.28171082  0.96741633  1  0.142079  0  -0.026544  0.037593  0  4.205343  0
C  C74  1  0.89987239  0.28613459  0.93776602  1  0.427468  0  0.021058  -0.039574  0  3.915464  0
C  C75  1  0.18652884  0.03815858  0.35174925  1  0.444809  0  0.020896  -0.041074  0  3.919041  0
C  C76  1  0.21693301  0.03378729  0.37635417  1  0.155388  0  -0.026033  0.03798  0  4.209259  0
C  C77  1  0.21301427  0.06352394  0.40147128  1  0.399478  0  0.021846  -0.038335  0  3.916243  0
C  C78  1  0.03672470  0.15079644  0.31374821  1  0.502971  0  0.021646  -0.038532  0  3.914551  0
C  C79  1  0.03224101  0.12511854  0.28453131  1  0.104734  0  -0.026367  0.036483  0  4.203654  0
C  C80  1  0.06184147  0.09970201  0.28979447  1  0.4089  0  0.020983  -0.040386  0  3.917044  0
C  C81  1  0.15063163  0.18788945  0.46344144  1  0.433937  0  0.021764  -0.038787  0  3.915574  0
C  C82  1  0.12524673  0.21757232  0.46788043  1  0.119981  0  -0.026001  0.037343  0  4.205394  0
C  C83  1  0.09975201  0.21306893  0.43830402  1  0.456411  0  0.020788  -0.040277  0  3.91715  0
C  C84  1  0.84712246  0.09651548  0.12494470  1  0.079452  0  0.001208  0.137813  0  4.160959  0
C  C85  1  0.84723670  0.12416991  0.09736977  1  -0.020844  0  -0.067281  -0.156156  0  3.840214  0
C  C86  1  0.87488116  0.15200395  0.09742994  1  0.079763  0  0.001119  0.136769  0  4.158605  0
C  C87  1  0.90250878  0.15202744  0.12534284  1  0.006051  0  -0.068046  -0.158259  0  3.840302  0
C  C88  1  0.90264767  0.12449117  0.15305607  1  0.154945  0  0.001358  0.136914  0  4.156587  0
C  C89  1  0.87485258  0.09678579  0.15270698  1  0.017396  0  -0.067842  -0.158042  0  3.840836  0
C  C90  1  0.15311628  0.40316804  0.62514965  1  0.087058  0  0.001504  0.136682  0  4.155258  0
C  C91  1  0.15304382  0.37544718  0.59760660  1  -0.076879  0  -0.067359  -0.155218  0  3.838917  0
C  C92  1  0.12544783  0.34754021  0.59763081  1  0.075499  0  0.001001  0.13613  0  4.158107  0
C  C93  1  0.09776235  0.34745643  0.62548563  1  -0.001609  0  -0.067999  -0.157677  0  3.839056  0
C  C94  1  0.09752800  0.37500755  0.65316723  1  0.162001  0  0.001362  0.136351  0  4.155102  0
C  C95  1  0.12528008  0.40278445  0.65284630  1  0.076704  0  -0.067174  -0.156635  0  3.838524  0
C  C96  1  0.34751301  0.90356462  0.37480217  1  0.078465  0  0.000744  0.136445  0  4.162701  0
C  C97  1  0.34770082  0.87592213  0.40237452  1  0.007573  0  -0.067293  -0.157169  0  3.841784  0
C  C98  1  0.37541494  0.84812602  0.40233139  1  0.080571  0  0.001759  0.137796  0  4.161991  0
C  C99  1  0.40305426  0.84810635  0.37446435  1  -0.012788  0  -0.067643  -0.157885  0  3.841599  0
C  C100  1  0.40309805  0.87564901  0.34677537  1  0.078374  0  0.000916  0.137442  0  4.161531  0
C  C101  1  0.37526083  0.90331810  0.34706146  1  0.009422  0  -0.067623  -0.158215  0  3.843178  0
C  C102  1  0.65270052  0.59730164  0.87468043  1  0.06216  0  0.001334  0.136266  0  4.15473  0
C  C103  1  0.62491644  0.59765948  0.84694797  1  -0.032617  0  -0.067444  -0.157101  0  3.838946  0
C  C104  1  0.59717404  0.62545142  0.84657604  1  0.089198  0  0.001512  0.137406  0  4.161213  0
C  C105  1  0.59729418  0.65304637  0.87418489  1  0.005609  0  -0.067541  -0.156239  0  3.840527  0
C  C106  1  0.62492891  0.65295698  0.90206147  1  0.080188  0  0.001019  0.136718  0  4.159539  0
C  C107  1  0.65254827  0.62505410  0.90218171  1  0.100611  0  -0.068018  -0.156936  0  3.838452  0
C  C108  1  0.74474333  0.99338330  0.12411163  1  -0.131899  0  -0.0298  -0.068983  0  4.101084  0
C  C109  1  0.76876046  0.01771003  0.12432104  1  -0.10395  0  -0.049881  -0.054443  0  4.332817  0
C  C110  1  0.79519225  0.04439278  0.12453183  1  -0.203252  0  -0.04207  -0.032856  0  4.320866  0
C  C111  1  0.81930162  0.06861763  0.12472768  1  0.029301  0  -0.027845  -0.089212  0  4.043095  0
C  C112  1  0.25550540  0.50660040  0.62422957  1  -0.156328  0  -0.030033  -0.069105  0  4.092861  0
C  C113  1  0.23147480  0.48222969  0.62452790  1  0.006592  0  -0.048913  -0.053981  0  4.32422  0
C  C114  1  0.20502703  0.45546875  0.62477709  1  -0.277941  0  -0.0422  -0.031838  0  4.311216  0
C  C115  1  0.18093144  0.43117791  0.62495995  1  0.031158  0  -0.0281  -0.089985  0  4.034339  0
C  C116  1  0.24458921  0.00627071  0.37592396  1  -0.146028  0  -0.030409  -0.070086  0  4.100613  0
C  C117  1  0.26882595  0.98213109  0.37554307  1  -0.11262  0  -0.049261  -0.053254  0  4.332002  0
C  C118  1  0.29542029  0.95557816  0.37522381  1  -0.163443  0  -0.04235  -0.033332  0  4.321273  0
C  C119  1  0.31962529  0.93142201  0.37500052  1  0.013612  0  -0.027982  -0.088805  0  4.042734  0
C  C120  1  0.75500317  0.49370101  0.87550125  1  -0.275267  0  -0.030141  -0.070535  0  4.09123  0
C  C121  1  0.73096426  0.51808262  0.87521441  1  0.040112  0  -0.049054  -0.052808  0  4.323099  0
C  C122  1  0.70454695  0.54489791  0.87500136  1  -0.143953  0  -0.042291  -0.033242  0  4.312031  0
C  C123  1  0.68050316  0.56926011  0.87489846  1  -0.077064  0  -0.027801  -0.089033  0  4.032846  0
C  C124  1  0.00481550  0.12488181  0.25670486  1  -0.114468  0  -0.030115  -0.069866  0  4.092598  0
C  C125  1  0.98082867  0.12466285  0.23228051  1  -0.135941  0  -0.049094  -0.052459  0  4.325169  0
C  C126  1  0.95445931  0.12456158  0.20544817  1  -0.156225  0  -0.042654  -0.034138  0  4.315424  0
C  C127  1  0.93045759  0.12458844  0.18105952  1  -0.055078  0  -0.027462  -0.088243  0  4.035602  0
C  C128  1  0.49465003  0.62645029  0.74345135  1  -0.133481  0  -0.029884  -0.069081  0  4.099767  0
C  C129  1  0.51872736  0.62617662  0.76775438  1  -0.107106  0  -0.049948  -0.054282  0  4.331482  0
C  C130  1  0.54522346  0.62589961  0.79440764  1  -0.19799  0  -0.042041  -0.032424  0  4.320165  0
C  C131  1  0.56934873  0.62565616  0.81864578  1  0.032454  0  -0.02785  -0.089527  0  4.043598  0
C  C132  1  0.99468679  0.37390111  0.75619691  1  -0.154396  0  -0.030237  -0.069829  0  4.091391  0
C  C133  1  0.01884467  0.37418924  0.73193627  1  -0.091951  0  -0.048927  -0.052269  0  4.324055  0
C  C134  1  0.04542959  0.37449207  0.70530886  1  -0.152964  0  -0.042557  -0.034592  0  4.314978  0
C  C135  1  0.06961476  0.37477095  0.68109406  1  -0.061195  0  -0.027526  -0.087691  0  4.033048  0
C  C136  1  0.50554121  0.87482952  0.24358185  1  -0.171519  0  -0.029778  -0.069788  0  4.099474  0
C  C137  1  0.48143932  0.87522789  0.26786151  1  0.015721  0  -0.04972  -0.053856  0  4.332283  0
C  C138  1  0.45497226  0.87546587  0.29453939  1  -0.295232  0  -0.042834  -0.033393  0  4.321462  0
C  C139  1  0.43091148  0.87554559  0.31883993  1  0.03764  0  -0.027422  -0.088985  0  4.043427  0
C  C140  1  0.87443728  0.25419034  0.99486119  1  -0.262695  0  -0.029822  -0.069487  0  4.093954  0
C  C141  1  0.87449165  0.23009327  0.01892960  1  0.005759  0  -0.049305  -0.053258  0  4.326438  0
C  C142  1  0.87463961  0.20368237  0.04544555  1  -0.164618  0  -0.042246  -0.033498  0  4.317144  0
C  C143  1  0.87484311  0.17970912  0.06961549  1  -0.001215  0  -0.027948  -0.08884  0  4.038868  0
C  C144  1  0.37513077  0.74598157  0.50483107  1  -0.198787  0  -0.030033  -0.068464  0  4.096055  0
C  C145  1  0.37523398  0.77005329  0.48075508  1  0.003053  0  -0.049191  -0.054289  0  4.329406  0
C  C146  1  0.37534969  0.79645091  0.45425733  1  -0.157498  0  -0.042671  -0.032724  0  4.317418  0
C  C147  1  0.37544851  0.82043583  0.43011727  1  -0.020423  0  -0.02777  -0.089415  0  4.039431  0
C  C148  1  0.62453519  0.75551446  0.00413782  1  -0.295319  0  -0.03004  -0.069868  0  4.097201  0
C  C149  1  0.62458246  0.73146295  0.98004974  1  0.001224  0  -0.04909  -0.053401  0  4.329381  0
C  C150  1  0.62469470  0.70495436  0.95366901  1  -0.193308  0  -0.042497  -0.032741  0  4.319297  0
C  C151  1  0.62487036  0.68076963  0.92973676  1  0.032112  0  -0.028053  -0.089829  0  4.041134  0
C  C152  1  0.12535919  0.24509988  0.49531313  1  -0.295146  0  -0.030407  -0.070111  0  4.095074  0
C  C153  1  0.12545923  0.26916760  0.51940399  1  0.016452  0  -0.048878  -0.052891  0  4.326335  0
C  C154  1  0.12549743  0.29565069  0.54585085  1  -0.172468  0  -0.042743  -0.033188  0  4.315132  0
C  C155  1  0.12549716  0.31977054  0.56987339  1  0.01366  0  -0.027663  -0.089222  0  4.038144  0
N  N156  1  0.31702984  0.58457243  0.60792209  1  -0.780343  0  -0.331609  -0.139401  0  3.7614  0
N  N157  1  0.33299866  0.56928921  0.63917503  1  -0.775362  0  -0.334023  -0.137596  0  3.771231  0
N  N158  1  0.41709123  0.61145483  0.68097110  1  -0.784755  0  -0.334639  -0.140172  0  3.774543  0
N  N159  1  0.43298892  0.64272460  0.66573310  1  -0.777045  0  -0.33368  -0.137142  0  3.772854  0
N  N160  1  0.39079776  0.68421491  0.58213137  1  -0.781194  0  -0.334321  -0.137679  0  3.771529  0
N  N161  1  0.35936288  0.66854234  0.56646870  1  -0.786915  0  -0.331063  -0.137706  0  3.759995  0
N  N162  1  0.68306498  0.91577332  0.10788724  1  -0.785894  0  -0.333837  -0.138463  0  3.772898  0
N  N163  1  0.66762469  0.93063188  0.13956863  1  -0.76879  0  -0.335586  -0.137225  0  3.777279  0
N  N164  1  0.58358449  0.88904489  0.18156186  1  -0.775521  0  -0.33539  -0.138249  0  3.774909  0
N  N165  1  0.56714274  0.85829695  0.16584292  1  -0.769052  0  -0.332895  -0.13867  0  3.764448  0
N  N166  1  0.60901822  0.81699746  0.08172420  1  -0.781207  0  -0.332659  -0.138919  0  3.765834  0
N  N167  1  0.64049422  0.83258259  0.06606698  1  -0.774867  0  -0.334493  -0.13881  0  3.772072  0
N  N168  1  0.81661037  0.41573759  0.89180923  1  -0.770335  0  -0.332084  -0.140072  0  3.761939  0
N  N169  1  0.83263255  0.43103776  0.86058771  1  -0.768123  0  -0.332669  -0.137253  0  3.765087  0
N  N170  1  0.91692622  0.38890428  0.81864262  1  -0.769623  0  -0.332817  -0.138725  0  3.766159  0
N  N171  1  0.93279768  0.35757822  0.83387778  1  -0.783771  0  -0.332576  -0.138377  0  3.763904  0
N  N172  1  0.89027962  0.31601107  0.91754593  1  -0.769979  0  -0.332431  -0.138974  0  3.762987  0
N  N173  1  0.85882327  0.33171583  0.93319889  1  -0.782831  0  -0.332338  -0.139811  0  3.761752  0
N  N174  1  0.18274324  0.08377720  0.39237316  1  -0.784042  0  -0.334076  -0.139655  0  3.772618  0
N  N175  1  0.16634514  0.06805367  0.36159579  1  -0.763808  0  -0.334072  -0.136766  0  3.772586  0
N  N176  1  0.08206558  0.10963347  0.31963705  1  -0.763877  0  -0.334605  -0.138216  0  3.771527  0
N  N177  1  0.06651993  0.14127769  0.33452294  1  -0.787628  0  -0.331427  -0.139022  0  3.758686  0
N  N178  1  0.10932705  0.18317927  0.41808964  1  -0.780422  0  -0.331045  -0.138209  0  3.758612  0
N  N179  1  0.14084878  0.16759106  0.43370392  1  -0.77222  0  -0.334539  -0.139184  0  3.771351  0
