# generated using pymatgen
data_CoH28C30(N4O3)2
_symmetry_space_group_name_H-M   'P 1'
_cell_length_a   7.52203470
_cell_length_b   8.68017199
_cell_length_c   11.14968031
_cell_angle_alpha   89.91146449
_cell_angle_beta   79.58398295
_cell_angle_gamma   80.45347886
_symmetry_Int_Tables_number   1
_chemical_formula_structural   CoH28C30(N4O3)2
_chemical_formula_sum   'Co1 H28 C30 N8 O6'
_cell_volume   705.77531124
_cell_formula_units_Z   1
loop_
 _symmetry_equiv_pos_site_id
 _symmetry_equiv_pos_as_xyz
  1  'x, y, z'
loop_
 _atom_site_type_symbol
 _atom_site_label
 _atom_site_symmetry_multiplicity
 _atom_site_fract_x
 _atom_site_fract_y
 _atom_site_fract_z
 _atom_site_occupancy
 _atom_site_hle17_ddec_charge
 _atom_site_hle17_ddec_spin_density
 _atom_site_hle17_ddec_sum_bond_order
 _atom_site_hle17_magmom
 _atom_site_hse06_10hf_ddec_charge
 _atom_site_hse06_10hf_ddec_spin_density
 _atom_site_hse06_10hf_ddec_sum_bond_order
 _atom_site_hse06_10hf_magmom
 _atom_site_hse06_ddec_charge
 _atom_site_hse06_ddec_spin_density
 _atom_site_hse06_ddec_sum_bond_order
 _atom_site_hse06_magmom
 _atom_site_pbe_cm5_charge
 _atom_site_pbe_ddec_charge
 _atom_site_pbe_ddec_spin_density
 _atom_site_pbe_ddec_sum_bond_order
 _atom_site_pbe_magmom
Co  Co0  1  0.99998806  0.50000139  0.00000028  1  0.792647  -1.09362  2.295016  -1.021  0.784916  -1.030844  2.719237  -0.973  0.8584  -1.027869  2.640012  -0.977  0.632253  0.739526  -1.027717  2.772779  -0.962
H  H1  1  0.33537211  0.24381107  0.26120223  1  0.309281  -8e-06  0.939869  0.0  0.29046  -9e-06  1.001997  0.0  0.298692  -8e-06  0.996041  0.0  0.305701  0.284587  -6e-06  1.006171  0.0
H  H2  1  0.66463193  0.75617495  0.73880679  1  0.309435  -8e-06  0.939749  0.0  0.290564  -9e-06  1.001933  0.0  0.298824  -8e-06  0.99593  0.0  0.305743  0.284692  -6e-06  1.006108  0.0
H  H3  1  0.67678150  0.63990520  0.96217474  1  0.401153  0.000566  0.91164  0.001  0.369787  0.000258  0.978093  0.0  0.380845  0.000279  0.961874  0.0  0.281112  0.362048  0.000239  0.989535  0.0
H  H4  1  0.32321187  0.36010172  0.03782502  1  0.401186  0.000565  0.9116  0.001  0.369829  0.000258  0.978038  0.0  0.380885  0.000279  0.96182  0.0  0.281108  0.362089  0.000239  0.989481  0.0
H  H5  1  0.59795758  0.70778480  0.09892618  1  0.406189  -0.000667  0.8782  -0.002  0.377923  -0.000943  0.949407  -0.002  0.388516  -0.000736  0.93392  -0.002  0.285586  0.370689  -0.001129  0.96001  -0.002
H  H6  1  0.40204905  0.29221466  0.90107241  1  0.406192  -0.000666  0.878157  -0.002  0.377921  -0.000943  0.949408  -0.002  0.388515  -0.000736  0.933921  -0.002  0.285561  0.370687  -0.001128  0.960008  -0.002
H  H7  1  0.96085979  0.78904813  0.17482351  1  0.095332  2.8e-05  0.979586  -0.001  0.102619  0.000172  1.048088  0.0  0.104666  0.000112  1.046036  0.0  0.132188  0.10078  0.000243  1.050343  0.0
H  H8  1  0.03915096  0.21096659  0.82518241  1  0.09546  2.9e-05  0.979427  -0.001  0.10265  0.000172  1.048022  0.0  0.10469  0.000113  1.04597  0.0  0.132211  0.100813  0.000243  1.050272  0.0
H  H9  1  0.31493901  0.65753821  0.83876912  1  0.11284  6e-06  0.943086  0.0  0.123768  8.5e-05  0.999653  0.0  0.12653  7.3e-05  0.997291  0.0  0.121675  0.121573  9e-05  1.001932  0.0
H  H10  1  0.68505544  0.34244622  0.16122115  1  0.112873  6e-06  0.943038  0.0  0.123798  8.5e-05  0.999601  0.0  0.126561  7.3e-05  0.997237  0.0  0.121712  0.121601  9e-05  1.001883  0.0
H  H11  1  0.38294092  0.94209458  0.92380801  1  0.113919  0.000199  0.981809  0.0  0.120675  4.7e-05  1.048271  0.0  0.122866  4.9e-05  1.048093  0.0  0.120373  0.118706  3e-06  1.049316  0.0
H  H12  1  0.61707966  0.05788348  0.07618964  1  0.113966  0.000201  0.981715  0.0  0.120717  4.7e-05  1.048185  0.0  0.122876  5e-05  1.048047  0.0  0.120392  0.118747  3e-06  1.049232  0.0
H  H13  1  0.03878020  0.05040249  0.21808523  1  0.105539  2.1e-05  0.918819  0.0  0.117059  2.5e-05  0.982626  0.0  0.118419  1e-05  0.983351  0.0  0.120462  0.116244  8e-06  0.981799  0.0
H  H14  1  0.96123170  0.94960106  0.78190375  1  0.105511  2.3e-05  0.918988  0.0  0.116963  2.5e-05  0.98285  0.0  0.118317  1e-05  0.983588  0.0  0.120435  0.116155  8e-06  0.982014  0.0
H  H15  1  0.17564106  0.13918525  0.09914520  1  0.12374  6.5e-05  0.932757  0.0  0.133048  5.6e-05  0.996823  0.0  0.135569  7e-05  0.99503  0.0  0.12359  0.130493  9.3e-05  0.999136  0.0
H  H16  1  0.82439018  0.86080496  0.90084573  1  0.123692  6.5e-05  0.932954  0.0  0.133019  5.6e-05  0.996978  0.0  0.13554  7e-05  0.995185  0.0  0.123545  0.130465  9.3e-05  0.999286  0.0
H  H17  1  0.72898480  0.68009398  0.31879688  1  0.107863  5e-05  0.969942  0.0  0.117519  5e-05  1.030919  0.0  0.1206  5e-05  1.029409  0.0  0.102018  0.115097  4.4e-05  1.032063  0.0
H  H18  1  0.27102772  0.31990798  0.68121093  1  0.107853  5e-05  0.969961  0.0  0.117523  5e-05  1.030945  0.0  0.120608  5e-05  1.029425  0.0  0.102016  0.115101  4.4e-05  1.032089  0.0
H  H19  1  0.92137141  0.79909765  0.44061995  1  0.074828  7e-06  0.996324  0.0  0.084205  4e-06  1.06535  0.0  0.085487  1e-06  1.067221  0.0  0.087776  0.083218  6e-06  1.064283  0.0
H  H20  1  0.07863900  0.20091012  0.55938615  1  0.074881  7e-06  0.99643  0.0  0.084279  4e-06  1.065415  0.0  0.085547  2e-06  1.067302  0.0  0.087815  0.083291  6e-06  1.064349  0.0
H  H21  1  0.86056650  0.08412470  0.48934374  1  0.08399  -1e-06  0.968157  0.0  0.097412  1e-06  1.028549  0.0  0.099517  1e-06  1.028389  0.0  0.094814  0.095801  2e-06  1.028892  0.0
H  H22  1  0.13944474  0.91589069  0.51065044  1  0.084013  -1e-06  0.968083  0.0  0.097356  1e-06  1.028587  0.0  0.099462  1e-06  1.028412  0.0  0.094721  0.095738  2e-06  1.028945  0.0
H  H23  1  0.59976221  0.25787058  0.42173289  1  0.098132  -2e-06  0.958342  0.0  0.112997  -5e-06  1.012485  0.0  0.115379  -4e-06  1.011613  0.0  0.102205  0.111301  -5e-06  1.013006  0.0
H  H24  1  0.40023627  0.74212918  0.57826651  1  0.098162  -2e-06  0.95825  0.0  0.112993  -5e-06  1.01245  0.0  0.115375  -4e-06  1.011583  0.0  0.102207  0.111299  -5e-06  1.012971  0.0
H  H25  1  0.78850576  0.40901925  0.37946092  1  0.091181  5.4e-05  0.96644  0.0  0.100204  3.9e-05  1.030086  0.0  0.103358  3.1e-05  1.028047  0.0  0.103327  0.098248  4.2e-05  1.031001  0.0
H  H26  1  0.21149195  0.59098420  0.62054297  1  0.091176  5.4e-05  0.966207  0.0  0.100212  3.9e-05  1.029856  0.0  0.103365  3.1e-05  1.027822  0.0  0.103314  0.098277  4.2e-05  1.030749  0.0
H  H27  1  0.30052594  0.55825930  0.39231471  1  0.105426  -5e-06  0.935378  0.0  0.114375  3e-06  0.99577  0.0  0.118269  2e-06  0.993156  0.0  0.105712  0.111823  5e-06  0.997236  0.0
H  H28  1  0.69946863  0.44173016  0.60768531  1  0.105403  -5e-06  0.935629  0.0  0.114351  3e-06  0.996016  0.0  0.118245  2e-06  0.993403  0.0  0.10571  0.111799  5e-06  0.997481  0.0
C  C29  1  0.06720176  0.78844419  0.09506818  1  0.16668  0.013614  3.603464  0.009  0.107426  0.005403  3.871673  0.003  0.125029  0.003617  3.881823  0.002  0.142029  0.095262  0.006543  3.866491  0.004
C  C30  1  0.93280844  0.21155550  0.90493902  1  0.166493  0.013634  3.603194  0.009  0.107354  0.005406  3.871387  0.003  0.124968  0.003618  3.881531  0.002  0.141969  0.095193  0.006547  3.866208  0.004
C  C31  1  0.25211145  0.72703576  0.92058113  1  0.002562  0.005553  3.709585  0.004  -0.030325  0.002286  3.981331  0.002  -0.025512  0.001763  3.998656  0.001  -0.000482  -0.034845  0.002911  3.971846  0.002
C  C32  1  0.74788907  0.27295312  0.07940933  1  0.002662  0.005547  3.710055  0.004  -0.030199  0.002288  3.981788  0.002  -0.025389  0.00176  3.999118  0.001  -0.000399  -0.034715  0.002911  3.972305  0.002
C  C33  1  0.28814269  0.86590202  0.96132722  1  -0.06228  -0.001628  3.664085  -0.002  -0.105966  -0.000227  3.930215  0.0  -0.104819  -0.000102  3.948836  0.0  -0.000333  -0.106717  -0.000255  3.91949  0.0
C  C34  1  0.71186076  0.13410101  0.03867071  1  -0.062346  -0.001629  3.664145  -0.002  -0.106036  -0.000228  3.930306  0.0  -0.104859  -0.000101  3.948942  0.0  -0.000391  -0.106783  -0.000255  3.91958  0.0
C  C35  1  0.16962625  0.03276270  0.15274916  1  -0.103662  0.000136  3.640872  0.0  -0.159714  6.4e-05  3.877865  0.0  -0.158392  5.2e-05  3.886104  0.0  -0.036322  -0.16021  1.4e-05  3.872427  0.0
C  C36  1  0.83038860  0.96723026  0.84723887  1  -0.103713  0.000128  3.64139  0.0  -0.159707  6.5e-05  3.878285  0.0  -0.158387  5.2e-05  3.886528  0.0  -0.036297  -0.160205  1.4e-05  3.872851  0.0
C  C37  1  0.32800107  0.00432211  0.21956134  1  0.369675  -5.7e-05  3.712934  0.0  0.343102  -0.000102  3.99701  0.0  0.359556  -6.9e-05  4.008426  0.0  0.223758  0.332335  -0.000147  3.988521  0.0
C  C38  1  0.67200505  0.99568085  0.78043723  1  0.369686  -5.7e-05  3.713136  0.0  0.343163  -0.000103  3.997113  0.0  0.359614  -6.9e-05  4.008538  0.0  0.223804  0.332392  -0.000147  3.988632  0.0
C  C39  1  0.55797835  0.90247151  0.30074396  1  0.130634  -1.9e-05  3.854242  0.0  0.136179  7e-06  4.096695  0.0  0.138187  5e-06  4.120156  0.0  0.077746  0.134642  1.7e-05  4.080987  0.0
C  C40  1  0.44202704  0.09753304  0.69926451  1  0.130509  -1.8e-05  3.854453  0.0  0.136151  6e-06  4.096705  0.0  0.138162  5e-06  4.120165  0.0  0.077757  0.134611  1.7e-05  4.080999  0.0
C  C41  1  0.70126480  0.80484375  0.34110188  1  -0.14189  0.000153  3.747137  0.0  -0.15752  0.000116  3.991326  0.0  -0.159904  9.3e-05  4.011345  0.0  -0.097821  -0.155661  0.00012  3.977879  0.0
C  C42  1  0.29874521  0.19515816  0.65890260  1  -0.141671  0.000152  3.747343  0.0  -0.157353  0.000118  3.991491  0.0  -0.159737  9.1e-05  4.011505  0.0  -0.09773  -0.155491  0.00012  3.978036  0.0
C  C43  1  0.80915319  0.87313381  0.40799797  1  -0.095704  -8.2e-05  3.804879  0.0  -0.115997  -4.3e-05  4.068751  0.0  -0.118879  -3.3e-05  4.092086  0.0  -0.109932  -0.11414  -5.3e-05  4.053114  0.0
C  C44  1  0.19084783  0.12688247  0.59200980  1  -0.096006  -8.1e-05  3.8051  0.0  -0.116333  -4.4e-05  4.068993  0.0  -0.119206  -3.2e-05  4.09233  0.0  -0.110125  -0.114476  -5.3e-05  4.053356  0.0
C  C45  1  0.77525677  0.03505857  0.43531724  1  -0.081893  0.000128  3.80296  0.0  -0.101092  6.5e-05  4.064269  0.0  -0.102494  4.7e-05  4.086327  0.0  -0.106311  -0.100159  8.9e-05  4.049558  0.0
C  C46  1  0.22473764  0.96495574  0.56469393  1  -0.081746  0.000124  3.802848  0.0  -0.100879  6.6e-05  4.064129  0.0  -0.102269  4.6e-05  4.086193  0.0  -0.106132  -0.099947  8.9e-05  4.049415  0.0
C  C47  1  0.63127749  0.13371077  0.39731679  1  -0.155787  -6.4e-05  3.780063  0.0  -0.174451  -3.2e-05  4.033543  0.0  -0.177869  -2.7e-05  4.055006  0.0  -0.097216  -0.172067  -2.7e-05  4.019009  0.0
C  C48  1  0.36872254  0.86629808  0.60267866  1  -0.155811  -6.3e-05  3.780311  0.0  -0.174499  -3.2e-05  4.03376  0.0  -0.177915  -2.7e-05  4.055214  0.0  -0.097241  -0.172123  -2.7e-05  4.019241  0.0
C  C49  1  0.52536324  0.06520502  0.32925185  1  0.153887  8.4e-05  3.825471  0.0  0.148349  2.4e-05  4.064143  0.0  0.152275  1.6e-05  4.087982  0.0  0.091544  0.145835  2.3e-05  4.047759  0.0
C  C50  1  0.47463163  0.93479038  0.67075160  1  0.153907  8.3e-05  3.825342  0.0  0.148444  2.4e-05  4.063829  0.0  0.152365  1.6e-05  4.087672  0.0  0.091584  0.14593  2.3e-05  4.047447  0.0
C  C51  1  0.10509268  0.46125013  0.23630892  1  0.630596  0.004665  3.87175  0.003  0.582377  0.002844  4.174888  0.002  0.619426  0.001668  4.167203  0.001  0.21698  0.556806  0.004122  4.179135  0.003
C  C52  1  0.89490183  0.53876723  0.76369139  1  0.630374  0.004668  3.871984  0.003  0.582218  0.002846  4.17505  0.002  0.619277  0.00167  4.16737  0.001  0.216958  0.556644  0.004125  4.1793  0.003
C  C53  1  0.88015705  0.44896295  0.43324582  1  -0.077669  0.000777  3.747776  0.0  -0.099672  0.000312  3.99955  0.0  -0.099905  0.000169  4.018851  0.0  -0.083658  -0.099485  0.00045  3.986556  0.0
C  C54  1  0.11983242  0.55102438  0.56675475  1  -0.077644  0.000762  3.746955  0.0  -0.099635  0.000313  3.998744  0.0  -0.099873  0.000168  4.018056  0.0  -0.083617  -0.099464  0.00045  3.985735  0.0
C  C55  1  0.04975361  0.48033545  0.37265763  1  -0.054957  0.001863  3.74967  0.001  -0.035977  0.001025  3.986471  0.001  -0.041776  0.000788  4.007058  0.001  -0.01404  -0.031987  0.001113  3.972722  0.001
C  C56  1  0.95022863  0.51964526  0.62734561  1  -0.055075  0.001875  3.749097  0.001  -0.036144  0.001024  3.985945  0.001  -0.041948  0.000789  4.006537  0.001  -0.014121  -0.032154  0.001112  3.972201  0.001
C  C57  1  0.16990808  0.53157444  0.44042961  1  -0.078104  0.000439  3.726161  0.0  -0.101103  0.000299  3.978284  0.0  -0.102116  0.000162  3.997431  0.0  -0.082846  -0.100263  0.000458  3.965314  0.0
C  C58  1  0.83006434  0.46842133  0.55956441  1  -0.077894  0.000422  3.726129  0.0  -0.100879  0.0003  3.978284  0.0  -0.101889  0.000161  3.997428  0.0  -0.082719  -0.100042  0.000459  3.96531  0.0
N  N59  1  0.11370519  0.68035535  0.00490173  1  -0.312907  0.014195  3.394176  0.009  -0.273242  0.009786  3.699326  0.007  -0.301069  0.009767  3.713492  0.007  -0.368735  -0.255702  0.009239  3.691663  0.007
N  N60  1  0.88628495  0.31965205  0.99510732  1  -0.312887  0.014187  3.394386  0.009  -0.273249  0.009784  3.699533  0.007  -0.301078  0.009767  3.713696  0.007  -0.36878  -0.255722  0.009238  3.691887  0.007
N  N61  1  0.17028927  0.90269103  0.07125164  1  -0.042174  0.001505  3.600767  0.001  0.048499  0.001286  3.818754  0.001  0.034475  0.000896  3.843839  0.001  -0.24242  0.057114  0.001625  3.803121  0.001
N  N62  1  0.82972446  0.09729660  0.92874738  1  -0.042136  0.001506  3.600606  0.001  0.048525  0.001287  3.818586  0.001  0.034504  0.000895  3.843659  0.001  -0.24238  0.057136  0.001626  3.802961  0.001
N  N63  1  0.43176193  0.86763480  0.23186434  1  -0.474463  -0.000121  2.955796  0.0  -0.446214  -0.000245  3.221374  0.0  -0.460278  -0.000166  3.231578  0.0  -0.344291  -0.436606  -0.000368  3.214536  0.0
N  N64  1  0.56824802  0.13236820  0.76813832  1  -0.474449  -0.000121  2.955961  0.0  -0.446274  -0.000245  3.2215  0.0  -0.460341  -0.000166  3.231709  0.0  -0.344378  -0.436665  -0.000368  3.214665  0.0
N  N65  1  0.37739419  0.12634443  0.27665121  1  -0.401804  -3.3e-05  3.356025  0.0  -0.343081  -5.7e-05  3.584383  0.0  -0.362233  -4e-05  3.597704  0.0  -0.38706  -0.329824  -8.2e-05  3.574794  0.0
N  N66  1  0.62262924  0.87364991  0.72334939  1  -0.401968  -3.2e-05  3.355774  0.0  -0.343236  -5.7e-05  3.584065  0.0  -0.362401  -4.1e-05  3.597349  0.0  -0.387107  -0.329976  -8.2e-05  3.574477  0.0
O  O67  1  0.97428270  0.48899075  0.17567687  1  -0.557723  0.017334  2.164906  0.014  -0.527659  0.007426  2.449067  0.006  -0.567404  0.007331  2.440029  0.007  -0.293096  -0.49973  0.006124  2.453719  0.005
O  O68  1  0.02570700  0.51101290  0.82432513  1  -0.557579  0.017323  2.165145  0.014  -0.527552  0.007422  2.449306  0.006  -0.567288  0.007327  2.440241  0.007  -0.29305  -0.499624  0.006119  2.453962  0.005
O  O69  1  0.27414572  0.41930002  0.19269045  1  -0.612902  0.001565  1.989647  0.001  -0.560794  0.000768  2.208086  0.0  -0.584893  0.000464  2.197645  0.0  -0.307645  -0.54421  0.00098  2.215197  0.0
O  O70  1  0.72583930  0.58071255  0.80729835  1  -0.612805  0.001567  1.989482  0.001  -0.560702  0.000769  2.207915  0.0  -0.58482  0.000465  2.19746  0.0  -0.307661  -0.544119  0.000981  2.215024  0.0
O  O71  1  0.70965065  0.68118001  0.03657931  1  -0.825919  -0.013499  1.88481  -0.022  -0.787705  -0.015368  2.072296  -0.023  -0.809388  -0.012395  2.038574  -0.019  -0.582545  -0.770814  -0.018677  2.096098  -0.028
O  O72  1  0.29035361  0.31881722  0.96341956  1  -0.825962  -0.013495  1.884656  -0.022  -0.787743  -0.015365  2.072143  -0.023  -0.809433  -0.012392  2.038435  -0.019  -0.582527  -0.770859  -0.018673  2.095971  -0.028
