# generated using pymatgen
data_BiH13C10Cl2O
_symmetry_space_group_name_H-M   'P 1'
_cell_length_a   8.06202842
_cell_length_b   8.89794781
_cell_length_c   16.62297395
_cell_angle_alpha   90.00001470
_cell_angle_beta   94.25893308
_cell_angle_gamma   89.99994234
_symmetry_Int_Tables_number   1
_chemical_formula_structural   BiH13C10Cl2O
_chemical_formula_sum   'Bi4 H52 C40 Cl8 O4'
_cell_volume   1189.16465152
_cell_formula_units_Z   4
loop_
 _symmetry_equiv_pos_site_id
 _symmetry_equiv_pos_as_xyz
  1  'x, y, z'
loop_
 _atom_site_type_symbol
 _atom_site_label
 _atom_site_symmetry_multiplicity
 _atom_site_fract_x
 _atom_site_fract_y
 _atom_site_fract_z
 _atom_site_occupancy
 _atom_site_pbe_bader_spin_density
 _atom_site_pbe_cm5_charge
 _atom_site_pbe_ddec_charge
 _atom_site_pbe_ddec_spin_density
 _atom_site_pbe_ddec_sum_bond_order
 _atom_site_pbe_magmom
Bi  Bi0  1  0.00017322  0.19566090  0.23423110  1  0  0.592468  0.980392  0  2.850699  0
Bi  Bi1  1  0.99982538  0.69566114  0.26576901  1  0  0.592445  0.98034  0  2.850733  0
Bi  Bi2  1  0.99984408  0.80434025  0.76576053  1  0  0.592473  0.980399  0  2.850803  0
Bi  Bi3  1  0.00015705  0.30434114  0.73424000  1  0  0.592477  0.980376  0  2.850812  0
H  H4  1  0.33818083  0.38741619  0.20186098  1  0  0.087426  0.095925  0  1.038083  0
H  H5  1  0.66181757  0.88741788  0.29813915  1  0  0.087432  0.095947  0  1.038064  0
H  H6  1  0.66182402  0.61258047  0.79813862  1  0  0.087449  0.095961  0  1.038056  0
H  H7  1  0.33817981  0.11258553  0.70186379  1  0  0.087446  0.095928  0  1.038081  0
H  H8  1  0.52406607  0.57444015  0.27415615  1  0  0.092413  0.091876  0  1.034905  0
H  H9  1  0.47593267  0.07444172  0.22584275  1  0  0.092404  0.091859  0  1.034906  0
H  H10  1  0.47594002  0.42555988  0.72584289  1  0  0.092399  0.091874  0  1.034915  0
H  H11  1  0.52405974  0.92555943  0.77415820  1  0  0.092405  0.091883  0  1.034936  0
H  H12  1  0.47704677  0.64929454  0.41414110  1  0  0.09455  0.097907  0  1.026462  0
H  H13  1  0.52295313  0.14929488  0.08585845  1  0  0.094542  0.0979  0  1.026439  0
H  H14  1  0.52295186  0.35070324  0.58586007  1  0  0.094567  0.097905  0  1.026398  0
H  H15  1  0.47704674  0.85070066  0.91414097  1  0  0.094569  0.097901  0  1.026403  0
H  H16  1  0.24331798  0.53202268  0.48391834  1  0  0.093118  0.097971  0  1.026062  0
H  H17  1  0.75667956  0.03202165  0.01608051  1  0  0.093129  0.097989  0  1.026076  0
H  H18  1  0.75667691  0.46797623  0.51608090  1  0  0.093065  0.097877  0  1.026066  0
H  H19  1  0.24331907  0.96797276  0.98391946  1  0  0.093106  0.097947  0  1.02605  0
H  H20  1  0.05744366  0.34962451  0.41232861  1  0  0.094034  0.094209  0  1.057429  0
H  H21  1  0.94255354  0.84962359  0.08767087  1  0  0.094038  0.094228  0  1.057487  0
H  H22  1  0.94255249  0.65037440  0.58766826  1  0  0.09404  0.094215  0  1.057441  0
H  H23  1  0.05744632  0.15037420  0.91233336  1  0  0.09403  0.094254  0  1.0574  0
H  H24  1  0.96445958  0.16529285  0.47726793  1  0  0.086768  0.05872  0  1.026105  0
H  H25  1  0.03553906  0.66529272  0.02273158  1  0  0.086752  0.058702  0  1.026116  0
H  H26  1  0.03554030  0.83470943  0.52272969  1  0  0.086767  0.058728  0  1.026095  0
H  H27  1  0.96446205  0.33470731  0.97726968  1  0  0.086759  0.05871  0  1.026131  0
H  H28  1  0.92197913  0.99478187  0.42198424  1  0  0.084795  0.05536  0  1.061365  0
H  H29  1  0.07802039  0.49478149  0.07801534  1  0  0.084806  0.055385  0  1.061361  0
H  H30  1  0.07802448  0.00521929  0.57801411  1  0  0.084791  0.055366  0  1.061379  0
H  H31  1  0.92197823  0.50521742  0.92198583  1  0  0.084808  0.05538  0  1.061376  0
H  H32  1  0.71119337  0.14841830  0.53513026  1  0  0.080787  0.081657  0  1.033043  0
H  H33  1  0.28880670  0.64841816  0.96486960  1  0  0.080804  0.081671  0  1.033025  0
H  H34  1  0.28881024  0.85157949  0.46486809  1  0  0.080799  0.081649  0  1.033025  0
H  H35  1  0.71119193  0.35157850  0.03513157  1  0  0.080813  0.081657  0  1.03301  0
H  H36  1  0.67093065  0.97452902  0.48627542  1  0  0.090557  0.098188  0  1.000258  0
H  H37  1  0.32907014  0.47452837  0.01372421  1  0  0.090555  0.098174  0  1.000233  0
H  H38  1  0.32907295  0.02546989  0.51372293  1  0  0.090546  0.098134  0  1.000245  0
H  H39  1  0.67092973  0.52546829  0.98627701  1  0  0.090545  0.098161  0  1.000252  0
H  H40  1  0.50958268  0.08705476  0.37671166  1  0  0.086371  0.092749  0  1.007151  0
H  H41  1  0.49041605  0.58705427  0.12328724  1  0  0.086367  0.092755  0  1.007186  0
H  H42  1  0.49041595  0.91294302  0.62328711  1  0  0.086377  0.092758  0  1.007174  0
H  H43  1  0.50958507  0.41294464  0.87671283  1  0  0.086364  0.092747  0  1.007174  0
H  H44  1  0.48384024  0.23578347  0.44521461  1  0  0.092143  0.099985  0  1.001324  0
H  H45  1  0.51615957  0.73578292  0.05478435  1  0  0.092139  0.1  0  1.001322  0
H  H46  1  0.51616088  0.76421656  0.55478485  1  0  0.092128  0.099971  0  1.001345  0
H  H47  1  0.48384030  0.26421599  0.94521507  1  0  0.092137  0.099987  0  1.001319  0
H  H48  1  0.63419549  0.28660857  0.30393355  1  0  0.091871  0.063868  0  1.042492  0
H  H49  1  0.36580426  0.78660823  0.19606542  1  0  0.09187  0.06386  0  1.042513  0
H  H50  1  0.36580314  0.71339146  0.69606462  1  0  0.091889  0.06389  0  1.042473  0
H  H51  1  0.63419685  0.21339181  0.80393465  1  0  0.09188  0.063867  0  1.042498  0
H  H52  1  0.71024107  0.37979971  0.39393355  1  0  0.086044  0.056697  0  1.025605  0
H  H53  1  0.28975983  0.87979939  0.10606607  1  0  0.086043  0.056694  0  1.025606  0
H  H54  1  0.28976005  0.62019920  0.60606531  1  0  0.086045  0.056709  0  1.025574  0
H  H55  1  0.71024005  0.12019839  0.89393395  1  0  0.086039  0.056697  0  1.025594  0
C  C56  1  0.18579676  0.35421425  0.30214084  1  0  -0.122827  -0.251831  0  3.9439  0
C  C57  1  0.81420043  0.85421350  0.19785864  1  0  -0.122787  -0.251749  0  3.943913  0
C  C58  1  0.81420685  0.64578691  0.69785812  1  0  -0.122874  -0.251864  0  3.94383  0
C  C59  1  0.18579446  0.14579215  0.80214420  1  0  -0.122836  -0.251809  0  3.94386  0
C  C60  1  0.31725799  0.41920557  0.26372888  1  0  -0.104417  -0.087945  0  4.060789  0
C  C61  1  0.68273913  0.91920608  0.23627000  1  0  -0.104403  -0.087943  0  4.060823  0
C  C62  1  0.68274811  0.58079446  0.73627076  1  0  -0.10434  -0.087873  0  4.06066  0
C  C63  1  0.31725576  0.08079957  0.76373224  1  0  -0.104333  -0.087848  0  4.06076  0
C  C64  1  0.42057286  0.52583574  0.30397333  1  0  -0.094104  -0.081504  0  4.001591  0
C  C65  1  0.57942469  0.02583608  0.19602552  1  0  -0.094101  -0.081508  0  4.001674  0
C  C66  1  0.57943198  0.47416205  0.69602627  1  0  -0.094138  -0.08157  0  4.001765  0
C  C67  1  0.42056772  0.97416508  0.80397483  1  0  -0.094121  -0.081565  0  4.001777  0
C  C68  1  0.39467186  0.56731949  0.38316652  1  0  -0.095528  -0.09482  0  4.010814  0
C  C69  1  0.60532564  0.06731977  0.11683353  1  0  -0.095558  -0.094862  0  4.010925  0
C  C70  1  0.60532925  0.43267717  0.61683414  1  0  -0.095548  -0.094814  0  4.010813  0
C  C71  1  0.39467175  0.93267802  0.88316699  1  0  -0.095573  -0.094804  0  4.0108  0
C  C72  1  0.26477711  0.50201686  0.42197498  1  0  -0.096719  -0.084543  0  4.008721  0
C  C73  1  0.73521922  0.00201588  0.07802322  1  0  -0.096697  -0.084491  0  4.008719  0
C  C74  1  0.73522027  0.49798092  0.57802555  1  0  -0.096662  -0.084415  0  4.008547  0
C  C75  1  0.26477941  0.99798191  0.92197615  1  0  -0.096699  -0.084547  0  4.008652  0
C  C76  1  0.16021241  0.39655775  0.38158563  1  0  -0.105997  -0.098797  0  4.087174  0
C  C77  1  0.83978846  0.89655581  0.11841400  1  0  -0.106031  -0.098914  0  4.087259  0
C  C78  1  0.83978746  0.60344116  0.61841319  1  0  -0.105997  -0.09884  0  4.087119  0
C  C79  1  0.16021389  0.10344309  0.88158912  1  0  -0.106035  -0.098882  0  4.087211  0
C  C80  1  0.87125766  0.10393154  0.43820074  1  0  -0.078895  0.028455  0  3.806889  0
C  C81  1  0.12874105  0.60393247  0.06179876  1  0  -0.078883  0.028429  0  3.806862  0
C  C82  1  0.12874346  0.89606849  0.56179692  1  0  -0.078907  0.028404  0  3.806882  0
C  C83  1  0.87125882  0.39606756  0.93820306  1  0  -0.078921  0.028375  0  3.806936  0
C  C84  1  0.70384555  0.09223342  0.47625623  1  0  -0.170175  -0.17515  0  3.878774  0
C  C85  1  0.29615442  0.59223306  0.02374271  1  0  -0.170196  -0.175112  0  3.878656  0
C  C86  1  0.29615682  0.90776436  0.52374147  1  0  -0.170166  -0.17505  0  3.878665  0
C  C87  1  0.70384545  0.40776360  0.97625791  1  0  -0.170154  -0.175046  0  3.878672  0
C  C88  1  0.57703071  0.16976483  0.41572079  1  0  -0.169868  -0.174834  0  3.89806  0
C  C89  1  0.42296916  0.66976550  0.08427936  1  0  -0.169876  -0.174931  0  3.898189  0
C  C90  1  0.42296791  0.83023296  0.58427858  1  0  -0.169867  -0.174875  0  3.898283  0
C  C91  1  0.57703195  0.33023228  0.91572070  1  0  -0.169888  -0.174906  0  3.898218  0
C  C92  1  0.68441246  0.26892134  0.36622908  1  0  -0.080244  0.019398  0  3.871332  0
C  C93  1  0.31558731  0.76892101  0.13377049  1  0  -0.080234  0.019437  0  3.871332  0
C  C94  1  0.31558741  0.73107757  0.63376914  1  0  -0.080243  0.019382  0  3.871381  0
C  C95  1  0.68441256  0.23107678  0.86623074  1  0  -0.080191  0.019472  0  3.871339  0
Cl  Cl96  1  0.16684528  0.19617889  0.10721920  1  0  -0.225285  -0.424268  0  1.131943  0
Cl  Cl97  1  0.83315332  0.69617934  0.39278091  1  0  -0.225281  -0.424257  0  1.131928  0
Cl  Cl98  1  0.83317202  0.80382901  0.89277123  1  0  -0.225309  -0.424271  0  1.131898  0
Cl  Cl99  1  0.16682911  0.30382856  0.60722810  1  0  -0.225321  -0.424279  0  1.131872  0
Cl  Cl100  1  0.17759041  0.96289393  0.30613884  1  0  -0.183651  -0.397768  0  1.241954  0
Cl  Cl101  1  0.82240914  0.46289517  0.19386074  1  0  -0.18364  -0.39776  0  1.241952  0
Cl  Cl102  1  0.82240698  0.03711509  0.69385808  1  0  -0.183667  -0.397798  0  1.241928  0
Cl  Cl103  1  0.17759445  0.53711498  0.80614182  1  0  -0.183659  -0.39779  0  1.241956  0
O  O104  1  0.83923465  0.18686639  0.36296622  1  0  -0.22563  -0.241881  0  2.526966  0
O  O105  1  0.16076397  0.68686621  0.13703329  1  0  -0.225629  -0.241846  0  2.526939  0
O  O106  1  0.16076399  0.81313252  0.63703075  1  0  -0.225626  -0.241852  0  2.526995  0
O  O107  1  0.83923589  0.31313046  0.86296913  1  0  -0.225653  -0.241874  0  2.526934  0
