# generated using pymatgen
data_NiH10C12(NO3)2
_symmetry_space_group_name_H-M   'P 1'
_cell_length_a   8.58840334
_cell_length_b   11.51618909
_cell_length_c   11.51237508
_cell_angle_alpha   119.56625538
_cell_angle_beta   90.52795718
_cell_angle_gamma   89.43440380
_symmetry_Int_Tables_number   1
_chemical_formula_structural   NiH10C12(NO3)2
_chemical_formula_sum   'Ni3 H30 C36 N6 O18'
_cell_volume   990.31151917
_cell_formula_units_Z   3
loop_
 _symmetry_equiv_pos_site_id
 _symmetry_equiv_pos_as_xyz
  1  'x, y, z'
loop_
 _atom_site_type_symbol
 _atom_site_label
 _atom_site_symmetry_multiplicity
 _atom_site_fract_x
 _atom_site_fract_y
 _atom_site_fract_z
 _atom_site_occupancy
 _atom_site_hle17_ddec_charge
 _atom_site_hle17_ddec_spin_density
 _atom_site_hle17_ddec_sum_bond_order
 _atom_site_hle17_magmom
 _atom_site_hse06_10hf_ddec_charge
 _atom_site_hse06_10hf_ddec_spin_density
 _atom_site_hse06_10hf_ddec_sum_bond_order
 _atom_site_hse06_10hf_magmom
 _atom_site_hse06_ddec_charge
 _atom_site_hse06_ddec_spin_density
 _atom_site_hse06_ddec_sum_bond_order
 _atom_site_hse06_magmom
 _atom_site_pbe_cm5_charge
 _atom_site_pbe_ddec_charge
 _atom_site_pbe_ddec_spin_density
 _atom_site_pbe_ddec_sum_bond_order
 _atom_site_pbe_magmom
Ni  Ni0  1  0.00005168  0.28945838  0.28950692  1  0.883567  -1.985603  2.042132  -1.525  0.885316  -2.004225  2.43656  -1.632  0.965593  -2.064165  2.364894  -1.712  0.656518  0.829269  -1.950549  2.487776  -1.564
Ni  Ni1  1  0.33454997  0.70669696  0.00090438  1  0.82526  0.075111  2.106932  0.0  0.830017  0.07868  2.509065  0.0  0.915431  0.085856  2.432879  0.0  0.650567  0.776258  0.073333  2.560735  0.001
Ni  Ni2  1  0.66539788  0.00084242  0.70639406  1  0.82382  0.074729  2.113248  0.0  0.828368  0.078035  2.516035  0.0  0.913996  0.085311  2.439352  0.0  0.651693  0.774842  0.070488  2.567537  -0.001
H  H3  1  0.47995846  0.60057730  0.40866146  1  0.119171  -0.000295  0.940817  0.0  0.126469  -0.00037  1.001127  0.0  0.130505  -0.000269  0.999348  0.0  0.11114  0.123581  -0.00047  1.002536  -0.001
H  H4  1  0.81731900  0.59097697  0.19160701  1  0.12114  0.000115  0.937363  0.0  0.128789  0.000274  0.996981  0.0  0.132344  0.000229  0.995746  0.0  0.113246  0.126287  -0.000598  0.998023  0.0
H  H5  1  0.14710019  0.80953900  0.40876814  1  0.119836  -0.00024  0.942889  0.0  0.126827  -0.000315  1.003717  0.0  0.130509  -0.000237  1.002334  0.0  0.111678  0.124195  -0.000342  1.004896  0.0
H  H6  1  0.51994759  0.40911276  0.60075198  1  0.118877  -0.000287  0.940487  0.0  0.126295  -0.000371  1.000722  0.0  0.130327  -0.00027  0.998942  0.0  0.111011  0.123415  -0.000504  1.002123  -0.001
H  H7  1  0.18232986  0.19138888  0.59136666  1  0.121013  0.000109  0.937083  0.0  0.128481  0.000268  0.996911  0.0  0.132105  0.000226  0.995611  0.0  0.113117  0.125925  0.000292  0.997995  0.0
H  H8  1  0.85307291  0.40829861  0.80922614  1  0.12001  -0.000228  0.942523  0.0  0.126833  -0.000316  1.003487  0.0  0.130559  -0.000237  1.002073  0.0  0.111672  0.124164  0.000527  1.00467  0.0
H  H9  1  0.11581107  0.72399835  0.69971504  1  0.120301  -1.8e-05  0.973386  0.0  0.128294  4.3e-05  1.038328  0.0  0.133032  4.1e-05  1.034626  0.0  0.11404  0.124526  -0.000745  1.041381  -0.001
H  H10  1  0.45168257  0.30062491  0.02873753  1  0.122154  -2.8e-05  0.970004  0.0  0.12979  -4.2e-05  1.034904  0.0  0.134245  -2.7e-05  1.031474  0.0  0.115911  0.126353  -0.000809  1.037631  -0.001
H  H11  1  0.78010151  0.96998002  0.27281490  1  0.123394  -0.000573  0.973318  0.0  0.13065  -0.000708  1.038493  0.0  0.135138  -0.000508  1.03488  0.0  0.115434  0.12719  -0.000705  1.041365  0.0
H  H12  1  0.88377809  0.69995930  0.72398412  1  0.120072  -2.4e-05  0.973682  0.0  0.128018  3.9e-05  1.038711  0.0  0.132714  3.8e-05  1.035092  0.0  0.113845  0.124274  -0.000181  1.041725  -0.001
H  H13  1  0.54846815  0.02910774  0.30090360  1  0.122089  -7.1e-05  0.970837  0.0  0.129827  -5.6e-05  1.03554  0.0  0.134233  -3.6e-05  1.032184  0.0  0.116096  0.12638  0.000797  1.0383  0.0
H  H14  1  0.22042286  0.27271880  0.96987931  1  0.122893  -0.000572  0.972788  0.0  0.130332  -0.000707  1.037922  0.0  0.134836  -0.000507  1.034298  0.0  0.115304  0.126854  -0.000171  1.040774  0.0
H  H15  1  0.31403821  0.40070028  0.25595827  1  0.089792  -0.000943  0.948925  -0.002  0.096266  -0.000669  1.014231  -0.001  0.098397  -0.000464  1.01268  -0.001  0.117758  0.09458  -0.000895  1.015702  -0.002
H  H16  1  0.64995278  0.74243327  0.14032864  1  0.094753  0.001132  0.948867  0.001  0.100509  0.000873  1.014436  0.001  0.102598  0.00067  1.012632  0.001  0.120998  0.09893  -0.000804  1.016057  -0.001
H  H17  1  0.98074355  0.86190485  0.60953287  1  0.09573  -0.00089  0.949682  -0.001  0.100786  -0.000676  1.016143  -0.001  0.102861  -0.000528  1.014266  -0.001  0.121197  0.099177  -0.000782  1.01783  -0.001
H  H18  1  0.68622566  0.25631733  0.40086210  1  0.08951  -0.000943  0.949425  -0.002  0.096306  -0.00067  1.01445  -0.001  0.098426  -0.000464  1.012907  -0.001  0.117768  0.094614  -0.000901  1.015939  -0.002
H  H19  1  0.34979770  0.14021031  0.74280186  1  0.09471  0.001084  0.948959  0.001  0.100581  0.00086  1.014472  0.001  0.102583  0.000662  1.012754  0.001  0.121077  0.099059  0.001059  1.016037  0.001
H  H20  1  0.01904261  0.60928693  0.86179060  1  0.095101  -0.000879  0.949975  -0.001  0.100236  -0.000679  1.016351  -0.001  0.102338  -0.000529  1.014469  -0.001  0.1207  0.098619  0.001029  1.018047  0.001
H  H21  1  0.08763631  0.16815310  0.03761850  1  0.423599  0.000137  0.880235  0.001  0.394777  -0.000324  0.940758  0.0  0.406891  -0.000169  0.923246  0.0  0.290339  0.386121  -0.000509  0.953252  0.0
H  H22  1  0.41921286  0.95202365  0.12260058  1  0.42583  -2e-06  0.874562  0.0  0.397419  -0.000441  0.934497  0.0  0.409365  -0.000287  0.917381  0.0  0.295228  0.389061  0.000774  0.946431  0.0
H  H23  1  0.75335117  0.87801445  0.83203010  1  0.427715  0.000301  0.871169  0.0  0.398062  0.000661  0.933056  0.0  0.41022  0.000472  0.915641  0.0  0.294989  0.389497  0.000791  0.945293  0.0
H  H24  1  0.91201956  0.03786766  0.16850358  1  0.423881  0.00015  0.879961  0.001  0.394909  -0.000315  0.94074  0.0  0.407011  -0.000161  0.923242  0.0  0.290075  0.386267  -0.000461  0.953221  0.0
H  H25  1  0.58120449  0.12238755  0.95184429  1  0.42592  -7e-06  0.874449  0.0  0.397275  -0.000442  0.934799  0.0  0.409233  -0.000291  0.917687  0.0  0.295136  0.388905  -0.000533  0.946722  0.0
H  H26  1  0.24644297  0.83244536  0.87776990  1  0.427347  0.000302  0.871788  0.0  0.398231  0.000661  0.93282  0.0  0.4104  0.000469  0.9154  0.0  0.294719  0.389653  -0.000558  0.945077  0.0
H  H27  1  0.21210400  0.14843444  0.13874582  1  0.415754  0.000356  0.893511  0.001  0.384432  -0.000174  0.958006  0.0  0.397336  2.3e-05  0.939354  0.0  0.286828  0.375171  -0.000396  0.971375  0.0
H  H28  1  0.54510493  0.85122336  0.00315544  1  0.417715  7.1e-05  0.890292  0.001  0.384832  -0.000379  0.957208  0.0  0.398006  -0.000192  0.93844  0.0  0.288261  0.375491  0.000746  0.970474  0.0
H  H29  1  0.87808954  0.99821877  0.84886034  1  0.418285  0.000247  0.889459  -0.001  0.385452  0.000673  0.956077  0.0  0.398503  0.000411  0.937486  0.0  0.28896  0.376222  0.000772  0.969193  0.0
H  H30  1  0.78763115  0.13912487  0.14892200  1  0.415149  0.000359  0.894531  0.001  0.384071  -0.000174  0.958678  0.0  0.396985  2.4e-05  0.94001  0.0  0.286551  0.374792  -0.000286  0.972084  0.0
H  H31  1  0.45550280  0.00269186  0.85112297  1  0.41735  7.2e-05  0.890708  0.001  0.384738  -0.000374  0.957208  0.0  0.397876  -0.000189  0.938483  0.0  0.288289  0.375453  -0.000538  0.970384  0.0
H  H32  1  0.12147465  0.84919418  0.99798366  1  0.417866  0.000242  0.889982  -0.001  0.385267  0.000674  0.956254  0.0  0.398325  0.00041  0.937643  0.0  0.288837  0.37604  -0.00049  0.969373  0.0
C  C33  1  0.36558409  0.58560193  0.43906776  1  -0.117222  -0.010435  3.694358  -0.012  -0.139442  -0.003233  3.941379  -0.004  -0.144008  -0.003162  3.959185  -0.004  -0.073448  -0.136552  -0.00352  3.930457  -0.005
C  C34  1  0.70277940  0.55975409  0.14577405  1  -0.113953  0.015643  3.687536  0.013  -0.136956  0.003981  3.936162  0.003  -0.141627  0.004079  3.953435  0.003  -0.071243  -0.13411  -0.002202  3.925956  -0.003
C  C35  1  0.03217259  0.85484635  0.42127404  1  -0.116488  -0.0095  3.692935  -0.01  -0.138908  -0.002565  3.940945  -0.003  -0.143903  -0.002607  3.958434  -0.003  -0.073245  -0.135737  -0.002535  3.930491  -0.003
C  C36  1  0.63432826  0.43939869  0.58569677  1  -0.116648  -0.010463  3.694117  -0.012  -0.139068  -0.003236  3.941308  -0.004  -0.143632  -0.003163  3.959109  -0.004  -0.073643  -0.136184  -0.003577  3.930381  -0.005
C  C37  1  0.29707213  0.14570074  0.56008020  1  -0.114241  0.015477  3.684921  0.013  -0.136993  0.00394  3.933692  0.003  -0.141778  0.004044  3.950892  0.003  -0.07148  -0.134075  0.004211  3.923563  0.004
C  C38  1  0.96803598  0.42096302  0.85459496  1  -0.116359  -0.009585  3.690929  -0.011  -0.138573  -0.002585  3.938534  -0.003  -0.143603  -0.002627  3.956093  -0.003  -0.073047  -0.135368  0.003421  3.928032  0.003
C  C39  1  0.16136577  0.65536005  0.60128705  1  -0.135815  -0.008113  3.672587  -0.009  -0.165804  -0.002111  3.916888  -0.002  -0.170467  -0.002204  3.934217  -0.002  -0.06979  -0.162857  -0.002641  3.906699  -0.003
C  C40  1  0.49810392  0.39821190  0.05588963  1  -0.128569  0.012811  3.6702  0.01  -0.1589  0.002563  3.914428  0.002  -0.163872  0.00289  3.931673  0.002  -0.066413  -0.155741  -0.002409  3.904376  -0.003
C  C41  1  0.82674802  0.94304732  0.34439875  1  -0.132642  -0.008568  3.669937  -0.01  -0.161745  -0.002284  3.914072  -0.003  -0.166757  -0.002283  3.931208  -0.003  -0.068262  -0.158544  -0.002345  3.904003  -0.003
C  C42  1  0.83847308  0.60150569  0.65532261  1  -0.135683  -0.00812  3.673691  -0.009  -0.165713  -0.002115  3.91795  -0.002  -0.170368  -0.002206  3.935335  -0.002  -0.069607  -0.162777  -0.002325  3.907726  -0.003
C  C43  1  0.50193976  0.05617444  0.39847738  1  -0.128593  0.012766  3.670317  0.01  -0.159016  0.002511  3.91476  0.002  -0.164002  0.002846  3.93201  0.002  -0.066607  -0.155824  0.003071  3.904722  0.002
C  C44  1  0.17360994  0.34426716  0.94291429  1  -0.132617  -0.008614  3.668317  -0.01  -0.161972  -0.002304  3.912456  -0.003  -0.16701  -0.002304  3.929636  -0.003  -0.068304  -0.158724  0.00237  3.902351  0.002
C  C45  1  0.30794993  0.67724979  0.56537585  1  0.00044  0.016955  3.72065  0.013  0.01775  0.005796  3.956311  0.005  0.017253  0.004974  3.974034  0.004  0.002658  0.0168  0.007554  3.945584  0.006
C  C46  1  0.64582675  0.43369425  0.11319048  1  4.8e-05  -0.014496  3.717652  -0.016  0.016469  -0.004683  3.954257  -0.005  0.017035  -0.004166  3.970743  -0.005  0.004732  0.014596  -0.003363  3.944736  -0.004
C  C47  1  0.97466189  0.88595620  0.32562194  1  0.00028  0.009358  3.714942  0.007  0.016842  0.001109  3.950722  0.001  0.017385  0.001815  3.967534  0.001  0.00372  0.014994  0.002567  3.940775  0.002
C  C48  1  0.69193985  0.56562770  0.67732508  1  0.000719  0.016898  3.720407  0.013  0.018256  0.005783  3.95566  0.005  0.017779  0.004965  3.973364  0.004  0.003248  0.01731  0.005631  3.944945  0.004
C  C49  1  0.35399012  0.11319072  0.43391661  1  0.001037  -0.014445  3.715663  -0.016  0.017311  -0.004664  3.952623  -0.005  0.018004  -0.004147  3.969031  -0.005  0.004794  0.01534  -0.005339  3.943151  -0.006
C  C50  1  0.02568933  0.32543186  0.88583669  1  0.000294  0.009458  3.714134  0.007  0.016952  0.00114  3.949603  0.001  0.017469  0.001844  3.966499  0.001  0.003536  0.01512  -0.001898  3.939583  -0.002
C  C51  1  0.40253658  0.79710774  0.66049946  1  0.637907  -0.000766  3.894421  -0.002  0.589694  0.000323  4.197001  0.0  0.623584  9.8e-05  4.190384  0.0  0.210377  0.566812  0.000588  4.200787  0.0
C  C52  1  0.73852949  0.33665120  0.13901674  1  0.644686  0.005435  3.875858  0.006  0.596841  0.000352  4.178397  0.001  0.631463  0.000492  4.171949  0.001  0.216359  0.573014  0.000234  4.182069  0.001
C  C53  1  0.07013245  0.85933578  0.20523216  1  0.637298  0.000376  3.897714  0.0  0.589867  -9e-06  4.200102  0.0  0.623799  5.9e-05  4.192938  0.0  0.210278  0.566897  0.00027  4.204473  0.0
C  C54  1  0.59764690  0.66093765  0.79753793  1  0.638262  -0.000761  3.892063  -0.002  0.589948  0.000319  4.194375  0.0  0.623894  9.6e-05  4.187751  0.0  0.210575  0.567019  0.00013  4.198144  0.0
C  C55  1  0.26126562  0.13897374  0.33687951  1  0.644193  0.005432  3.8763  0.006  0.596222  0.000357  4.179098  0.001  0.630803  0.000497  4.172663  0.001  0.21619  0.572404  0.000486  4.182793  0.001
C  C56  1  0.92992275  0.20528617  0.85928664  1  0.636671  0.000354  3.898252  0.0  0.589452  -1e-05  4.200228  0.0  0.623325  5.6e-05  4.193088  0.0  0.209877  0.566524  1.4e-05  4.204612  0.0
C  C57  1  0.07704019  0.54338270  0.51174940  1  0.177223  0.010829  3.755058  0.009  0.176122  0.002272  4.000009  0.002  0.183429  0.002753  4.018747  0.003  0.123297  0.170519  0.002424  3.98867  0.002
C  C58  1  0.41267369  0.48694447  0.03104938  1  0.175288  -0.008339  3.756604  -0.011  0.173265  -0.00101  4.001481  -0.003  0.181328  -0.00173  4.020257  -0.003  0.124025  0.1669  0.000445  3.990645  0.001
C  C59  1  0.74205744  0.96911781  0.45727728  1  0.175932  0.010532  3.755519  0.01  0.172902  0.001691  4.000897  0.002  0.181329  0.002531  4.019426  0.003  0.123291  0.166316  0.0011  3.990175  0.002
C  C60  1  0.92294592  0.51196139  0.54333376  1  0.177738  0.010828  3.755832  0.009  0.17618  0.002272  4.000949  0.002  0.183481  0.002752  4.01963  0.003  0.123745  0.170587  0.002396  3.989585  0.002
C  C61  1  0.58739656  0.03123807  0.48712005  1  0.175119  -0.008331  3.754922  -0.011  0.17305  -0.001019  4.000227  -0.003  0.181165  -0.00173  4.01896  -0.003  0.124025  0.166587  -0.000517  3.989461  -0.002
C  C62  1  0.25810337  0.45718581  0.96892263  1  0.175054  0.010613  3.75581  0.01  0.172261  0.001708  4.000922  0.002  0.180649  0.002552  4.019472  0.003  0.123163  0.165676  -0.000179  3.990152  -0.002
C  C63  1  0.27491548  0.47594323  0.35483807  1  0.133447  0.015696  3.676319  0.013  0.106951  0.003773  3.933808  0.004  0.11491  0.004128  3.951002  0.004  0.052223  0.100887  0.004085  3.923262  0.004
C  C64  1  0.61124547  0.64382799  0.11814726  1  0.135509  -0.007158  3.655004  -0.009  0.10763  0.00055  3.912693  -0.001  0.117145  -0.000446  3.929634  -0.001  0.054551  0.100207  -0.000384  3.902765  0.0
C  C65  1  0.94138393  0.88330827  0.53188482  1  0.135108  0.009528  3.656064  0.008  0.10711  0.000386  3.914121  0.0  0.116954  0.001317  3.930992  0.001  0.053707  0.099412  -0.000307  3.904248  0.0
C  C66  1  0.72516083  0.35515156  0.47605768  1  0.133869  0.015706  3.677476  0.013  0.106794  0.003777  3.935166  0.004  0.11472  0.00413  3.952357  0.004  0.052268  0.100743  0.004126  3.924595  0.004
C  C67  1  0.38868002  0.11808888  0.64415949  1  0.135399  -0.007049  3.652609  -0.009  0.107374  0.000559  3.910403  0.0  0.11703  -0.000426  3.927394  -0.001  0.054502  0.099803  0.001341  3.900496  0.0
C  C68  1  0.05868056  0.53161912  0.88311593  1  0.13497  0.009554  3.656083  0.008  0.107073  0.000398  3.913902  0.0  0.116829  0.001337  3.930815  0.001  0.054027  0.099408  0.001233  3.903996  0.0
N  N69  1  0.13391473  0.45507891  0.39023068  1  -0.291534  -0.065524  3.27803  -0.091  -0.257983  -0.041899  3.560106  -0.06  -0.28181  -0.034137  3.576677  -0.05  -0.317336  -0.241797  -0.048655  3.549615  -0.067
N  N70  1  0.46938451  0.60831244  0.06160527  1  -0.272764  0.072733  3.292733  0.068  -0.238085  0.045749  3.577806  0.042  -0.266835  0.039474  3.595917  0.037  -0.318075  -0.219143  -0.035887  3.566626  -0.045
N  N71  1  0.79948037  0.93987535  0.55006874  1  -0.274563  -0.050525  3.298656  -0.065  -0.239272  -0.032076  3.58401  -0.041  -0.268447  -0.027345  3.60204  -0.035  -0.319348  -0.219967  -0.035448  3.572685  -0.045
N  N72  1  0.86617560  0.39044752  0.45519301  1  -0.292208  -0.065621  3.279664  -0.091  -0.257969  -0.041964  3.561339  -0.06  -0.281725  -0.034188  3.577846  -0.05  -0.317709  -0.241758  -0.048793  3.550774  -0.068
N  N73  1  0.53060898  0.06151306  0.60850804  1  -0.272439  0.071245  3.293913  0.067  -0.237935  0.044998  3.579688  0.041  -0.266832  0.038911  3.597695  0.036  -0.318698  -0.218915  0.049964  3.568514  0.046
N  N74  1  0.20056051  0.54996474  0.93969028  1  -0.274517  -0.050666  3.295642  -0.065  -0.239468  -0.032316  3.580748  -0.041  -0.268392  -0.027499  3.5987  -0.036  -0.318978  -0.220256  0.048936  3.56946  0.045
O  O75  1  0.34594670  0.87510329  0.77658098  1  -0.631093  0.002163  1.986827  0.003  -0.568592  0.001254  2.197547  0.002  -0.592893  0.00084  2.18476  0.001  -0.314538  -0.552478  0.000875  2.206562  0.001
O  O76  1  0.68249557  0.22005195  0.09546412  1  -0.620031  0.001291  1.997744  0.001  -0.55894  0.000823  2.208039  0.0  -0.583588  0.000956  2.195714  0.001  -0.307135  -0.542666  0.000882  2.216863  0.0
O  O77  1  0.01196878  0.89592805  0.12522338  1  -0.629494  -0.000213  1.995434  -0.001  -0.567427  -0.000366  2.20663  -0.001  -0.592002  -0.000145  2.193999  -0.001  -0.313847  -0.551203  0.00059  2.215643  0.001
O  O78  1  0.65453932  0.77685698  0.87526870  1  -0.631792  0.002174  1.986218  0.003  -0.568748  0.001252  2.196687  0.002  -0.593088  0.000841  2.183895  0.001  -0.314779  -0.552635  0.000362  2.205752  0.0
O  O79  1  0.31739975  0.09552122  0.22025169  1  -0.620273  0.00131  1.996777  0.001  -0.559159  0.00082  2.207189  0.0  -0.583801  0.000956  2.19489  0.001  -0.307106  -0.542916  0.001536  2.216038  0.001
O  O80  1  0.98770707  0.12497075  0.89568190  1  -0.629701  -0.00024  1.99572  -0.001  -0.567796  -0.000368  2.207051  -0.001  -0.592346  -0.000147  2.19435  -0.001  -0.3141  -0.551583  -0.000874  2.216089  -0.002
O  O81  1  0.53084515  0.81148259  0.61662591  1  -0.589793  0.00867  2.005607  0.009  -0.565408  0.004439  2.260147  0.005  -0.596748  0.003366  2.250799  0.004  -0.305888  -0.542984  0.005184  2.265675  0.006
O  O82  1  0.86454969  0.38045533  0.20415079  1  -0.583125  -0.052663  2.043682  -0.078  -0.561192  -0.033973  2.30796  -0.052  -0.597094  -0.025685  2.300744  -0.041  -0.302836  -0.533754  -0.042625  2.311072  -0.063
O  O83  1  0.19989185  0.80205487  0.19256841  1  -0.588843  -0.004824  1.99598  -0.007  -0.56563  -0.002637  2.248742  -0.005  -0.596203  -0.00182  2.239135  -0.003  -0.306196  -0.543845  0.005179  2.2547  0.006
O  O84  1  0.46943910  0.61730971  0.81242212  1  -0.588923  0.007884  2.007101  0.008  -0.564937  0.004219  2.262447  0.005  -0.596507  0.003191  2.253233  0.004  -0.305436  -0.542262  -0.002172  2.2679  -0.004
O  O85  1  0.13515451  0.20409222  0.38071769  1  -0.582761  -0.052723  2.044066  -0.078  -0.560817  -0.034007  2.308404  -0.052  -0.596689  -0.025702  2.301209  -0.041  -0.302712  -0.533359  -0.042607  2.311489  -0.063
O  O86  1  0.80012951  0.19321311  0.80234139  1  -0.589333  -0.004246  1.994012  -0.007  -0.565831  -0.002494  2.24587  -0.004  -0.59619  -0.001709  2.236153  -0.003  -0.306076  -0.544273  -0.003421  2.251919  -0.006
O  O87  1  0.14424214  0.21240238  0.12487255  1  -0.824917  -0.045751  1.976543  -0.066  -0.792596  -0.032668  2.183968  -0.047  -0.823333  -0.025376  2.14773  -0.038  -0.581287  -0.769005  -0.039409  2.208646  -0.055
O  O88  1  0.47682404  0.86522760  0.08076898  1  -0.801123  -0.038241  2.002723  -0.051  -0.769902  -0.027484  2.21566  -0.037  -0.806662  -0.022455  2.181282  -0.031  -0.568123  -0.741821  0.043051  2.23818  0.042
O  O89  1  0.80854251  0.92102471  0.78721426  1  -0.800899  0.052001  2.00748  0.05  -0.768341  0.037457  2.222125  0.036  -0.805328  0.031258  2.187466  0.03  -0.566999  -0.740154  0.042123  2.244757  0.041
O  O90  1  0.85541801  0.12514948  0.21289048  1  -0.82497  -0.045917  1.976104  -0.066  -0.792893  -0.032754  2.183451  -0.047  -0.823661  -0.025429  2.14727  -0.038  -0.580742  -0.769255  -0.039248  2.208121  -0.055
O  O91  1  0.52351899  0.08037586  0.86510149  1  -0.800181  -0.037827  2.004064  -0.051  -0.76895  -0.027083  2.217119  -0.037  -0.805939  -0.022179  2.182796  -0.03  -0.567573  -0.740735  -0.030946  2.239461  -0.041
O  O92  1  0.19110197  0.78764047  0.92075120  1  -0.80199  0.05309  2.004598  0.051  -0.769809  0.038033  2.218018  0.037  -0.80654  0.031657  2.183274  0.031  -0.567542  -0.741779  -0.031133  2.240776  -0.041
