# generated using pymatgen
data_ZnH8C13NO4
_symmetry_space_group_name_H-M   'P 1'
_cell_length_a   11.01112717
_cell_length_b   11.00679064
_cell_length_c   14.03396903
_cell_angle_alpha   89.21273298
_cell_angle_beta   89.89496965
_cell_angle_gamma   77.65173981
_symmetry_Int_Tables_number   1
_chemical_formula_structural   ZnH8C13NO4
_chemical_formula_sum   'Zn4 H32 C52 N4 O16'
_cell_volume   1661.37099271
_cell_formula_units_Z   4
loop_
 _symmetry_equiv_pos_site_id
 _symmetry_equiv_pos_as_xyz
  1  'x, y, z'
loop_
 _atom_site_type_symbol
 _atom_site_label
 _atom_site_symmetry_multiplicity
 _atom_site_fract_x
 _atom_site_fract_y
 _atom_site_fract_z
 _atom_site_occupancy
 _atom_site_pbe_bader_charge
 _atom_site_pbe_bader_spin_density
 _atom_site_pbe_cm5_charge
 _atom_site_pbe_ddec_charge
 _atom_site_pbe_ddec_spin_density
 _atom_site_pbe_ddec_sum_bond_order
 _atom_site_pbe_magmom
Zn  Zn0  1  0.73009900  0.83548571  0.79980389  1  1.294003  0  0.665355  0.824103  0  2.414643  0
Zn  Zn1  1  0.72682828  0.84144312  0.59468347  1  1.296116  0  0.672874  0.829463  0  2.391632  0
Zn  Zn2  1  0.26989929  0.16451346  0.20019467  1  1.294004  0  0.665377  0.824192  0  2.414563  0
Zn  Zn3  1  0.27317350  0.15855227  0.40531725  1  1.296263  0  0.67291  0.82953  0  2.391505  0
H  H4  1  0.64310131  0.25675943  0.56005423  1  0.107899  0  0.1041  0.106756  0  1.026044  0
H  H5  1  0.66469333  0.47849986  0.56266326  1  0.090992  0  0.10803  0.115636  0  0.989868  0
H  H6  1  0.81517072  0.42327117  0.84551956  1  0.064188  0  0.098966  0.100112  0  1.010845  0
H  H7  1  0.79563039  0.19940986  0.84258666  1  0.092928  0  0.101581  0.107045  0  1.002743  0
H  H8  1  0.32972656  0.88961204  0.54602447  1  0.082598  0  0.101491  0.106024  0  1.049771  0
H  H9  1  0.10644756  0.87839294  0.54415275  1  0.093705  0  0.105565  0.111135  0  1.001573  0
H  H10  1  0.12337750  0.79031073  0.84350283  1  0.093  0  0.101011  0.1057  0  1.006638  0
H  H11  1  0.35026051  0.79764535  0.84508790  1  0.075456  0  0.102745  0.106598  0  1.000992  0
H  H12  1  0.92376144  0.79763864  0.44721174  1  0.148625  0  0.127899  0.105502  0  0.988372  0
H  H13  1  0.93939530  0.79349149  0.26922446  1  0.101496  0  0.112063  0.118222  0  1.005571  0
H  H14  1  0.53735101  0.86751528  0.26051926  1  0.105286  0  0.112927  0.125745  0  1.0096  0
H  H15  1  0.53894345  0.86764820  0.43849626  1  0.135259  0  0.125301  0.105136  0  1.002044  0
H  H16  1  0.89028189  0.67100872  0.12906751  1  0.079504  0  0.115568  0.123757  0  0.989249  0
H  H17  1  0.87858854  0.68022303  0.95010056  1  0.118504  0  0.127944  0.101679  0  0.971786  0
H  H18  1  0.59969322  0.99759455  0.95307504  1  0.096951  0  0.122303  0.092501  0  1.002353  0
H  H19  1  0.59187287  0.99826058  0.13205521  1  0.146191  0  0.110761  0.124326  0  1.044418  0
H  H20  1  0.35689604  0.74324904  0.43994139  1  0.107846  0  0.104099  0.106712  0  1.026042  0
H  H21  1  0.33531302  0.52150471  0.43733947  1  0.090951  0  0.108024  0.115684  0  0.989804  0
H  H22  1  0.18483655  0.57671485  0.15448336  1  0.064321  0  0.098968  0.100111  0  1.010859  0
H  H23  1  0.20436315  0.80058107  0.15740988  1  0.092928  0  0.101564  0.107008  0  1.002791  0
H  H24  1  0.67027229  0.11039361  0.45397545  1  0.082616  0  0.101469  0.106023  0  1.049818  0
H  H25  1  0.89354892  0.12162016  0.45584711  1  0.093796  0  0.105598  0.111156  0  1.001589  0
H  H26  1  0.87662152  0.20969398  0.15649638  1  0.093005  0  0.101  0.105688  0  1.006609  0
H  H27  1  0.64973924  0.20235565  0.15490993  1  0.075329  0  0.102756  0.106627  0  1.000964  0
H  H28  1  0.07623252  0.20235967  0.55279114  1  0.148691  0  0.127925  0.105555  0  0.988378  0
H  H29  1  0.06060121  0.20650770  0.73077839  1  0.101498  0  0.112083  0.118258  0  1.005505  0
H  H30  1  0.46264566  0.13248763  0.73948070  1  0.105345  0  0.112936  0.125738  0  1.00962  0
H  H31  1  0.46105157  0.13234917  0.56150306  1  0.135312  0  0.12525  0.105055  0  1.002027  0
H  H32  1  0.10971315  0.32898401  0.87093329  1  0.079502  0  0.115596  0.123816  0  0.989168  0
H  H33  1  0.12141049  0.31977242  0.04989875  1  0.118538  0  0.127959  0.101737  0  0.971748  0
H  H34  1  0.40031237  0.00240913  0.04692414  1  0.096955  0  0.1223  0.092489  0  1.002372  0
H  H35  1  0.40813108  0.00174219  0.86794399  1  0.146878  0  0.110751  0.124357  0  1.044385  0
C  C36  1  0.70722477  0.08133980  0.69988121  1  1.542431  0  0.210264  0.577373  0  4.196315  0
C  C37  1  0.71832966  0.21475216  0.70122534  1  -0.080773  0  -0.019808  -0.033257  0  3.974321  0
C  C38  1  0.68146990  0.29322243  0.62223210  1  -0.062315  0  -0.086411  -0.099118  0  3.975952  0
C  C39  1  0.69352941  0.41648003  0.62345453  1  -0.046932  0  -0.081484  -0.089473  0  3.962456  0
C  C40  1  0.74205436  0.46334376  0.70399092  1  -0.000478  0  -0.01341  -0.018936  0  3.95667  0
C  C41  1  0.77894825  0.38498657  0.78309036  1  -0.050254  0  -0.090158  -0.106398  0  4.006078  0
C  C42  1  0.76748824  0.26152401  0.78172978  1  -0.002897  0  -0.091912  -0.10771  0  4.000235  0
C  C43  1  0.74938494  0.59776624  0.70629354  1  1.585039  0  0.21143  0.589436  0  4.179982  0
C  C44  1  0.48819167  0.85002679  0.69558098  1  1.551361  0  0.213979  0.581839  0  4.184141  0
C  C45  1  0.35367970  0.84389066  0.69568739  1  -0.050387  0  -0.019948  -0.03665  0  3.975125  0
C  C46  1  0.28507470  0.86611897  0.61087901  1  0.0007  0  -0.087446  -0.101073  0  3.97927  0
C  C47  1  0.16022761  0.86035514  0.60982892  1  -0.021706  0  -0.082821  -0.090742  0  3.965937  0
C  C48  1  0.10205764  0.83271375  0.69383922  1  -0.098305  0  -0.016793  -0.028379  0  3.966227  0
C  C49  1  0.17053395  0.81091897  0.77886425  1  -0.043851  0  -0.089806  -0.101911  0  3.98917  0
C  C50  1  0.29564797  0.81593420  0.77980256  1  -0.003821  0  -0.089017  -0.100263  0  3.993672  0
C  C51  1  0.96699805  0.82861106  0.69370768  1  1.58278  0  0.214178  0.590017  0  4.176627  0
C  C52  1  0.84109447  0.81115913  0.40238385  1  0.510071  0  0.062034  0.110741  0  3.907657  0
C  C53  1  0.84861003  0.80855160  0.30359555  1  -0.068993  0  -0.072757  -0.164309  0  3.931059  0
C  C54  1  0.73856128  0.83025774  0.25007002  1  -0.050416  0  0.018365  0.105704  0  3.97975  0
C  C55  1  0.62516680  0.85100471  0.29908071  1  -0.061185  0  -0.07373  -0.161883  0  3.914839  0
C  C56  1  0.62528510  0.85079338  0.39799329  1  0.54238  0  0.060676  0.111505  0  3.894161  0
C  C57  1  0.74028645  0.83322490  0.14502833  1  0.033502  0  0.021289  0.119385  0  3.968909  0
C  C58  1  0.82384483  0.74470069  0.09284026  1  -0.012785  0  -0.075252  -0.175712  0  3.940284  0
C  C59  1  0.81836208  0.74912877  0.99388375  1  0.492891  0  0.059794  0.106849  0  3.92777  0
C  C60  1  0.65997498  0.92556056  0.99554295  1  0.413824  0  0.057099  0.10356  0  3.920177  0
C  C61  1  0.65672278  0.92568892  0.09445270  1  0.013147  0  -0.076696  -0.175295  0  3.921909  0
C  C62  1  0.29277572  0.91865747  0.30011808  1  1.542456  0  0.21027  0.577401  0  4.196277  0
C  C63  1  0.28166991  0.78524514  0.29877324  1  -0.081111  0  -0.019844  -0.033345  0  3.974231  0
C  C64  1  0.31853130  0.70678040  0.37776498  1  -0.061775  0  -0.086325  -0.098912  0  3.975872  0
C  C65  1  0.30647749  0.58352175  0.37654751  1  -0.04673  0  -0.0815  -0.089586  0  3.962336  0
C  C66  1  0.25795674  0.53665053  0.29601188  1  -0.000686  0  -0.013406  -0.018965  0  3.95654  0
C  C67  1  0.22105573  0.61500693  0.21691178  1  -0.050393  0  -0.09018  -0.106385  0  4.006053  0
C  C68  1  0.23251006  0.73847053  0.21826883  1  -0.003051  0  -0.09191  -0.107704  0  4.000254  0
C  C69  1  0.25062748  0.40223080  0.29371422  1  1.584172  0  0.211422  0.589416  0  4.180229  0
C  C70  1  0.51180787  0.14997051  0.30441475  1  1.550913  0  0.213937  0.581799  0  4.184254  0
C  C71  1  0.64631896  0.15611129  0.30431115  1  -0.050302  0  -0.019966  -0.036622  0  3.975006  0
C  C72  1  0.71492378  0.13388853  0.38912090  1  0.000736  0  -0.087505  -0.101169  0  3.979338  0
C  C73  1  0.83976851  0.13965518  0.39017169  1  -0.02184  0  -0.082819  -0.090852  0  3.965927  0
C  C74  1  0.89793902  0.16729843  0.30615994  1  -0.098064  0  -0.016803  -0.028142  0  3.965995  0
C  C75  1  0.82946454  0.18908853  0.22113566  1  -0.044032  0  -0.089792  -0.101874  0  3.989086  0
C  C76  1  0.70435268  0.18407142  0.22019521  1  -0.003868  0  -0.088939  -0.100293  0  3.993589  0
C  C77  1  0.03299860  0.17139648  0.30629010  1  1.58287  0  0.214135  0.589859  0  4.176739  0
C  C78  1  0.15890057  0.18883824  0.59761761  1  0.509932  0  0.062021  0.110728  0  3.90785  0
C  C79  1  0.15138648  0.19144296  0.69640664  1  -0.069135  0  -0.072733  -0.164367  0  3.931069  0
C  C80  1  0.26143484  0.16973869  0.74993002  1  -0.05045  0  0.018375  0.105824  0  3.979696  0
C  C81  1  0.37483006  0.14899726  0.70092069  1  -0.061195  0  -0.073793  -0.161933  0  3.914839  0
C  C82  1  0.37470793  0.14920495  0.60200817  1  0.542414  0  0.060754  0.111619  0  3.89427  0
C  C83  1  0.25971331  0.16677146  0.85497025  1  0.033554  0  0.021267  0.119383  0  3.968845  0
C  C84  1  0.17615386  0.25529662  0.90716188  1  -0.012732  0  -0.075267  -0.175745  0  3.940313  0
C  C85  1  0.18163659  0.25086854  0.00611554  1  0.49324  0  0.059746  0.106694  0  3.927853  0
C  C86  1  0.34003006  0.07444127  0.00445554  1  0.413805  0  0.057191  0.103724  0  3.920239  0
C  C87  1  0.34328155  0.07431199  0.90554795  1  0.012388  0  -0.076713  -0.175425  0  3.922015  0
N  N88  1  0.73143908  0.83217446  0.44879501  1  -1.241547  0  -0.319675  -0.209126  0  3.516123  0
N  N89  1  0.73765201  0.83791911  0.94602088  1  -1.248181  0  -0.320212  -0.199144  0  3.520586  0
N  N90  1  0.26855523  0.16782199  0.55120646  1  -1.241417  0  -0.319686  -0.209218  0  3.516336  0
N  N91  1  0.26235105  0.16207905  0.05398052  1  -1.248567  0  -0.320271  -0.1992  0  3.520524  0
O  O92  1  0.69805469  0.03326600  0.61883460  1  -1.16823  0  -0.310993  -0.542237  0  2.323471  0
O  O93  1  0.70805717  0.02603054  0.78047156  1  -1.176274  0  -0.322426  -0.561833  0  2.337781  0
O  O94  1  0.74882854  0.65385895  0.62645075  1  -1.165982  0  -0.317458  -0.549734  0  2.324547  0
O  O95  1  0.75299551  0.64561172  0.78826944  1  -1.160905  0  -0.323776  -0.554594  0  2.312936  0
O  O96  1  0.53976902  0.85320925  0.61463209  1  -1.166706  0  -0.311808  -0.54061  0  2.356959  0
O  O97  1  0.54094309  0.85217528  0.77643131  1  -1.168893  0  -0.318417  -0.558027  0  2.335385  0
O  O98  1  0.91262940  0.83599884  0.61305193  1  -1.169842  0  -0.314216  -0.548074  0  2.348265  0
O  O99  1  0.91644923  0.81963303  0.77438655  1  -1.169164  0  -0.319168  -0.551377  0  2.340938  0
O  O100  1  0.30194253  0.96672948  0.38116615  1  -1.168242  0  -0.310968  -0.542205  0  2.323441  0
O  O101  1  0.29193988  0.97397050  0.21953056  1  -1.176242  0  -0.32243  -0.561837  0  2.337797  0
O  O102  1  0.25119355  0.34613977  0.37355692  1  -1.165257  0  -0.317364  -0.549538  0  2.324544  0
O  O103  1  0.24700362  0.35438370  0.21174056  1  -1.160955  0  -0.323892  -0.55478  0  2.313106  0
O  O104  1  0.46023251  0.14677783  0.38536159  1  -1.166705  0  -0.311828  -0.540616  0  2.356868  0
O  O105  1  0.45905790  0.14782849  0.22356363  1  -1.168459  0  -0.318405  -0.558037  0  2.335412  0
O  O106  1  0.08737178  0.16401326  0.38694434  1  -1.169756  0  -0.314241  -0.548061  0  2.34823  0
O  O107  1  0.08354719  0.18036619  0.22560704  1  -1.169302  0  -0.319099  -0.551356  0  2.34107  0
