# generated using pymatgen
data_ZnH7(C7N2)2
_symmetry_space_group_name_H-M   'P 1'
_cell_length_a   20.48673602
_cell_length_b   23.11080714
_cell_length_c   23.04567338
_cell_angle_alpha   90.10536081
_cell_angle_beta   85.24895253
_cell_angle_gamma   90.18308539
_symmetry_Int_Tables_number   1
_chemical_formula_structural   ZnH7(C7N2)2
_chemical_formula_sum   'Zn8 H56 C112 N32'
_cell_volume   10873.75936307
_cell_formula_units_Z   8
loop_
 _symmetry_equiv_pos_site_id
 _symmetry_equiv_pos_as_xyz
  1  'x, y, z'
loop_
 _atom_site_type_symbol
 _atom_site_label
 _atom_site_symmetry_multiplicity
 _atom_site_fract_x
 _atom_site_fract_y
 _atom_site_fract_z
 _atom_site_occupancy
 _atom_site_pbe_bader_charge
 _atom_site_pbe_bader_spin_density
 _atom_site_pbe_cm5_charge
 _atom_site_pbe_ddec_charge
 _atom_site_pbe_ddec_spin_density
 _atom_site_pbe_ddec_sum_bond_order
 _atom_site_pbe_magmom
Zn  Zn0  1  0.38351119  0.48295971  0.01578052  1  1.185929  0  0.737851  0.627786  0  2.367252  0
Zn  Zn1  1  0.61647666  0.51701991  0.98426475  1  1.186372  0  0.737896  0.627632  0  2.368183  0
Zn  Zn2  1  0.88312998  0.01611594  0.51417800  1  1.187762  0  0.738272  0.62835  0  2.366986  0
Zn  Zn3  1  0.11686718  0.98393441  0.48595282  1  1.188187  0  0.738515  0.628462  0  2.367861  0
Zn  Zn4  1  0.51654226  0.59521283  0.02181849  1  1.187128  0  0.732715  0.622883  0  2.362976  0
Zn  Zn5  1  0.48343150  0.40476586  0.97820134  1  1.186673  0  0.732816  0.623159  0  2.363231  0
Zn  Zn6  1  0.98407774  0.09520725  0.47863689  1  1.188973  0  0.733062  0.624161  0  2.357775  0
Zn  Zn7  1  0.01589159  0.90485558  0.52148331  1  1.189434  0  0.733031  0.624202  0  2.357466  0
H  H8  1  0.37265147  0.49301404  0.88178141  1  0.125853  0  0.124398  0.120654  0  1.01565  0
H  H9  1  0.58007434  0.68195482  0.11829551  1  0.071219  0  0.119833  0.110087  0  0.992969  0
H  H10  1  0.48449011  0.37024533  0.10997031  1  0.124991  0  0.124571  0.118296  0  1.016967  0
H  H11  1  0.51546593  0.62974709  0.89001172  1  0.12607  0  0.124406  0.118107  0  1.016944  0
H  H12  1  0.01666546  0.86991435  0.38916646  1  0.124729  0  0.124437  0.118492  0  1.016434  0
H  H13  1  0.98314217  0.12993025  0.61099352  1  0.128636  0  0.124498  0.11869  0  1.015928  0
H  H14  1  0.07747808  0.81945145  0.61951874  1  0.090371  0  0.119914  0.109918  0  0.992722  0
H  H15  1  0.92259157  0.18039386  0.38038523  1  0.091057  0  0.11981  0.1098  0  0.992837  0
H  H16  1  0.27457953  0.15197612  0.83931922  1  0.042595  0  0.104557  0.107473  0  0.990414  0
H  H17  1  0.72558207  0.84804202  0.16040215  1  0.0429  0  0.10446  0.107056  0  0.990932  0
H  H18  1  0.55471486  0.28826962  0.28828218  1  0.053832  0  0.106165  0.109809  0  0.988124  0
H  H19  1  0.62718164  0.50707183  0.11827487  1  0.125143  0  0.124474  0.120752  0  1.015799  0
H  H20  1  0.44521713  0.71173993  0.71183539  1  0.054963  0  0.105998  0.109474  0  0.988086  0
H  H21  1  0.94857754  0.78933043  0.20762570  1  0.089286  0  0.105788  0.109349  0  0.988798  0
H  H22  1  0.05141724  0.21055625  0.79245658  1  0.089229  0  0.105827  0.109479  0  0.988556  0
H  H23  1  0.22022277  0.65566426  0.66657514  1  0.085021  0  0.104422  0.107431  0  0.990628  0
H  H24  1  0.77995696  0.34415061  0.33296990  1  0.09045  0  0.104511  0.107629  0  0.990967  0
H  H25  1  0.20926541  0.08699086  0.78064440  1  0.069198  0  0.105242  0.108643  0  0.989433  0
H  H26  1  0.79079637  0.91296255  0.21922951  1  0.06855  0  0.105281  0.108575  0  0.989116  0
H  H27  1  0.61940888  0.22251287  0.34616356  1  0.067158  0  0.105075  0.10805  0  0.989588  0
H  H28  1  0.38061392  0.77747322  0.65384797  1  0.067032  0  0.10505  0.108193  0  0.989673  0
H  H29  1  0.88337332  0.72448277  0.14867318  1  0.065766  0  0.105064  0.108157  0  0.989847  0
H  H30  1  0.75254593  0.59272008  0.04302953  1  0.071027  0  0.124487  0.115248  0  0.978851  0
H  H31  1  0.11672129  0.27547468  0.85124956  1  0.070166  0  0.105094  0.10837  0  0.989876  0
H  H32  1  0.28488294  0.58984463  0.72441423  1  0.068585  0  0.105069  0.10791  0  0.989441  0
H  H33  1  0.71520766  0.40999417  0.27526008  1  0.071491  0  0.105141  0.10776  0  0.989208  0
H  H34  1  0.34261669  0.74077944  0.29359895  1  0.108877  0  0.11186  0.114691  0  0.965545  0
H  H35  1  0.65740418  0.25938686  0.70630487  1  0.060353  0  0.111974  0.114677  0  0.965816  0
H  H36  1  0.74496507  0.86026676  0.83257024  1  0.08437  0  0.112667  0.117425  0  0.967756  0
H  H37  1  0.25510686  0.13966963  0.16764027  1  0.101205  0  0.112461  0.117475  0  0.967063  0
H  H38  1  0.75301508  0.35794719  0.66698043  1  0.091962  0  0.11274  0.118124  0  0.967251  0
H  H39  1  0.24696405  0.64228548  0.33303205  1  0.090051  0  0.112483  0.117599  0  0.967504  0
H  H40  1  0.15841764  0.23739716  0.20577208  1  0.070181  0  0.111778  0.114408  0  0.965404  0
H  H41  1  0.24746972  0.40721909  0.95689170  1  0.073153  0  0.124503  0.115241  0  0.978726  0
H  H42  1  0.84159720  0.76255905  0.79423306  1  0.070392  0  0.11171  0.114099  0  0.96562  0
H  H43  1  0.70029768  0.47259358  0.87039236  1  0.119125  0  0.124689  0.114749  0  0.98795  0
H  H44  1  0.29975276  0.52736076  0.12972642  1  0.118473  0  0.12471  0.114677  0  0.987983  0
H  H45  1  0.28813800  0.41580472  0.11942705  1  0.068427  0  0.119435  0.108563  0  0.997381  0
H  H46  1  0.71177500  0.58408463  0.88053993  1  0.0676  0  0.119691  0.109083  0  0.997306  0
H  H47  1  0.21253034  0.91801793  0.38219888  1  0.09312  0  0.119038  0.108134  0  0.99779  0
H  H48  1  0.78739475  0.08226904  0.61774561  1  0.085333  0  0.118912  0.108037  0  0.997532  0
H  H49  1  0.79791191  0.97187199  0.62757854  1  0.095863  0  0.124576  0.114202  0  0.988764  0
H  H50  1  0.20222825  0.02838369  0.37276805  1  0.095192  0  0.124583  0.113967  0  0.988393  0
H  H51  1  0.60040450  0.72754513  0.95874494  1  0.09215  0  0.125147  0.115964  0  0.978839  0
H  H52  1  0.74853175  0.09066298  0.45255211  1  0.083554  0  0.124648  0.115397  0  0.979051  0
H  H53  1  0.39961012  0.27239930  0.04121560  1  0.090432  0  0.125011  0.115757  0  0.979384  0
H  H54  1  0.46722472  0.63872824  0.14557022  1  0.098966  0  0.124374  0.114188  0  0.994659  0
H  H55  1  0.53271947  0.36138448  0.85442488  1  0.099465  0  0.124216  0.113869  0  0.994845  0
H  H56  1  0.03335066  0.13618688  0.35389835  1  0.10411  0  0.124062  0.113835  0  0.99657  0
H  H57  1  0.96663685  0.86380332  0.64623784  1  0.103122  0  0.124038  0.113734  0  0.996646  0
H  H58  1  0.89916270  0.22694748  0.54184312  1  0.105261  0  0.124814  0.115425  0  0.979567  0
H  H59  1  0.10099305  0.77320656  0.45810271  1  0.107098  0  0.125038  0.115377  0  0.979129  0
H  H60  1  0.25146355  0.90934159  0.54741821  1  0.081957  0  0.124645  0.115318  0  0.978959  0
H  H61  1  0.12517262  0.99355097  0.62047376  1  0.123198  0  0.124756  0.120254  0  1.01621  0
H  H62  1  0.87459195  0.00627149  0.37968293  1  0.125582  0  0.124575  0.119773  0  1.016331  0
H  H63  1  0.42002604  0.31809916  0.88163613  1  0.070014  0  0.119839  0.109946  0  0.993613  0
C  C64  1  0.40992991  0.52297930  0.89367193  1  0.436859  0  0.017752  -0.032961  0  3.916501  0
C  C65  1  0.24143764  0.26042916  0.87321633  1  -0.145792  0  -0.054437  -0.123477  0  4.145781  0
C  C66  1  0.63134080  0.35283356  0.27584142  1  0.065662  0  -0.003527  0.137071  0  4.120158  0
C  C67  1  0.12683670  0.14523374  0.78030976  1  0.141115  0  -0.003295  0.139014  0  4.118709  0
C  C68  1  0.87318204  0.85468693  0.21966668  1  0.139583  0  -0.003426  0.139157  0  4.118985  0
C  C69  1  0.70513056  0.27766707  0.34181082  1  0.089071  0  -0.00405  0.138302  0  4.122826  0
C  C70  1  0.29496297  0.72223647  0.65798817  1  0.136146  0  -0.004357  0.137642  0  4.123658  0
C  C71  1  0.77445437  0.83529963  0.17078496  1  0.006429  0  -0.086793  -0.127278  0  3.976507  0
C  C72  1  0.22567466  0.16469352  0.82900565  1  0.00858  0  -0.086708  -0.128078  0  3.97559  0
C  C73  1  0.39603302  0.69948743  0.70164358  1  -0.001824  0  -0.085847  -0.12619  0  3.972917  0
C  C74  1  0.60395519  0.30047909  0.29834574  1  -0.004202  0  -0.086179  -0.12739  0  3.972736  0
C  C75  1  0.10022994  0.19777068  0.80292734  1  -0.055375  0  -0.085706  -0.127057  0  3.973114  0
C  C76  1  0.39997492  0.61465753  0.76569129  1  -0.443947  0  -0.051759  -0.122215  0  4.139791  0
C  C77  1  0.89980863  0.80215092  0.19706467  1  -0.056953  0  -0.085714  -0.127179  0  3.972851  0
C  C78  1  0.73058243  0.33206436  0.32316163  1  -0.035163  0  -0.086901  -0.128998  0  3.976994  0
C  C79  1  0.26953545  0.66779572  0.67652764  1  -0.075763  0  -0.086361  -0.127619  0  3.976504  0
C  C80  1  0.59995014  0.38531147  0.23428133  1  -0.447212  0  -0.051826  -0.122046  0  4.139936  0
C  C81  1  0.09573978  0.11349239  0.73777812  1  -0.240492  0  -0.052438  -0.124083  0  4.140452  0
C  C82  1  0.90418848  0.88638031  0.26228691  1  -0.265948  0  -0.051838  -0.123368  0  4.139258  0
C  C83  1  0.74454990  0.23659917  0.36780987  1  -0.111518  0  -0.054899  -0.12429  0  4.148774  0
C  C84  1  0.25555048  0.76331524  0.63200686  1  -0.064773  0  -0.054727  -0.12412  0  4.148764  0
C  C85  1  0.27621216  0.29874513  0.89060094  1  -0.231528  0  -0.057541  -0.105199  0  4.180994  0
C  C86  1  0.72389795  0.70124811  0.10924889  1  -0.229339  0  -0.057141  -0.104704  0  4.182044  0
C  C87  1  0.57921902  0.40875120  0.19203850  1  0.078948  0  -0.053254  -0.096864  0  4.157674  0
C  C88  1  0.58992144  0.47709099  0.10637583  1  0.425479  0  0.017509  -0.03345  0  3.917038  0
C  C89  1  0.42067927  0.59126413  0.80797293  1  0.077113  0  -0.053044  -0.096548  0  4.157031  0
C  C90  1  0.92399362  0.90899596  0.30550756  1  -0.063258  0  -0.053349  -0.096033  0  4.156795  0
C  C91  1  0.07581115  0.09082566  0.69463396  1  -0.090458  0  -0.053076  -0.095631  0  4.157768  0
C  C92  1  0.22120547  0.80133000  0.61396536  1  -0.277333  0  -0.056704  -0.103621  0  4.183133  0
C  C93  1  0.77887225  0.19858878  0.38589165  1  -0.229479  0  -0.056848  -0.103842  0  4.183322  0
C  C94  1  0.34530457  0.61044748  0.21710081  1  -0.262868  0  -0.057154  -0.118763  0  4.156492  0
C  C95  1  0.65465253  0.38965840  0.78292099  1  -0.262917  0  -0.056914  -0.11866  0  4.155686  0
C  C96  1  0.72247847  0.71209296  0.88150152  1  -0.217903  0  -0.05057  -0.099813  0  4.162041  0
C  C97  1  0.27751184  0.28779651  0.11847173  1  -0.209368  0  -0.050723  -0.100518  0  4.162937  0
C  C98  1  0.77653505  0.21013910  0.61831427  1  -0.399461  0  -0.050704  -0.099908  0  4.160088  0
C  C99  1  0.70339943  0.60665858  0.05781947  1  0.505008  0  0.022143  -0.034391  0  3.940359  0
C  C100  1  0.22354173  0.79013546  0.38158932  1  -0.417859  0  -0.050928  -0.100783  0  4.161927  0
C  C101  1  0.15611290  0.10847576  0.28350592  1  0.050566  0  -0.057629  -0.11932  0  4.157776  0
C  C102  1  0.84395128  0.89158616  0.71673398  1  -0.487585  0  -0.057697  -0.119105  0  4.157761  0
C  C103  1  0.28782716  0.66350562  0.30787197  1  0.009599  0  -0.082065  -0.067112  0  4.092801  0
C  C104  1  0.71215629  0.33669239  0.69211226  1  0.110575  0  -0.082271  -0.068188  0  4.093636  0
C  C105  1  0.79963895  0.78258117  0.81893959  1  0.022284  0  -0.077545  -0.04993  0  4.101026  0
C  C106  1  0.20038697  0.21734401  0.18111580  1  0.026668  0  -0.078131  -0.051111  0  4.100673  0
C  C107  1  0.69902717  0.27976948  0.68131670  1  0.06327  0  -0.077486  -0.049984  0  4.101422  0
C  C108  1  0.30099127  0.72043626  0.31861937  1  0.091334  0  -0.077956  -0.051547  0  4.100388  0
C  C109  1  0.21388006  0.16069713  0.19235113  1  0.112294  0  -0.081611  -0.066835  0  4.092105  0
C  C110  1  0.29663154  0.39331049  0.94211497  1  0.50477  0  0.022147  -0.034292  0  3.940578  0
C  C111  1  0.78616492  0.83925470  0.80781424  1  0.12794  0  -0.082405  -0.067296  0  4.092564  0
C  C112  1  0.67918915  0.36735677  0.73811234  1  -0.14458  0  -0.055219  -0.068574  0  4.211983  0
C  C113  1  0.32075929  0.63279187  0.26188421  1  -0.119931  0  -0.054515  -0.068161  0  4.213709  0
C  C114  1  0.23982157  0.25344866  0.14424829  1  -0.116083  0  -0.06006  -0.083057  0  4.214603  0
C  C115  1  0.76020189  0.74643660  0.85575719  1  -0.109517  0  -0.060147  -0.083902  0  4.215048  0
C  C116  1  0.26151964  0.75628051  0.35561454  1  0.071088  0  -0.060166  -0.083215  0  4.214819  0
C  C117  1  0.73854011  0.24396508  0.64430944  1  0.051316  0  -0.060621  -0.084688  0  4.213793  0
C  C118  1  0.81922739  0.86978206  0.76172418  1  0.144915  0  -0.054507  -0.068355  0  4.214464  0
C  C119  1  0.18081645  0.13021701  0.23847830  1  -0.398702  0  -0.054624  -0.068151  0  4.21433  0
C  C120  1  0.65504160  0.44796742  0.87648712  1  0.427615  0  0.020206  -0.042965  0  3.938843  0
C  C121  1  0.79795436  0.10485460  0.43878130  1  0.443181  0  0.022035  -0.035282  0  3.940113  0
C  C122  1  0.34498922  0.55201410  0.12360777  1  0.429789  0  0.019653  -0.043396  0  3.938881  0
C  C123  1  0.32348738  0.38768108  0.09581827  1  0.457362  0  0.01237  -0.050355  0  3.961894  0
C  C124  1  0.67643743  0.61222212  0.90414476  1  0.452678  0  0.012464  -0.050936  0  3.960631  0
C  C125  1  0.17713724  0.88945782  0.40531067  1  0.396331  0  0.012572  -0.050413  0  3.959399  0
C  C126  1  0.82283652  0.11078596  0.59463822  1  0.408868  0  0.01276  -0.050278  0  3.959376  0
C  C127  1  0.84351735  0.94792531  0.62214265  1  0.426322  0  0.020127  -0.041729  0  3.941322  0
C  C128  1  0.15658430  0.05227828  0.37815668  1  0.427585  0  0.019873  -0.041619  0  3.940277  0
C  C129  1  0.61935736  0.68563483  0.94439229  1  0.457797  0  0.023346  -0.034589  0  3.941181  0
C  C130  1  0.38062444  0.31429831  0.05557233  1  0.461751  0  0.023801  -0.034213  0  3.941005  0
C  C131  1  0.43034622  0.60921119  0.13151734  1  0.405389  0  0.021215  -0.039247  0  3.935783  0
C  C132  1  0.20205536  0.89511972  0.56119741  1  0.444594  0  0.021989  -0.03515  0  3.939973  0
C  C133  1  0.56962328  0.39085793  0.86850973  1  0.404907  0  0.021699  -0.0384  0  3.935725  0
C  C134  1  0.07053041  0.10769626  0.36871810  1  0.415929  0  0.021647  -0.038987  0  3.936034  0
C  C135  1  0.92948149  0.89235511  0.63147577  1  0.425027  0  0.021475  -0.038668  0  3.93619  0
C  C136  1  0.88012675  0.18482848  0.55558582  1  0.467747  0  0.023798  -0.03405  0  3.940727  0
C  C137  1  0.11996803  0.81534711  0.44436306  1  0.466967  0  0.023572  -0.033371  0  3.939327  0
C  C138  1  0.38490903  0.34781131  0.90326665  1  0.407878  0  0.01151  -0.052853  0  3.962672  0
C  C139  1  0.61515971  0.65221191  0.09667088  1  0.407191  0  0.011412  -0.053289  0  3.961396  0
C  C140  1  0.51675865  0.40701254  0.10207918  1  0.458226  0  0.019863  -0.025604  0  3.912262  0
C  C141  1  0.48315654  0.59301190  0.89793023  1  0.458275  0  0.020093  -0.025679  0  3.911827  0
C  C142  1  0.98427151  0.90647789  0.39686712  1  0.404155  0  0.019984  -0.026189  0  3.911408  0
C  C143  1  0.08830532  0.02346781  0.60816559  1  0.408343  0  0.017295  -0.03213  0  3.917073  0
C  C144  1  0.01552163  0.09335931  0.60328098  1  0.401897  0  0.019597  -0.026268  0  3.911038  0
C  C145  1  0.11302033  0.84925836  0.59845224  1  0.425591  0  0.011679  -0.052795  0  3.963028  0
C  C146  1  0.88702571  0.15063330  0.40149240  1  0.421267  0  0.011661  -0.052742  0  3.962549  0
C  C147  1  0.43855759  0.56921545  0.86125022  1  0.091243  0  -0.026107  0.049947  0  4.183414  0
C  C148  1  0.56133172  0.43082587  0.13877705  1  0.105227  0  -0.02566  0.050339  0  4.184236  0
C  C149  1  0.68395123  0.65704713  0.08959299  1  0.143502  0  -0.027925  0.045451  0  4.196393  0
C  C150  1  0.31612173  0.34295222  0.91031015  1  0.141809  0  -0.028132  0.045074  0  4.196576  0
C  C151  1  0.81819450  0.15491693  0.40682625  1  0.117441  0  -0.028599  0.043847  0  4.200563  0
C  C152  1  0.18185502  0.84500972  0.59309008  1  0.11846  0  -0.028854  0.043591  0  4.200242  0
C  C153  1  0.05911679  0.06940043  0.64061207  1  0.153653  0  -0.025607  0.049251  0  4.18442  0
C  C154  1  0.91147583  0.97636373  0.39197726  1  0.398219  0  0.017918  -0.031431  0  3.916485  0
C  C155  1  0.94067134  0.93042506  0.35953322  1  0.166214  0  -0.025812  0.049477  0  4.183263  0
C  C156  1  0.62811371  0.40931999  0.83751408  1  0.194187  0  -0.024223  0.052545  0  4.197554  0
C  C157  1  0.37186893  0.59074400  0.16253096  1  0.193114  0  -0.0239  0.052858  0  4.196975  0
C  C158  1  0.32291202  0.32678417  0.09159040  1  0.095409  0  -0.029449  0.038243  0  4.203711  0
C  C159  1  0.67705342  0.67311777  0.90836491  1  0.101255  0  -0.029953  0.037701  0  4.202714  0
C  C160  1  0.17786060  0.82853487  0.40878337  1  0.125431  0  -0.029625  0.038334  0  4.202403  0
C  C161  1  0.82219811  0.17170595  0.59114101  1  0.121679  0  -0.029871  0.038202  0  4.202872  0
C  C162  1  0.87062444  0.91054566  0.66191407  1  0.133452  0  -0.023804  0.052363  0  4.197611  0
C  C163  1  0.12943174  0.08955822  0.33832771  1  0.148575  0  -0.023724  0.052678  0  4.19754  0
C  C164  1  0.18914092  0.12830628  0.79627180  1  -0.06958  0  -0.08579  -0.126282  0  3.972102  0
C  C165  1  0.75870473  0.73955756  0.12659793  1  -0.153248  0  -0.054668  -0.123499  0  4.147625  0
C  C166  1  0.81093629  0.87165493  0.20359654  1  -0.062378  0  -0.085554  -0.126298  0  3.97277  0
C  C167  1  0.64011560  0.26370329  0.33062561  1  -0.045415  0  -0.085489  -0.125392  0  3.971866  0
C  C168  1  0.35992287  0.73624977  0.66930736  1  -0.042541  0  -0.085561  -0.126088  0  3.97261  0
C  C169  1  0.86335000  0.76587164  0.16417738  1  -0.073959  0  -0.085984  -0.125693  0  3.972638  0
C  C170  1  0.13674004  0.23409054  0.83573252  1  -0.075996  0  -0.085773  -0.126114  0  3.972337  0
C  C171  1  0.30569889  0.63095578  0.70875649  1  -0.007819  0  -0.085767  -0.125057  0  3.972903  0
C  C172  1  0.69436729  0.36891908  0.29099956  1  -0.00346  0  -0.08552  -0.124208  0  3.972003  0
C  C173  1  0.79881979  0.78052867  0.15242488  1  0.100616  0  -0.003913  0.137087  0  4.123968  0
C  C174  1  0.20131322  0.21946063  0.84738992  1  0.097963  0  -0.003968  0.13819  0  4.121159  0
C  C175  1  0.36864826  0.64710207  0.72406705  1  0.063599  0  -0.003629  0.136717  0  4.120782  0
N  N176  1  0.43510011  0.52011356  0.94599501  1  -0.800067  0  -0.277865  -0.202652  0  3.599822  0
N  N177  1  0.38372361  0.54859291  0.07358265  1  -0.797673  0  -0.271076  -0.171876  0  3.545025  0
N  N178  1  0.37711972  0.40888679  0.06531178  1  -0.808123  0  -0.282483  -0.207892  0  3.589782  0
N  N179  1  0.62280383  0.59104501  0.93466780  1  -0.80527  0  -0.282667  -0.207978  0  3.590097  0
N  N180  1  0.12327990  0.91003620  0.43582608  1  -0.828713  0  -0.282133  -0.208018  0  3.590253  0
N  N181  1  0.87668062  0.09014145  0.56416477  1  -0.824816  0  -0.281945  -0.208185  0  3.58947  0
N  N182  1  0.88248633  0.95086404  0.57221307  1  -0.787124  0  -0.271723  -0.173754  0  3.546592  0
N  N183  1  0.11758932  0.04932433  0.42806916  1  -0.791385  0  -0.271488  -0.173423  0  3.545711  0
N  N184  1  0.58779825  0.63653923  0.95963846  1  -0.781293  0  -0.26371  -0.190357  0  3.531622  0
N  N185  1  0.41216027  0.36341079  0.04034281  1  -0.78294  0  -0.264105  -0.190821  0  3.531071  0
N  N186  1  0.43700841  0.58427045  0.07864604  1  -0.787195  0  -0.269552  -0.16954  0  3.558138  0
N  N187  1  0.56476108  0.47995543  0.05404524  1  -0.801504  0  -0.277757  -0.202451  0  3.59952  0
N  N188  1  0.56299225  0.41572912  0.92141279  1  -0.787541  0  -0.269928  -0.170182  0  3.558539  0
N  N189  1  0.06385316  0.08389837  0.42205865  1  -0.812819  0  -0.270105  -0.170329  0  3.555656  0
N  N190  1  0.93616494  0.91620325  0.57815815  1  -0.812523  0  -0.269781  -0.170077  0  3.555393  0
N  N191  1  0.91181867  0.13601762  0.53994760  1  -0.78527  0  -0.264061  -0.190481  0  3.531342  0
N  N192  1  0.08821711  0.86411685  0.46003897  1  -0.785319  0  -0.264243  -0.191522  0  3.531535  0
N  N193  1  0.40423838  0.39683697  0.92861632  1  -0.799525  0  -0.282699  -0.209366  0  3.571563  0
N  N194  1  0.59579031  0.60317935  0.07136000  1  -0.798525  0  -0.282872  -0.20962  0  3.571024  0
N  N195  1  0.51941374  0.43653016  0.05151071  1  -0.808914  0  -0.275843  -0.193677  0  3.601179  0
N  N196  1  0.48048382  0.56351073  0.94850987  1  -0.81071  0  -0.276013  -0.19338  0  3.600523  0
N  N197  1  0.98048784  0.93564924  0.44776896  1  -0.803764  0  -0.275674  -0.192969  0  3.602486  0
N  N198  1  0.65070090  0.57513941  0.04726268  1  -0.802799  0  -0.268723  -0.193316  0  3.540739  0
N  N199  1  0.01931541  0.06421088  0.55236637  1  -0.802655  0  -0.275151  -0.192559  0  3.601781  0
N  N200  1  0.09430593  0.89772672  0.57210720  1  -0.81399  0  -0.281805  -0.208521  0  3.574025  0
N  N201  1  0.90570232  0.10219751  0.42792045  1  -0.811331  0  -0.281833  -0.208507  0  3.573341  0
N  N202  1  0.34930580  0.42484269  0.95271330  1  -0.803358  0  -0.268662  -0.193657  0  3.541242  0
N  N203  1  0.85030088  0.07402884  0.45103233  1  -0.795428  0  -0.268908  -0.191611  0  3.543827  0
N  N204  1  0.14968319  0.92594689  0.54901542  1  -0.795001  0  -0.268885  -0.191556  0  3.544033  0
N  N205  1  0.06440769  0.02091728  0.55527327  1  -0.797907  0  -0.278244  -0.203911  0  3.602651  0
N  N206  1  0.93539086  0.97893546  0.44485708  1  -0.799662  0  -0.278458  -0.203828  0  3.602278  0
N  N207  1  0.61631275  0.45135532  0.92651771  1  -0.800002  0  -0.271224  -0.171927  0  3.545403  0
