# generated using pymatgen
data_DyPH12C13NO11
_symmetry_space_group_name_H-M   'P 1'
_cell_length_a   7.26337958
_cell_length_b   9.55439208
_cell_length_c   12.31247898
_cell_angle_alpha   68.65713103
_cell_angle_beta   91.70235186
_cell_angle_gamma   88.90630830
_symmetry_Int_Tables_number   1
_chemical_formula_structural   DyPH12C13NO11
_chemical_formula_sum   'Dy2 P2 H24 C26 N2 O22'
_cell_volume   795.09071696
_cell_formula_units_Z   2
loop_
 _symmetry_equiv_pos_site_id
 _symmetry_equiv_pos_as_xyz
  1  'x, y, z'
loop_
 _atom_site_type_symbol
 _atom_site_label
 _atom_site_symmetry_multiplicity
 _atom_site_fract_x
 _atom_site_fract_y
 _atom_site_fract_z
 _atom_site_occupancy
 _atom_site_hle17_bader_spin_density
 _atom_site_hle17_ddec_charge
 _atom_site_hle17_ddec_spin_density
 _atom_site_hle17_ddec_sum_bond_order
 _atom_site_hle17_magmom
 _atom_site_hse06_10hf_bader_spin_density
 _atom_site_hse06_10hf_ddec_charge
 _atom_site_hse06_10hf_ddec_spin_density
 _atom_site_hse06_10hf_ddec_sum_bond_order
 _atom_site_hse06_10hf_magmom
 _atom_site_hse06_bader_spin_density
 _atom_site_hse06_ddec_charge
 _atom_site_hse06_ddec_spin_density
 _atom_site_hse06_ddec_sum_bond_order
 _atom_site_hse06_magmom
 _atom_site_pbe_bader_spin_density
 _atom_site_pbe_cm5_charge
 _atom_site_pbe_ddec_charge
 _atom_site_pbe_ddec_spin_density
 _atom_site_pbe_ddec_sum_bond_order
 _atom_site_pbe_magmom
Dy  Dy0  1  0.74535223  0.69983203  0.59106889  1  0  2.160936  0  1.737136  0  0  2.085599  0  2.058749  0  0  2.2144  0  1.867792  0  0  1.491509  2.049379  0  2.089514  0
Dy  Dy1  1  0.25462766  0.30018075  0.40893069  1  0  2.160854  0  1.737209  0  0  2.085525  0  2.058823  0  0  2.214414  0  1.867716  0  0  1.49159  2.049378  0  2.089482  0
P  P2  1  0.71424364  0.48239083  0.89226334  1  0  1.563007  0  4.694612  0  0  1.406982  0  5.206908  0  0  1.456061  0  5.170903  0  0  0.371692  1.37247  0  5.234797  0
P  P3  1  0.28575345  0.51760480  0.10773810  1  0  1.563047  0  4.694707  0  0  1.407018  0  5.207003  0  0  1.456097  0  5.170997  0  0  0.371645  1.372499  0  5.234894  0
H  H4  1  0.12044491  0.72880316  0.65766832  1  0  0.457954  0  0.791286  0  0  0.437426  0  0.848142  0  0  0.446878  0  0.834438  0  0  0.3332  0.430736  0  0.856967  0
H  H5  1  0.87952683  0.27119434  0.34232345  1  0  0.457855  0  0.791364  0  0  0.437346  0  0.848222  0  0  0.446796  0  0.834523  0  0  0.333164  0.43066  0  0.857004  0
H  H6  1  0.10055200  0.90126344  0.58629890  1  0  0.453494  0  0.833002  0  0  0.425617  0  0.889221  0  0  0.437606  0  0.87171  0  0  0.307049  0.417746  0  0.900683  0
H  H7  1  0.89943674  0.09874178  0.41369075  1  0  0.453481  0  0.833016  0  0  0.425596  0  0.889248  0  0  0.437586  0  0.871736  0  0  0.307024  0.417727  0  0.900706  0
H  H8  1  0.64152047  0.53112688  0.04986483  1  0  0.432877  0  0.877263  0  0  0.396885  0  0.948786  0  0  0.408796  0  0.931585  0  0  0.305422  0.388785  0  0.960428  0
H  H9  1  0.35846939  0.46887057  0.95013278  1  0  0.432848  0  0.87731  0  0  0.396845  0  0.948853  0  0  0.408755  0  0.931653  0  0  0.305398  0.388742  0  0.960497  0
H  H10  1  0.77130931  0.72751813  0.29203342  1  0  0.396672  0  0.885561  0  0  0.371316  0  0.954735  0  0  0.382849  0  0.942185  0  0  0.308161  0.363382  0  0.96313  0
H  H11  1  0.22870556  0.27247966  0.70797077  1  0  0.396708  0  0.885632  0  0  0.371398  0  0.954728  0  0  0.38293  0  0.942173  0  0  0.308193  0.363456  0  0.963134  0
H  H12  1  0.58357802  0.74329786  0.04233979  1  0  0.330214  0  0.900743  0  0  0.301748  0  0.97322  0  0  0.311559  0  0.965085  0  0  0.317658  0.294773  0  0.97905  0
H  H13  1  0.41642341  0.25669574  0.95766065  1  0  0.330269  0  0.900785  0  0  0.301792  0  0.973225  0  0  0.311594  0  0.965103  0  0  0.317745  0.29482  0  0.979055  0
H  H14  1  0.51541341  0.79102200  0.84697192  1  0  0.107816  0  0.920221  0  0  0.11683  0  0.98051  0  0  0.120353  0  0.976056  0  0  0.137384  0.114272  0  0.983792  0
H  H15  1  0.48459800  0.20897886  0.15302080  1  0  0.107924  0  0.920384  0  0  0.116922  0  0.980672  0  0  0.120448  0  0.976212  0  0  0.137467  0.114367  0  0.983957  0
H  H16  1  0.58932932  0.04391124  0.69558007  1  0  0.115488  0  0.964573  0  0  0.122954  0  1.026072  0  0  0.126425  0  1.024705  0  0  0.112849  0.120669  0  1.026816  0
H  H17  1  0.41068573  0.95608426  0.30442153  1  0  0.115518  0  0.964445  0  0  0.123007  0  1.025922  0  0  0.126478  0  1.024553  0  0  0.112883  0.120724  0  1.026667  0
H  H18  1  0.73529983  0.23190393  0.75775394  1  0  0.122726  0  0.953287  0  0  0.131751  0  1.012006  0  0  0.135906  0  1.007527  0  0  0.116623  0.12893  0  1.014856  0
H  H19  1  0.26469767  0.76810081  0.24224973  1  0  0.12264  0  0.95345  0  0  0.131725  0  1.01209  0  0  0.13588  0  1.00761  0  0  0.116623  0.128906  0  1.014935  0
H  H20  1  0.96414797  0.21993588  0.13690457  1  0  0.115262  0  0.934422  0  0  0.126602  0  0.992527  0  0  0.129885  0  0.990781  0  0  0.109239  0.124106  0  0.994399  0
H  H21  1  0.03585746  0.78006027  0.86310084  1  0  0.115183  0  0.934393  0  0  0.126516  0  0.992518  0  0  0.129788  0  0.990773  0  0  0.109197  0.124015  0  0.994388  0
H  H22  1  0.88980176  0.96700260  0.27409404  1  0  0.118831  0  0.95157  0  0  0.129264  0  1.011205  0  0  0.133052  0  1.008975  0  0  0.10922  0.126572  0  1.012733  0
H  H23  1  0.11020961  0.03298813  0.72590486  1  0  0.118986  0  0.951409  0  0  0.129378  0  1.011085  0  0  0.133165  0  1.008859  0  0  0.109243  0.126684  0  1.012612  0
H  H24  1  0.91873955  0.34918455  0.81342242  1  0  0.151675  0  0.967606  0  0  0.15741  0  1.034708  0  0  0.160979  0  1.032628  0  0  0.110657  0.154765  0  1.036414  0
H  H25  1  0.08126398  0.65081482  0.18657797  1  0  0.151691  0  0.967552  0  0  0.15742  0  1.034676  0  0  0.160993  0  1.032593  0  0  0.110671  0.154776  0  1.036388  0
H  H26  1  0.01830544  0.38593574  0.93193016  1  0  0.173031  0  0.94683  0  0  0.184428  0  1.000026  0  0  0.188193  0  0.998003  0  0  0.116822  0.182219  0  1.000714  0
H  H27  1  0.98168754  0.61405966  0.06807131  1  0  0.172997  0  0.946736  0  0  0.184405  0  0.999938  0  0  0.188171  0  0.997916  0  0  0.116844  0.182197  0  1.000623  0
C  C28  1  0.58707651  0.87623324  0.86937352  1  0  0.176566  0  3.609994  0  0  0.128596  0  3.874306  0  0  0.142246  0  3.885385  0  0  0.082542  0.120032  0  3.867167  0
C  C29  1  0.41293776  0.12376783  0.13062321  1  0  0.176468  0  3.609974  0  0  0.128454  0  3.874205  0  0  0.142107  0  3.885266  0  0  0.08246  0.119887  0  3.867075  0
C  C30  1  0.62981222  0.01544929  0.78678784  1  0  -0.121571  0  3.709444  0  0  -0.136087  0  3.973784  0  0  -0.144764  0  3.991469  0  0  -0.077608  -0.130013  0  3.961126  0
C  C31  1  0.37020159  0.98454383  0.21320958  1  0  -0.121515  0  3.70927  0  0  -0.136081  0  3.973669  0  0  -0.144751  0  3.991344  0  0  -0.077604  -0.13001  0  3.961017  0
C  C32  1  0.71353967  0.12066856  0.82250425  1  0  0.01201  0  3.60485  0  0  -0.019715  0  3.860831  0  0  -0.011316  0  3.87112  0  0  -0.044939  -0.024526  0  3.852373  0
C  C33  1  0.28646967  0.87933009  0.17750290  1  0  0.012108  0  3.604863  0  0  -0.019643  0  3.860822  0  0  -0.011248  0  3.871111  0  0  -0.044903  -0.024452  0  3.852368  0
C  C34  1  0.76406517  0.08680266  0.94155391  1  0  -0.032034  0  3.771252  0  0  -0.019676  0  4.005861  0  0  -0.023844  0  4.030628  0  0  -0.001059  -0.01587  0  3.987898  0
C  C35  1  0.23594354  0.91319926  0.05844498  1  0  -0.03206  0  3.771205  0  0  -0.019731  0  4.00585  0  0  -0.023898  0  4.030617  0  0  -0.001086  -0.015925  0  3.987883  0
C  C36  1  0.85309082  0.18949564  0.98410913  1  0  0.097477  0  3.767232  0  0  0.100458  0  4.019852  0  0  0.101197  0  4.045722  0  0  -0.013862  0.100704  0  4.002051  0
C  C37  1  0.14690594  0.81050340  0.01589457  1  0  0.097353  0  3.767256  0  0  0.100384  0  4.019808  0  0  0.101121  0  4.045679  0  0  -0.01388  0.100633  0  4.002003  0
C  C38  1  0.89509193  0.14305945  0.10293787  1  0  -0.094455  0  3.72964  0  0  -0.121375  0  3.997255  0  0  -0.123509  0  4.018721  0  0  -0.088398  -0.121953  0  3.984781  0
C  C39  1  0.10491164  0.85693995  0.89706415  1  0  -0.094317  0  3.729504  0  0  -0.121222  0  3.997091  0  0  -0.123339  0  4.018549  0  0  -0.088368  -0.121801  0  3.984607  0
C  C40  1  0.85354099  0.99920813  0.18161356  1  0  -0.191616  0  3.759937  0  0  -0.21778  0  4.026466  0  0  -0.22336  0  4.047334  0  0  -0.10502  -0.213518  0  4.012911  0
C  C41  1  0.14647593  0.00079423  0.81838445  1  0  -0.191861  0  3.759792  0  0  -0.21803  0  4.026347  0  0  -0.223603  0  4.047186  0  0  -0.105114  -0.213764  0  4.012779  0
C  C42  1  0.76603477  0.89682019  0.14297063  1  0  0.253077  0  3.857511  0  0  0.239005  0  4.127327  0  0  0.247965  0  4.145129  0  0  0.086638  0.232111  0  4.116039  0
C  C43  1  0.23397897  0.10318537  0.85702561  1  0  0.253068  0  3.857744  0  0  0.239046  0  4.127505  0  0  0.248009  0  4.145307  0  0  0.086715  0.232159  0  4.116205  0
C  C44  1  0.72069302  0.94196067  0.02169304  1  0  0.104384  0  3.717562  0  0  0.092554  0  3.954062  0  0  0.095827  0  3.976909  0  0  0.112345  0.089891  0  3.939112  0
C  C45  1  0.27931254  0.05803316  0.97830817  1  0  0.104458  0  3.717739  0  0  0.092541  0  3.954215  0  0  0.095814  0  3.977048  0  0  0.112347  0.089877  0  3.939263  0
C  C46  1  0.89437717  0.34393106  0.90209103  1  0  -0.513325  0  3.697506  0  0  -0.531114  0  3.937087  0  0  -0.541324  0  3.943312  0  0  -0.170637  -0.523668  0  3.932214  0
C  C47  1  0.10562302  0.65606133  0.09790974  1  0  -0.513222  0  3.697308  0  0  -0.531089  0  3.937005  0  0  -0.541304  0  3.943235  0  0  -0.170655  -0.523644  0  3.932129  0
C  C48  1  0.54392089  0.42903300  0.54799949  1  0  0.569106  0  3.914999  0  0  0.52478  0  4.220006  0  0  0.555327  0  4.217194  0  0  0.214351  0.503777  0  4.226409  0
C  C49  1  0.45605247  0.57097480  0.45199336  1  0  0.568988  0  3.914704  0  0  0.524573  0  4.219788  0  0  0.555116  0  4.216977  0  0  0.21427  0.503574  0  4.226188  0
C  C50  1  0.95895537  0.54028190  0.43753463  1  0  0.570816  0  3.904512  0  0  0.521056  0  4.214068  0  0  0.550775  0  4.212046  0  0  0.221154  0.500588  0  4.219986  0
C  C51  1  0.04105655  0.45972277  0.56248948  1  0  0.570536  0  3.905183  0  0  0.520836  0  4.214674  0  0  0.550528  0  4.212688  0  0  0.221197  0.500364  0  4.220589  0
C  C52  1  0.57494426  0.03975322  0.45661428  1  0  0.564027  0  3.912916  0  0  0.516819  0  4.223465  0  0  0.546845  0  4.220736  0  0  0.220715  0.496274  0  4.229693  0
C  C53  1  0.42504615  0.96024985  0.54337683  1  0  0.564132  0  3.912889  0  0  0.516892  0  4.223477  0  0  0.546918  0  4.220752  0  0  0.220619  0.496343  0  4.229705  0
N  N54  1  0.63080284  0.84446169  0.98184305  1  0  -0.248971  0  3.460044  0  0  -0.180228  0  3.686762  0  0  -0.196348  0  3.702697  0  0  -0.33931  -0.170173  0  3.676826  0
N  N55  1  0.36921049  0.15553594  0.01815549  1  0  -0.249155  0  3.460243  0  0  -0.180195  0  3.686666  0  0  -0.196323  0  3.702643  0  0  -0.339428  -0.170145  0  3.676745  0
O  O56  1  0.74553899  0.62167434  0.78303964  1  0  -0.956157  0  1.964956  0  0  -0.89575  0  2.246639  0  0  -0.936399  0  2.221331  0  0  -0.50187  -0.876216  0  2.260782  0
O  O57  1  0.25445382  0.37832098  0.21695616  1  0  -0.956146  0  1.965083  0  0  -0.895706  0  2.246719  0  0  -0.936384  0  2.221433  0  0  -0.501794  -0.876186  0  2.260871  0
O  O58  1  0.02801221  0.80932764  0.62163922  1  0  -0.896625  0  1.825231  0  0  -0.85906  0  2.009518  0  0  -0.8882  0  1.96922  0  0  -0.629423  -0.846462  0  2.031392  0
O  O59  1  0.97196494  0.19068380  0.37835586  1  0  -0.896499  0  1.825284  0  0  -0.858929  0  2.009627  0  0  -0.888076  0  1.969322  0  0  -0.629356  -0.846339  0  2.031448  0
O  O60  1  0.75616120  0.51926587  0.00620957  1  0  -0.760718  0  2.004388  0  0  -0.68526  0  2.227488  0  0  -0.706591  0  2.203121  0  0  -0.38846  -0.669624  0  2.244235  0
O  O61  1  0.24383682  0.48073319  0.99379006  1  0  -0.76073  0  2.004373  0  0  -0.685263  0  2.227465  0  0  -0.706588  0  2.203096  0  0  -0.38846  -0.669623  0  2.244211  0
O  O62  1  0.52116714  0.42117606  0.89598435  1  0  -0.855524  0  1.974411  0  0  -0.777547  0  2.219419  0  0  -0.802158  0  2.199474  0  0  -0.366154  -0.760078  0  2.232972  0
O  O63  1  0.47882814  0.57882404  0.10401984  1  0  -0.85559  0  1.974333  0  0  -0.777585  0  2.219315  0  0  -0.802198  0  2.199365  0  0  -0.366166  -0.760109  0  2.232866  0
O  O64  1  0.71862246  0.75799597  0.20958202  1  0  -0.480297  0  2.147079  0  0  -0.43026  0  2.362059  0  0  -0.449922  0  2.35415  0  0  -0.339453  -0.416656  0  2.366689  0
O  O65  1  0.28139524  0.24199964  0.79041633  1  0  -0.48024  0  2.147302  0  0  -0.43028  0  2.362229  0  0  -0.449936  0  2.354314  0  0  -0.339512  -0.416673  0  2.366857  0
O  O66  1  0.65296019  0.45260494  0.62147700  1  0  -0.658603  0  2.086005  0  0  -0.617228  0  2.325831  0  0  -0.651976  0  2.314972  0  0  -0.369061  -0.599583  0  2.330802  0
O  O67  1  0.34701465  0.54740418  0.37852442  1  0  -0.658472  0  2.086016  0  0  -0.617151  0  2.326028  0  0  -0.651906  0  2.315166  0  0  -0.369069  -0.599515  0  2.330993  0
O  O68  1  0.50105498  0.30303429  0.54462011  1  0  -0.648499  0  2.050349  0  0  -0.611179  0  2.290672  0  0  -0.644399  0  2.280939  0  0  -0.363615  -0.594005  0  2.294943  0
O  O69  1  0.49892984  0.69697971  0.45536453  1  0  -0.648476  0  2.050066  0  0  -0.611135  0  2.290416  0  0  -0.644343  0  2.28069  0  0  -0.363586  -0.593954  0  2.294685  0
O  O70  1  0.86792146  0.66289923  0.42118772  1  0  -0.676069  0  2.107946  0  0  -0.628913  0  2.343224  0  0  -0.664288  0  2.3326  0  0  -0.354167  -0.611222  0  2.348437  0
O  O71  1  0.13209758  0.33711249  0.57882465  1  0  -0.675954  0  2.107932  0  0  -0.628828  0  2.343182  0  0  -0.664209  0  2.332571  0  0  -0.354115  -0.611142  0  2.348393  0
O  O72  1  0.98591483  0.48093028  0.36351262  1  0  -0.613068  0  2.049142  0  0  -0.571668  0  2.283012  0  0  -0.6022  0  2.272309  0  0  -0.334619  -0.556183  0  2.288677  0
O  O73  1  0.01410602  0.51908055  0.63651058  1  0  -0.613031  0  2.049722  0  0  -0.571606  0  2.283455  0  0  -0.60212  0  2.272773  0  0  -0.334622  -0.556115  0  2.28912  0
O  O74  1  0.72798820  0.96568788  0.46881701  1  0  -0.675378  0  2.037107  0  0  -0.627076  0  2.269265  0  0  -0.662428  0  2.256403  0  0  -0.357204  -0.60951  0  2.275872  0
O  O75  1  0.27201679  0.03430924  0.53117755  1  0  -0.675352  0  2.037238  0  0  -0.627026  0  2.269381  0  0  -0.662387  0  2.256521  0  0  -0.357122  -0.609472  0  2.275988  0
O  O76  1  0.53512202  0.16827216  0.38234296  1  0  -0.624452  0  2.016836  0  0  -0.58809  0  2.25171  0  0  -0.620045  0  2.240243  0  0  -0.340407  -0.572871  0  2.258298  0
O  O77  1  0.46485526  0.83171318  0.61764913  1  0  -0.624579  0  2.016518  0  0  -0.588194  0  2.251384  0  0  -0.620148  0  2.239923  0  0  -0.340417  -0.572965  0  2.257972  0
