# generated using pymatgen
data_Zn4H42C36N8O17
_symmetry_space_group_name_H-M   'P 1'
_cell_length_a   9.54537754
_cell_length_b   14.01431754
_cell_length_c   18.65224756
_cell_angle_alpha   88.75672965
_cell_angle_beta   89.99245453
_cell_angle_gamma   109.91493824
_symmetry_Int_Tables_number   1
_chemical_formula_structural   Zn4H42C36N8O17
_chemical_formula_sum   'Zn8 H84 C72 N16 O34'
_cell_volume   2345.30873903
_cell_formula_units_Z   2
loop_
 _symmetry_equiv_pos_site_id
 _symmetry_equiv_pos_as_xyz
  1  'x, y, z'
loop_
 _atom_site_type_symbol
 _atom_site_label
 _atom_site_symmetry_multiplicity
 _atom_site_fract_x
 _atom_site_fract_y
 _atom_site_fract_z
 _atom_site_occupancy
 _atom_site_pbe_bader_charge
 _atom_site_pbe_bader_spin_density
 _atom_site_pbe_cm5_charge
 _atom_site_pbe_ddec_charge
 _atom_site_pbe_ddec_spin_density
 _atom_site_pbe_ddec_sum_bond_order
 _atom_site_pbe_magmom
Zn  Zn0  1  0.70978150  0.42424584  0.95071438  1  1.330444  0  0.669982  0.910467  0  2.238403  0
Zn  Zn1  1  0.71449716  0.42421186  0.45066271  1  1.330026  0  0.669532  0.909549  0  2.239197  0
Zn  Zn2  1  0.66241393  0.17072596  0.90018561  1  1.346697  0  0.65562  0.905424  0  2.254341  0
Zn  Zn3  1  0.50862673  0.17071304  0.40022612  1  1.34854  0  0.655379  0.904704  0  2.256508  0
Zn  Zn4  1  0.72584514  0.93383377  0.94608870  1  1.303945  0  0.680502  0.858435  0  2.246568  0
Zn  Zn5  1  0.20824783  0.93389523  0.44604314  1  1.30352  0  0.68027  0.858072  0  2.24748  0
Zn  Zn6  1  0.77529235  0.69060764  0.98695905  1  1.348213  0  0.654226  0.900792  0  2.268953  0
Zn  Zn7  1  0.91523007  0.69070680  0.48681982  1  1.34935  0  0.654668  0.900948  0  2.268825  0
H  H8  1  0.94970297  0.43072129  0.86609573  1  0.539352  0  0.307348  0.2508  0  1.036247  0
H  H9  1  0.48119714  0.43065841  0.36594635  1  0.534678  0  0.307104  0.250259  0  1.037233  0
H  H10  1  0.14240056  0.46296913  0.91724657  1  0.087458  0  0.106443  0.103797  0  1.02722  0
H  H11  1  0.32102798  0.46271378  0.41719573  1  0.052548  0  0.106319  0.103894  0  1.026364  0
H  H12  1  0.65847339  0.43213512  0.82046384  1  0.429781  0  0.305325  0.299189  0  0.944198  0
H  H13  1  0.77417035  0.43204636  0.32051274  1  0.452245  0  0.30497  0.298307  0  0.94549  0
H  H14  1  0.64141765  0.54176945  0.85410467  1  0.482815  0  0.292181  0.300423  0  0.997372  0
H  H15  1  0.90084326  0.54173394  0.35408661  1  0.527127  0  0.292327  0.300368  0  0.996891  0
H  H16  1  0.53638147  0.90690330  0.82837111  1  0.52156  0  0.309528  0.255659  0  1.014075  0
H  H17  1  0.37068949  0.90701066  0.32822305  1  0.522866  0  0.309756  0.25509  0  1.014523  0
H  H18  1  0.41580083  0.54183013  0.90976855  1  0.097205  0  0.1051  0.117902  0  1.015835  0
H  H19  1  0.12678321  0.54180555  0.40966099  1  0.086586  0  0.104802  0.117291  0  1.015959  0
H  H20  1  0.27000350  0.79148564  0.51931421  1  0.483131  0  0.292181  0.29672  0  1.015231  0
H  H21  1  0.52122363  0.79156234  0.01929248  1  0.522572  0  0.291959  0.296151  0  1.015908  0
H  H22  1  0.42260292  0.87900988  0.47970436  1  0.455363  0  0.311524  0.308328  0  0.91436  0
H  H23  1  0.45647297  0.87916433  0.97958018  1  0.443847  0  0.311467  0.307292  0  0.916048  0
H  H24  1  0.44246057  0.27968265  0.80143853  1  0.096881  0  0.107125  0.128715  0  1.005096  0
H  H25  1  0.83744137  0.27957291  0.30161360  1  0.126616  0  0.107148  0.128418  0  1.005083  0
H  H26  1  0.04575452  0.95389934  0.56485640  1  0.51599  0  0.31066  0.253228  0  1.015655  0
H  H27  1  0.90846134  0.95386108  0.06484653  1  0.522308  0  0.310147  0.252628  0  1.016469  0
H  H28  1  0.16640205  0.20425947  0.80345130  1  0.089581  0  0.105208  0.108631  0  0.996305  0
H  H29  1  0.03786781  0.20398657  0.30354252  1  0.093772  0  0.105531  0.108747  0  0.996623  0
H  H30  1  0.93432307  0.07691536  0.87321686  1  0.502291  0  0.291333  0.300237  0  1.011542  0
H  H31  1  0.14271381  0.07693547  0.37328877  1  0.513849  0  0.291235  0.300354  0  1.011257  0
H  H32  1  0.99618053  0.98695561  0.91139882  1  0.43446  0  0.311924  0.307823  0  0.914836  0
H  H33  1  0.99089749  0.98699471  0.41155666  1  0.445373  0  0.31168  0.307647  0  0.914847  0
H  H34  1  0.48894936  0.43644082  0.04586845  1  0.499554  0  0.314808  0.262694  0  0.995474  0
H  H35  1  0.94698950  0.43643891  0.54578645  1  0.498286  0  0.314612  0.262688  0  0.995715  0
H  H36  1  0.85416306  0.55403294  0.14397625  1  0.480278  0  0.307271  0.314297  0  0.939283  0
H  H37  1  0.69936578  0.55433385  0.64385975  1  0.477958  0  0.307411  0.315211  0  0.939059  0
H  H38  1  0.86644652  0.46043949  0.20097858  1  0.42265  0  0.302595  0.291384  0  0.957164  0
H  H39  1  0.59365834  0.46082052  0.70097071  1  0.432324  0  0.302202  0.291251  0  0.957711  0
H  H40  1  0.19275149  0.18367935  0.97827127  1  0.052251  0  0.099362  0.15928  0  0.991804  0
H  H41  1  0.99108083  0.18362490  0.47831413  1  0.090877  0  0.099726  0.160173  0  0.991951  0
H  H42  1  0.26025184  0.24988302  0.05866309  1  0.051303  0  0.091376  0.143032  0  1.006603  0
H  H43  1  0.98969748  0.24985557  0.55869792  1  0.048069  0  0.091248  0.143063  0  1.005834  0
H  H44  1  0.25743225  0.12198008  0.04796974  1  0.035739  0  0.094693  0.145455  0  1.01237  0
H  H45  1  0.86459982  0.12195465  0.54798839  1  0.03446  0  0.094707  0.145634  0  1.01205  0
H  H46  1  0.64038815  0.11805697  0.65595304  1  0.067494  0  0.10474  0.107454  0  0.98925  0
H  H47  1  0.47802347  0.11848284  0.15574433  1  0.088215  0  0.104827  0.108029  0  0.988898  0
H  H48  1  0.56372268  0.03809094  0.53739022  1  0.110313  0  0.104039  0.121407  0  1.029774  0
H  H49  1  0.47464544  0.03837776  0.03719974  1  0.106867  0  0.103874  0.121238  0  1.029782  0
H  H50  1  0.21515420  0.79292716  0.64158773  1  0.082848  0  0.1048  0.120213  0  1.003875  0
H  H51  1  0.57734794  0.79304888  0.14153077  1  0.09048  0  0.105007  0.120538  0  1.003823  0
H  H52  1  0.29382036  0.87195818  0.75987888  1  0.050484  0  0.097311  0.089104  0  1.037423  0
H  H53  1  0.57768117  0.87217683  0.25977841  1  0.043811  0  0.097377  0.089527  0  1.036842  0
H  H54  1  0.83820064  0.40955654  0.07103939  1  0.633714  0  0.288138  0.360595  0  0.98305  0
H  H55  1  0.57132007  0.40974488  0.57099558  1  0.642725  0  0.288023  0.360698  0  0.982885  0
H  H56  1  0.81233997  0.30682988  0.02509545  1  0.641218  0  0.287019  0.37667  0  0.970372  0
H  H57  1  0.49494897  0.30685461  0.52516866  1  0.639841  0  0.286635  0.376067  0  0.971447  0
H  H58  1  0.96625887  0.25691227  0.10687127  1  0.024028  0  0.094652  0.148718  0  1.018883  0
H  H59  1  0.29119351  0.25722668  0.60656724  1  0.073728  0  0.095022  0.148225  0  1.018931  0
H  H60  1  0.98045497  0.13548350  0.13040793  1  0.037405  0  0.092288  0.146202  0  1.01404  0
H  H61  1  0.15547845  0.13588205  0.63020181  1  0.044233  0  0.092006  0.145907  0  1.013579  0
H  H62  1  0.81655228  0.16275094  0.15203549  1  0.078726  0  0.102533  0.163848  0  0.990965  0
H  H63  1  0.34657905  0.16322923  0.65201929  1  0.076501  0  0.102337  0.163331  0  0.991522  0
H  H64  1  0.84541219  0.98636140  0.63407925  1  0.062479  0  0.097438  0.088789  0  1.038217  0
H  H65  1  0.14101208  0.98629862  0.13418624  1  0.058512  0  0.097348  0.088113  0  1.038542  0
H  H66  1  0.85883950  0.07000673  0.75161751  1  0.070072  0  0.105425  0.123342  0  1.003768  0
H  H67  1  0.21114863  0.06992741  0.25170657  1  0.086767  0  0.10541  0.122668  0  1.004283  0
H  H68  1  0.97259829  0.82832423  0.85458644  1  0.111754  0  0.104689  0.120496  0  1.030322  0
H  H69  1  0.85543653  0.82838332  0.35467509  1  0.110503  0  0.104689  0.12051  0  1.030397  0
H  H70  1  0.95736258  0.74422291  0.73693605  1  0.058615  0  0.103198  0.104067  0  0.992139  0
H  H71  1  0.78668093  0.74427412  0.23705287  1  0.056386  0  0.102805  0.103822  0  0.992022  0
H  H72  1  0.57725988  0.63893041  0.75433432  1  0.045901  0  0.088777  0.139766  0  1.034161  0
H  H73  1  0.06162836  0.63924201  0.25411278  1  0.057259  0  0.089185  0.140515  0  1.034428  0
H  H74  1  0.57400803  0.76441643  0.73843263  1  0.069299  0  0.098716  0.159184  0  0.995149  0
H  H75  1  0.19033781  0.76476796  0.23830656  1  0.06587  0  0.098649  0.158493  0  0.995811  0
H  H76  1  0.42260033  0.67222485  0.78327244  1  0.027841  0  0.096851  0.152057  0  1.00483  0
H  H77  1  0.24962831  0.67250590  0.28296639  1  0.059078  0  0.096887  0.151623  0  1.005331  0
H  H78  1  0.33885344  0.43589948  0.15185359  1  0.045736  0  0.101023  0.097121  0  1.004767  0
H  H79  1  0.09650799  0.43585253  0.65176169  1  0.06327  0  0.101049  0.097058  0  1.005337  0
H  H80  1  0.08330738  0.40150786  0.19764590  1  0.083259  0  0.095479  0.101004  0  1.046584  0
H  H81  1  0.31772162  0.40159109  0.69760000  1  0.076495  0  0.095368  0.101222  0  1.046157  0
H  H82  1  0.04514134  0.64839676  0.06597699  1  0.107273  0  0.105653  0.12695  0  1.033068  0
H  H83  1  0.60269582  0.64833028  0.56574507  1  0.132512  0  0.105914  0.127062  0  1.032694  0
H  H84  1  0.30100679  0.68281330  0.02038557  1  0.051354  0  0.102228  0.098317  0  1.023838  0
H  H85  1  0.38118770  0.68266490  0.52016205  1  0.069097  0  0.102266  0.099009  0  1.023248  0
H  H86  1  0.18522267  0.74712288  0.85191710  1  0.012103  0  0.09452  0.148849  0  1.009061  0
H  H87  1  0.56170047  0.74696526  0.35176283  1  0.015995  0  0.094563  0.149344  0  1.009041  0
H  H88  1  0.13139708  0.62635957  0.80857245  1  0.03527  0  0.09549  0.14849  0  0.995738  0
H  H89  1  0.49475469  0.62613763  0.30850913  1  0.056916  0  0.095454  0.149226  0  0.99526  0
H  H90  1  0.22827055  0.64399837  0.89097125  1  0.055769  0  0.098371  0.150877  0  1.013009  0
H  H91  1  0.41559204  0.64385786  0.39091883  1  0.062277  0  0.098473  0.151571  0  1.012825  0
C  C92  1  0.13417790  0.33034523  0.85707253  1  -0.071361  0  -0.028838  -0.054055  0  4.056445  0
C  C93  1  0.19645214  0.33011397  0.35708667  1  -0.042424  0  -0.02939  -0.055832  0  4.059006  0
C  C94  1  0.20658827  0.42499688  0.88809886  1  -0.038888  0  -0.088192  -0.098281  0  4.008755  0
C  C95  1  0.21880417  0.42479794  0.38806947  1  -0.011798  0  -0.088399  -0.098694  0  4.006876  0
C  C96  1  0.36004537  0.46911027  0.88497863  1  -0.053895  0  -0.102695  -0.185493  0  3.969386  0
C  C97  1  0.10958956  0.46901176  0.38493296  1  -0.040854  0  -0.101762  -0.183695  0  3.967831  0
C  C98  1  0.44638469  0.41859740  0.85221827  1  0.350581  0  0.089922  0.289477  0  4.045463  0
C  C99  1  0.97267461  0.41852012  0.35224920  1  0.349381  0  0.089458  0.288681  0  4.044293  0
C  C100  1  0.37602512  0.32200758  0.82378524  1  -0.08266  0  -0.101005  -0.201533  0  3.955128  0
C  C101  1  0.94629051  0.32185332  0.32388539  1  -0.077788  0  -0.101571  -0.201937  0  3.955151  0
C  C102  1  0.22107886  0.27886093  0.82605844  1  0.006036  0  -0.083756  -0.080633  0  3.98518  0
C  C103  1  0.05797944  0.27863459  0.32613393  1  -0.036497  0  -0.083191  -0.079117  0  3.987041  0
C  C104  1  0.96993397  0.28613597  0.85948643  1  1.366881  0  0.21293  0.4034  0  4.188403  0
C  C105  1  0.31651559  0.28597674  0.35950221  1  1.314267  0  0.213013  0.402147  0  4.191066  0
C  C106  1  0.43012149  0.23378747  0.98664896  1  1.595763  0  0.218219  0.707742  0  4.114232  0
C  C107  1  0.80380826  0.23373015  0.48664104  1  1.576222  0  0.217937  0.706529  0  4.113623  0
C  C108  1  0.27616758  0.19564611  0.02087560  1  -0.076861  0  -0.245314  -0.517241  0  3.885831  0
C  C109  1  0.91959550  0.19561831  0.52090321  1  -0.096784  0  -0.245963  -0.518687  0  3.885334  0
C  C110  1  0.47455891  0.99907069  0.71560861  1  -0.017535  0  -0.027783  -0.051738  0  4.061168  0
C  C111  1  0.52442945  0.99936150  0.21545835  1  -0.043928  0  -0.027049  -0.050321  0  4.060659  0
C  C112  1  0.54858610  0.04609917  0.65244086  1  0.024539  0  -0.086086  -0.086726  0  4.006871  0
C  C113  1  0.49767544  0.04644347  0.15226745  1  -0.104612  0  -0.085908  -0.088141  0  4.006568  0
C  C114  1  0.50647608  0.00132299  0.58652797  1  -0.108211  0  -0.101439  -0.193822  0  3.961907  0
C  C115  1  0.49495438  0.00159661  0.08636814  1  0.00142  0  -0.101963  -0.193429  0  3.960283  0
C  C116  1  0.38631893  0.90959944  0.58269667  1  0.327941  0  0.089294  0.291924  0  4.022006  0
C  C117  1  0.52315796  0.90978908  0.08258430  1  0.327898  0  0.089607  0.292052  0  4.024073  0
C  C118  1  0.30982307  0.86324985  0.64535184  1  -0.0531  0  -0.100864  -0.183235  0  3.958202  0
C  C119  1  0.55311907  0.86342106  0.14526112  1  0.013698  0  -0.101432  -0.184861  0  3.960465  0
C  C120  1  0.35464111  0.90748950  0.71130355  1  0.007662  0  -0.09196  -0.10192  0  4.026067  0
C  C121  1  0.55257249  0.90772094  0.21118344  1  -0.033711  0  -0.092102  -0.102052  0  4.02653  0
C  C122  1  0.52886302  0.04498175  0.78522837  1  1.346065  0  0.215244  0.412226  0  4.189105  0
C  C123  1  0.51609098  0.04519774  0.28510275  1  1.347502  0  0.214674  0.410723  0  4.190361  0
C  C124  1  0.83361173  0.13394951  0.04121298  1  1.58064  0  0.224752  0.708831  0  4.092023  0
C  C125  1  0.30107657  0.13407431  0.54118947  1  1.587345  0  0.225462  0.709828  0  4.092915  0
C  C126  1  0.90556895  0.17494798  0.11172274  1  -0.057305  0  -0.246003  -0.530857  0  3.88035  0
C  C127  1  0.26990955  0.17527601  0.61158509  1  -0.112775  0  -0.246056  -0.529493  0  3.879499  0
C  C128  1  0.90468105  0.86108213  0.67757052  1  -0.002419  0  -0.025971  -0.047788  0  4.05168  0
C  C129  1  0.95632289  0.86104568  0.17766256  1  0.041185  0  -0.025424  -0.048089  0  4.052222  0
C  C130  1  0.87657354  0.95281476  0.68214402  1  -0.097552  0  -0.093088  -0.108931  0  4.037814  0
C  C131  1  0.07622064  0.95275918  0.18223389  1  0.004552  0  -0.093234  -0.107438  0  4.036208  0
C  C132  1  0.88345661  0.99974776  0.74767292  1  0.012701  0  -0.103275  -0.193975  0  3.970241  0
C  C133  1  0.11622755  0.99970672  0.24775726  1  -0.062571  0  -0.10336  -0.193755  0  3.970143  0
C  C134  1  0.92084037  0.95578301  0.80975677  1  0.319509  0  0.089141  0.290159  0  4.025423  0
C  C135  1  0.03485461  0.95579279  0.30985613  1  0.32163  0  0.088794  0.289396  0  4.025281  0
C  C136  1  0.94791631  0.86363637  0.80570612  1  -0.052793  0  -0.101865  -0.191947  0  3.957105  0
C  C137  1  0.91554984  0.86367513  0.30581021  1  -0.053758  0  -0.101536  -0.192022  0  3.95615  0
C  C138  1  0.93797643  0.81634549  0.74031104  1  -0.026892  0  -0.083934  -0.077571  0  3.991766  0
C  C139  1  0.87824073  0.81636759  0.24041940  1  -0.080586  0  -0.084448  -0.077691  0  3.991102  0
C  C140  1  0.90881576  0.81424208  0.60772546  1  1.341932  0  0.214834  0.408523  0  4.185195  0
C  C141  1  0.90528646  0.81417227  0.10782713  1  1.299596  0  0.215803  0.409763  0  4.185579  0
C  C142  1  0.61682158  0.73289977  0.84836038  1  1.55718  0  0.217638  0.698283  0  4.115854  0
C  C143  1  0.11616040  0.73299929  0.34825179  1  1.563451  0  0.216732  0.695384  0  4.119025  0
C  C144  1  0.54445012  0.69981304  0.77659225  1  -0.05022  0  -0.249353  -0.53256  0  3.898788  0
C  C145  1  0.15534793  0.70007862  0.27639187  1  -0.087002  0  -0.249912  -0.531701  0  3.900389  0
C  C146  1  0.33711088  0.56030034  0.08098449  1  -0.023379  0  -0.034108  -0.063614  0  4.079439  0
C  C147  1  0.22266505  0.56021991  0.58085624  1  -0.031201  0  -0.033982  -0.062563  0  4.07892  0
C  C148  1  0.27401675  0.48136884  0.13147449  1  -0.033267  0  -0.092445  -0.097997  0  4.027912  0
C  C149  1  0.20681370  0.48133455  0.63137165  1  -0.045148  0  -0.091915  -0.09771  0  4.027996  0
C  C150  1  0.13027362  0.46210910  0.15768789  1  -0.019026  0  -0.1075  -0.204105  0  3.985044  0
C  C151  1  0.33132513  0.46215044  0.65760910  1  -0.034156  0  -0.10759  -0.204347  0  3.984785  0
C  C152  1  0.04583786  0.52114057  0.13331537  1  0.2726  0  0.097029  0.29802  0  4.059424  0
C  C153  1  0.47479478  0.52119933  0.63320073  1  0.351267  0  0.097205  0.298287  0  4.060595  0
C  C154  1  0.10961863  0.60171579  0.08419575  1  0.082188  0  -0.097232  -0.179401  0  3.92737  0
C  C155  1  0.49154125  0.60166137  0.58399072  1  0.011086  0  -0.0977  -0.179609  0  3.929484  0
C  C156  1  0.25292703  0.62059244  0.05882668  1  -0.048474  0  -0.087113  -0.076576  0  3.992733  0
C  C157  1  0.36709416  0.62047573  0.55861466  1  -0.094043  0  -0.087044  -0.077788  0  3.99473  0
C  C158  1  0.48809466  0.58567339  0.05094204  1  1.285962  0  0.215498  0.396554  0  4.188645  0
C  C159  1  0.09708600  0.58566073  0.55089846  1  1.302604  0  0.215106  0.396576  0  4.187224  0
C  C160  1  0.99873394  0.63011624  0.90245333  1  1.596364  0  0.217728  0.700147  0  4.113487  0
C  C161  1  0.63135605  0.63008362  0.40231367  1  1.587441  0  0.218612  0.701558  0  4.111935  0
C  C162  1  0.14416828  0.66453272  0.86011884  1  -0.042576  0  -0.246542  -0.53067  0  3.899857  0
C  C163  1  0.52021884  0.66438598  0.36002885  1  -0.072847  0  -0.246625  -0.533218  0  3.900513  0
N  N164  1  0.89946602  0.35306175  0.86261421  1  -0.754392  0  -0.335352  -0.161159  0  3.717107  0
N  N165  1  0.45385949  0.35298686  0.36252471  1  -0.739725  0  -0.334421  -0.158194  0  3.716862  0
N  N166  1  0.60218920  0.46319949  0.85392090  1  -1.226843  0  -0.601988  -0.627136  0  3.462443  0
N  N167  1  0.86153223  0.46316015  0.35394307  1  -1.288195  0  -0.601558  -0.625906  0  3.460478  0
N  N168  1  0.53841965  0.97985958  0.83672528  1  -0.749846  0  -0.334963  -0.176725  0  3.694071  0
N  N169  1  0.44158191  0.97996898  0.33659414  1  -0.751203  0  -0.3355  -0.17569  0  3.693585  0
N  N170  1  0.33720271  0.86688932  0.51548629  1  -1.230133  0  -0.605154  -0.617125  0  3.433158  0
N  N171  1  0.52958847  0.86698983  0.01541817  1  -1.257766  0  -0.604534  -0.614395  0  3.435447  0
N  N172  1  0.97824968  0.88043453  0.55575759  1  -0.739183  0  -0.333748  -0.169172  0  3.707687  0
N  N173  1  0.90235038  0.88034815  0.05580502  1  -0.744264  0  -0.333887  -0.169532  0  3.707993  0
N  N174  1  0.92182227  0.00053056  0.87694371  1  -1.196533  0  -0.601229  -0.613903  0  3.42425  0
N  N175  1  0.07873975  0.00056289  0.37702804  1  -1.226862  0  -0.600567  -0.613103  0  3.422537  0
N  N176  1  0.54833121  0.51307944  0.04559881  1  -0.706116  0  -0.327914  -0.162371  0  3.690957  0
N  N177  1  0.96425716  0.51308258  0.54551877  1  -0.714613  0  -0.327497  -0.163105  0  3.689771  0
N  N178  1  0.89596354  0.49667357  0.15267852  1  -1.22804  0  -0.581352  -0.605918  0  3.296899  0
N  N179  1  0.60029672  0.49690473  0.65262256  1  -1.232193  0  -0.581343  -0.607257  0  3.299376  0
O  O180  1  0.89676496  0.19108964  0.85964959  1  -1.172222  0  -0.308216  -0.530778  0  2.313573  0
O  O181  1  0.29476424  0.19093903  0.35979063  1  -1.159912  0  -0.308134  -0.530146  0  2.31441  0
O  O182  1  0.74927318  0.32321370  0.87619584  1  -0.737735  0  -0.268603  -0.441741  0  2.312988  0
O  O183  1  0.57430278  0.32326324  0.37616001  1  -0.731892  0  -0.268932  -0.442581  0  2.311326  0
O  O184  1  0.51016521  0.32632910  0.99710388  1  -1.208944  0  -0.324454  -0.594933  0  2.323351  0
O  O185  1  0.81608424  0.32622179  0.49716458  1  -1.203543  0  -0.324024  -0.59411  0  2.32254  0
O  O186  1  0.46712330  0.17136643  0.94971342  1  -1.184781  0  -0.3205  -0.566516  0  2.288061  0
O  O187  1  0.70461752  0.17131551  0.44960291  1  -1.184959  0  -0.320329  -0.565691  0  2.287098  0
O  O188  1  0.56834812  0.13978660  0.79582907  1  -1.158767  0  -0.317549  -0.517629  0  2.251036  0
O  O189  1  0.57137686  0.13998887  0.29576465  1  -1.163986  0  -0.317212  -0.51712  0  2.252139  0
O  O190  1  0.59745731  0.01531407  0.90232682  1  -0.738923  0  -0.273334  -0.444825  0  2.330829  0
O  O191  1  0.41816585  0.01525129  0.40228543  1  -0.735393  0  -0.273103  -0.444494  0  2.331019  0
O  O192  1  0.76822525  0.18614496  0.00672626  1  -1.191475  0  -0.30417  -0.565453  0  2.310878  0
O  O193  1  0.41896007  0.18609406  0.50682574  1  -1.19344  0  -0.304416  -0.565241  0  2.312836  0
O  O194  1  0.84014793  0.04932635  0.02114244  1  -1.20179  0  -0.314206  -0.568848  0  2.305614  0
O  O195  1  0.20979883  0.04951168  0.52108918  1  -1.206942  0  -0.314472  -0.570019  0  2.305717  0
O  O196  1  0.85585541  0.71923898  0.59715548  1  -1.169345  0  -0.313751  -0.525594  0  2.252548  0
O  O197  1  0.86286267  0.71913261  0.09731547  1  -1.14971  0  -0.31407  -0.526058  0  2.252115  0
O  O198  1  0.99954838  0.84818225  0.48893934  1  -0.733742  0  -0.272169  -0.442078  0  2.321603  0
O  O199  1  0.84870597  0.84807901  0.98900230  1  -0.733988  0  -0.272439  -0.442449  0  2.320651  0
O  O200  1  0.60723294  0.81470072  0.87310790  1  -1.204456  0  -0.322196  -0.578822  0  2.299714  0
O  O201  1  0.20756530  0.81477543  0.37303031  1  -1.21235  0  -0.321819  -0.577799  0  2.300437  0
O  O202  1  0.67967766  0.67704495  0.88010669  1  -1.191511  0  -0.308693  -0.567898  0  2.298715  0
O  O203  1  0.99756330  0.67702681  0.38004628  1  -1.191783  0  -0.308384  -0.56646  0  2.300424  0
O  O204  1  0.56113433  0.67617544  0.02916155  1  -1.173895  0  -0.304911  -0.520893  0  2.387207  0
O  O205  1  0.11458786  0.67620065  0.52921133  1  -1.164876  0  -0.305443  -0.521256  0  2.387391  0
O  O206  1  0.68746213  0.53607450  0.01500618  1  -0.727027  0  -0.270397  -0.444369  0  2.312224  0
O  O207  1  0.84814633  0.53611768  0.51494056  1  -0.7279  0  -0.27047  -0.443751  0  2.312579  0
O  O208  1  0.97431779  0.69540497  0.94202905  1  -1.18396  0  -0.319056  -0.558588  0  2.298215  0
O  O209  1  0.72107683  0.69545196  0.44183614  1  -1.185544  0  -0.319521  -0.558791  0  2.29673  0
O  O210  1  0.91289345  0.53844670  0.89606837  1  -1.212671  0  -0.320944  -0.581576  0  2.272571  0
O  O211  1  0.62563154  0.53844073  0.39594240  1  -1.203905  0  -0.321275  -0.582208  0  2.272585  0
O  O212  1  0.84475320  0.38312951  0.02287674  1  -1.264212  0  -0.580064  -0.746105  0  2.203844  0
O  O213  1  0.53836368  0.38316749  0.52286745  1  -1.269741  0  -0.579514  -0.745603  0  2.203613  0
