# generated using pymatgen
data_ZnH13C28I2N(O2F)2
_symmetry_space_group_name_H-M   'P 1'
_cell_length_a   15.49911564
_cell_length_b   18.38485610
_cell_length_c   19.66448785
_cell_angle_alpha   88.56173025
_cell_angle_beta   88.13383900
_cell_angle_gamma   68.14577368
_symmetry_Int_Tables_number   1
_chemical_formula_structural   ZnH13C28I2N(O2F)2
_chemical_formula_sum   'Zn2 H26 C56 I4 N2 O8 F4'
_cell_volume   5197.41674887
_cell_formula_units_Z   2
loop_
 _symmetry_equiv_pos_site_id
 _symmetry_equiv_pos_as_xyz
  1  'x, y, z'
loop_
 _atom_site_type_symbol
 _atom_site_label
 _atom_site_symmetry_multiplicity
 _atom_site_fract_x
 _atom_site_fract_y
 _atom_site_fract_z
 _atom_site_occupancy
 _atom_site_pbe_bader_charge
 _atom_site_pbe_bader_spin_density
 _atom_site_pbe_cm5_charge
 _atom_site_pbe_ddec_charge
 _atom_site_pbe_ddec_spin_density
 _atom_site_pbe_ddec_sum_bond_order
 _atom_site_pbe_magmom
Zn  Zn0  1  0.49822017  0.57748318  0.49606940  1  1.296251  0  0.667676  0.851775  0  2.385783  0
Zn  Zn1  1  0.50206886  0.42221662  0.50463681  1  1.295489  0  0.668032  0.852517  0  2.395348  0
H  H2  1  0.88382902  0.70186544  0.57039554  1  0.018406  0  0.097228  0.097144  0  1.001506  0
H  H3  1  0.11978471  0.28589923  0.51681890  1  0.039475  0  0.091875  0.09069  0  1.017757  0
H  H4  1  0.59707767  0.55967087  0.06065369  1  0.071193  0  0.101363  0.105726  0  0.999487  0
H  H5  1  0.40917894  0.43873135  0.93937431  1  0.076409  0  0.101257  0.105636  0  0.997733  0
H  H6  1  0.59960392  0.55983233  0.93512837  1  0.061849  0  0.102005  0.102151  0  0.999406  0
H  H7  1  0.40641136  0.43869630  0.06487540  1  0.062594  0  0.102025  0.101602  0  1.000024  0
H  H8  1  0.40134957  0.85634507  0.56808144  1  0.108896  0  0.119957  0.133161  0  0.969281  0
H  H9  1  0.59165067  0.14600804  0.42666802  1  0.111922  0  0.12054  0.133641  0  0.968789  0
H  H10  1  0.41056396  0.71697579  0.56105217  1  0.166938  0  0.133048  0.115338  0  0.980016  0
H  H11  1  0.58371660  0.28482079  0.43525383  1  0.141144  0  0.133794  0.115301  0  0.975786  0
H  H12  1  0.37324030  0.10560842  0.43819679  1  0.10389  0  0.120777  0.152464  0  0.960486  0
H  H13  1  0.62461568  0.89456992  0.55941001  1  0.122783  0  0.120144  0.152057  0  0.96073  0
H  H14  1  0.76779318  0.52254637  0.52786552  1  0.091504  0  0.096648  0.101627  0  1.048717  0
H  H15  1  0.22993249  0.47346907  0.50753158  1  0.12213  0  0.094709  0.100872  0  1.055301  0
H  H16  1  0.81378970  0.28093759  0.50237863  1  0.099182  0  0.102327  0.107206  0  1.001122  0
H  H17  1  0.18719132  0.71345361  0.53820663  1  0.087432  0  0.102517  0.107005  0  1.001453  0
H  H18  1  0.01759371  0.74452259  0.56093394  1  0.05217  0  0.098322  0.098042  0  1.000325  0
H  H19  1  0.98572073  0.24582226  0.50874723  1  0.060994  0  0.098419  0.097943  0  0.999704  0
H  H20  1  0.81929572  0.59968506  0.56012809  1  0.086681  0  0.099622  0.102523  0  1.012544  0
H  H21  1  0.18324674  0.38905439  0.52218764  1  0.036082  0  0.088888  0.087264  0  1.05401  0
H  H22  1  0.50906861  0.37248259  0.28247770  1  0.077908  0  0.101824  0.108588  0  1.004228  0
H  H23  1  0.49139353  0.62956134  0.71885914  1  0.087097  0  0.101941  0.108499  0  1.003864  0
H  H24  1  0.51141041  0.37690454  0.15549307  1  0.071036  0  0.102884  0.103125  0  0.99885  0
H  H25  1  0.49041147  0.62347983  0.84598225  1  0.059621  0  0.103137  0.103454  0  0.998463  0
H  H26  1  0.48766023  0.61245072  0.28461001  1  0.125416  0  0.106592  0.134173  0  1.00881  0
H  H27  1  0.52024199  0.38791143  0.71457545  1  0.123249  0  0.104478  0.131641  0  1.016127  0
C  C28  1  0.50418406  0.51195855  0.63248832  1  1.543642  0  0.212162  0.59554  0  4.15883  0
C  C29  1  0.49833536  0.49049950  0.36821663  1  1.517805  0  0.213606  0.598409  0  4.151937  0
C  C30  1  0.89377531  0.58469207  0.55214825  1  -0.070024  0  -0.093608  -0.130055  0  4.02804  0
C  C31  1  0.10815353  0.40507357  0.52396313  1  0.024221  0  -0.096793  -0.128551  0  4.03024  0
C  C32  1  0.92959610  0.64203753  0.55801863  1  -0.01817  0  -0.095884  -0.140745  0  4.033822  0
C  C33  1  0.07292066  0.34713866  0.52096523  1  0.015124  0  -0.097764  -0.138361  0  4.031465  0
C  C34  1  0.50454285  0.42583070  0.25488345  1  0.113884  0  -0.093496  -0.112193  0  4.010838  0
C  C35  1  0.49774729  0.57557781  0.74610264  1  -0.034909  0  -0.093527  -0.112148  0  4.01054  0
C  C36  1  0.50532763  0.42874028  0.18409454  1  -0.150985  0  -0.09033  -0.118201  0  4.007543  0
C  C37  1  0.49766821  0.57173488  0.81684299  1  -0.015098  0  -0.090451  -0.117462  0  4.007882  0
C  C38  1  0.50105052  0.49667609  0.14727704  1  0.010307  0  -0.01265  -0.0324  0  4.006782  0
C  C39  1  0.50428092  0.50279514  0.85295512  1  0.003047  0  -0.012942  -0.03482  0  4.011099  0
C  C40  1  0.49519724  0.56133153  0.18630155  1  0.345046  0  0.095176  0.240674  0  4.041521  0
C  C41  1  0.51176717  0.43806952  0.81348477  1  0.350551  0  0.09484  0.241303  0  4.044128  0
C  C42  1  0.49341016  0.56039220  0.25670793  1  0.046788  0  -0.099091  -0.222915  0  3.999401  0
C  C43  1  0.51305986  0.43989330  0.74311170  1  0.028199  0  -0.10046  -0.223777  0  4.001026  0
C  C44  1  0.49860466  0.49178099  0.29185667  1  0.009278  0  -0.017849  -0.005759  0  3.973292  0
C  C45  1  0.50535922  0.50953203  0.70869684  1  0.027357  0  -0.018413  -0.004172  0  3.977393  0
C  C46  1  0.55510630  0.53368957  0.03431314  1  -0.074172  0  -0.091886  -0.125488  0  3.996511  0
C  C47  1  0.45109045  0.46475286  0.96579686  1  -0.021553  0  -0.091809  -0.127032  0  3.996022  0
C  C48  1  0.55620964  0.53401976  0.96355703  1  -0.037573  0  -0.091058  -0.129068  0  3.996388  0
C  C49  1  0.44989642  0.46449838  0.03655311  1  -0.047992  0  -0.091472  -0.127118  0  3.994362  0
C  C50  1  0.31983760  0.56822279  0.50868947  1  1.576375  0  0.213336  0.599191  0  4.153192  0
C  C51  1  0.67977520  0.42831529  0.50564216  1  1.579267  0  0.211895  0.598998  0  4.15531  0
C  C52  1  0.50410913  0.49981170  0.92799701  1  0.008371  0  -0.009164  0.081635  0  4.019727  0
C  C53  1  0.50187850  0.49885517  0.07217300  1  0.073059  0  -0.010098  0.078345  0  4.017487  0
C  C54  1  0.57384690  0.70777801  0.44675614  1  0.353967  0  0.082958  0.156721  0  3.893915  0
C  C55  1  0.43096255  0.28973866  0.55684354  1  0.387654  0  0.082962  0.154034  0  3.893283  0
C  C56  1  0.57241609  0.78511659  0.44679138  1  -0.141312  0  -0.049214  -0.066943  0  3.857751  0
C  C57  1  0.42959684  0.21338368  0.55445197  1  -0.169116  0  -0.049257  -0.068906  0  3.858905  0
C  C58  1  0.50984461  0.83963326  0.49128937  1  -0.003577  0  0.009444  0.109729  0  3.983834  0
C  C59  1  0.48830060  0.16043127  0.50704357  1  0.014488  0  0.009643  0.110031  0  3.982708  0
C  C60  1  0.45059227  0.81533653  0.53316028  1  -0.007288  0  -0.077035  -0.168531  0  3.94081  0
C  C61  1  0.54510188  0.18586140  0.46366353  1  -0.007121  0  -0.076564  -0.167496  0  3.93844  0
C  C62  1  0.45529882  0.73878849  0.52972479  1  0.47613  0  0.062009  0.120906  0  3.897986  0
C  C63  1  0.54149416  0.26201743  0.46826809  1  0.477994  0  0.063026  0.121525  0  3.89568  0
C  C64  1  0.43572371  0.98271257  0.46209640  1  0.434583  0  0.093649  0.235572  0  4.069056  0
C  C65  1  0.56196990  0.01748004  0.53568790  1  0.459646  0  0.09382  0.235732  0  4.069887  0
C  C66  1  0.42873730  0.06005547  0.46481906  1  -0.01217  0  -0.093842  -0.231593  0  3.998709  0
C  C67  1  0.56905170  0.94016016  0.53286995  1  0.031853  0  -0.094286  -0.231563  0  3.999625  0
C  C68  1  0.49267641  0.07863882  0.50244499  1  0.079919  0  -0.020431  -0.027919  0  4.054917  0
C  C69  1  0.50504792  0.92156213  0.49528298  1  0.035249  0  -0.020644  -0.028408  0  4.054644  0
C  C70  1  0.21752788  0.59044657  0.52181119  1  -0.12026  0  -0.022782  -0.031231  0  3.980905  0
C  C71  1  0.78222984  0.40472415  0.51416866  1  0.070178  0  -0.022325  -0.02978  0  3.980975  0
C  C72  1  0.06434922  0.68475118  0.54948333  1  -0.034414  0  -0.094582  -0.140823  0  4.006175  0
C  C73  1  0.93772826  0.30661015  0.51340540  1  -0.06711  0  -0.094959  -0.13927  0  4.0103  0
C  C74  1  0.15795011  0.66801549  0.53694741  1  -0.002943  0  -0.090426  -0.098705  0  4.010116  0
C  C75  1  0.84310371  0.32552955  0.50969792  1  -0.068631  0  -0.089318  -0.097277  0  4.011218  0
C  C76  1  0.18152694  0.53182138  0.52023261  1  -0.016088  0  -0.087281  -0.137984  0  3.960822  0
C  C77  1  0.81754312  0.46256756  0.52490484  1  -0.098448  0  -0.085492  -0.138103  0  3.952805  0
C  C78  1  0.08672261  0.54671426  0.53325038  1  -0.036864  0  -0.005203  0.035006  0  3.951092  0
C  C79  1  0.91370698  0.44521113  0.52923666  1  0.001057  0  -0.004824  0.03302  0  3.949184  0
C  C80  1  0.02644298  0.62549557  0.54739210  1  -0.005789  0  -0.007833  0.080758  0  4.01801  0
C  C81  1  0.97519184  0.36531330  0.52171314  1  -0.062268  0  -0.00765  0.082402  0  4.017255  0
C  C82  1  0.04914946  0.48553370  0.53130804  1  -0.043278  0  -0.004942  0.034714  0  3.953299  0
C  C83  1  0.95172739  0.50542238  0.53760077  1  -0.048873  0  -0.003694  0.034951  0  3.956405  0
I  I84  1  0.66777065  0.62263664  0.38377903  1  0.230506  0  0.154854  0.069219  0  1.572145  0
I  I85  1  0.34876827  0.37014456  0.62864023  1  0.232446  0  0.172141  0.079286  0  1.633925  0
I  I86  1  0.65873346  0.82151552  0.38141577  1  0.165081  0  0.091695  0.000317  0  1.472607  0
I  I87  1  0.34358886  0.17641774  0.61971759  1  0.165294  0  0.098939  0.005945  0  1.485553  0
N  N88  1  0.51575138  0.68628230  0.48733696  1  -1.210949  0  -0.309808  -0.215721  0  3.478167  0
N  N89  1  0.48559672  0.31272394  0.51405962  1  -1.206266  0  -0.30822  -0.213834  0  3.473522  0
O  O90  1  0.49583445  0.57626156  0.60236008  1  -1.156008  0  -0.320081  -0.549748  0  2.30342  0
O  O91  1  0.50767021  0.42619147  0.39879597  1  -1.164832  0  -0.319155  -0.551179  0  2.30501  0
O  O92  1  0.51105801  0.44849157  0.60390996  1  -1.176074  0  -0.322731  -0.563785  0  2.403023  0
O  O93  1  0.48913354  0.55477633  0.39643358  1  -1.17398  0  -0.322377  -0.559663  0  2.383389  0
O  O94  1  0.35368584  0.62170665  0.50702927  1  -1.168925  0  -0.320131  -0.544551  0  2.274952  0
O  O95  1  0.64626551  0.37493641  0.50146643  1  -1.155786  0  -0.322801  -0.546743  0  2.275797  0
O  O96  1  0.36660465  0.49520483  0.50070158  1  -1.190278  0  -0.327289  -0.575764  0  2.416396  0
O  O97  1  0.63288807  0.50188003  0.50278820  1  -1.192439  0  -0.3258  -0.578843  0  2.440029  0
F  F98  1  0.37315734  0.96563523  0.42504955  1  -0.629912  0  -0.104852  -0.13959  0  1.313781  0
F  F99  1  0.62445342  0.03459704  0.57281577  1  -0.632512  0  -0.105612  -0.140239  0  1.314035  0
F  F100  1  0.48845383  0.63000245  0.15395799  1  -0.635864  0  -0.113673  -0.160065  0  1.32527  0
F  F101  1  0.52065332  0.36864143  0.84531741  1  -0.63626  0  -0.114326  -0.16061  0  1.324359  0
