# generated using pymatgen
data_CdH6C8N4O3
_symmetry_space_group_name_H-M   'P 1'
_cell_length_a   7.39262262
_cell_length_b   10.44409821
_cell_length_c   14.74040267
_cell_angle_alpha   73.88511751
_cell_angle_beta   75.45871974
_cell_angle_gamma   69.25101825
_symmetry_Int_Tables_number   1
_chemical_formula_structural   CdH6C8N4O3
_chemical_formula_sum   'Cd4 H24 C32 N16 O12'
_cell_volume   1007.57591526
_cell_formula_units_Z   4
loop_
 _symmetry_equiv_pos_site_id
 _symmetry_equiv_pos_as_xyz
  1  'x, y, z'
loop_
 _atom_site_type_symbol
 _atom_site_label
 _atom_site_symmetry_multiplicity
 _atom_site_fract_x
 _atom_site_fract_y
 _atom_site_fract_z
 _atom_site_occupancy
 _atom_site_hle17_bader_spin_density
 _atom_site_hle17_ddec_charge
 _atom_site_hle17_ddec_spin_density
 _atom_site_hle17_ddec_sum_bond_order
 _atom_site_hle17_magmom
 _atom_site_hse06_10hf_bader_spin_density
 _atom_site_hse06_10hf_ddec_charge
 _atom_site_hse06_10hf_ddec_spin_density
 _atom_site_hse06_10hf_ddec_sum_bond_order
 _atom_site_hse06_10hf_magmom
 _atom_site_hse06_bader_spin_density
 _atom_site_hse06_ddec_charge
 _atom_site_hse06_ddec_spin_density
 _atom_site_hse06_ddec_sum_bond_order
 _atom_site_hse06_magmom
 _atom_site_pbe_bader_spin_density
 _atom_site_pbe_cm5_charge
 _atom_site_pbe_ddec_charge
 _atom_site_pbe_ddec_spin_density
 _atom_site_pbe_ddec_sum_bond_order
 _atom_site_pbe_magmom
Cd  Cd0  1  0.78428565  0.25000825  0.75007553  1  0  1.10749  0  1.711628  0  0  0.906829  0  2.164289  0  0  0.962981  0  2.116099  0  0  0.806015  0.866681  0  2.197675  0
Cd  Cd1  1  0.21571251  0.74999327  0.24992370  1  0  1.107534  0  1.711578  0  0  0.90687  0  2.164239  0  0  0.963026  0  2.116047  0  0  0.806016  0.866723  0  2.197625  0
Cd  Cd2  1  0.49999713  0.99999955  0.00000060  1  0  1.205331  0  1.688371  0  0  1.023193  0  2.148929  0  0  1.07462  0  2.094893  0  0  0.811642  0.986184  0  2.186368  0
Cd  Cd3  1  0.49999889  0.50000025  0.50000080  1  0  1.205171  0  1.685873  0  0  1.022815  0  2.146087  0  0  1.074261  0  2.092083  0  0  0.811794  0.985921  0  2.183491  0
H  H4  1  0.53895285  0.71101563  0.05613758  1  0  0.429554  0  0.866821  0  0  0.40016  0  0.927484  0  0  0.411217  0  0.911318  0  0  0.293322  0.39235  0  0.938843  0
H  H5  1  0.30588183  0.78901392  0.44376028  1  0  0.429086  0  0.867255  0  0  0.400143  0  0.927064  0  0  0.41114  0  0.910997  0  0  0.293183  0.392293  0  0.938539  0
H  H6  1  0.46104581  0.28898279  0.94386432  1  0  0.429459  0  0.866959  0  0  0.40008  0  0.927583  0  0  0.411135  0  0.911422  0  0  0.293297  0.39227  0  0.938942  0
H  H7  1  0.69411403  0.21098659  0.55624182  1  0  0.429027  0  0.867331  0  0  0.40008  0  0.927145  0  0  0.411078  0  0.911078  0  0  0.293153  0.392231  0  0.938619  0
H  H8  1  0.35954857  0.77102837  0.00374923  1  0  0.388197  0  0.922165  0  0  0.348444  0  1.003435  0  0  0.3592  0  0.987888  0  0  0.285914  0.340902  0  1.014262  0
H  H9  1  0.13409846  0.72896494  0.49614097  1  0  0.388422  0  0.922183  0  0  0.348517  0  1.003427  0  0  0.359247  0  0.987932  0  0  0.285755  0.340883  0  1.014443  0
H  H10  1  0.64045449  0.22896895  0.99625030  1  0  0.388218  0  0.922143  0  0  0.348467  0  1.003414  0  0  0.359224  0  0.987865  0  0  0.285925  0.340926  0  1.014239  0
H  H11  1  0.86589800  0.27103451  0.50385975  1  0  0.388407  0  0.922167  0  0  0.348497  0  1.003448  0  0  0.359229  0  0.98795  0  0  0.28575  0.340865  0  1.014463  0
H  H12  1  0.00081626  0.94109642  0.81253393  1  0  0.096945  0  0.983933  0  0  0.099836  0  1.059258  0  0  0.103328  0  1.057213  0  0  0.099702  0.09724  0  1.060987  0
H  H13  1  0.75415070  0.55873198  0.68783917  1  0  0.097666  0  0.981812  0  0  0.099781  0  1.057961  0  0  0.103319  0  1.055867  0  0  0.099659  0.097234  0  1.059564  0
H  H14  1  0.99918620  0.05890295  0.18746223  1  0  0.09701  0  0.98393  0  0  0.099905  0  1.059216  0  0  0.103393  0  1.057171  0  0  0.099736  0.097311  0  1.060947  0
H  H15  1  0.24584960  0.44127057  0.31215872  1  0  0.097687  0  0.981792  0  0  0.099793  0  1.057946  0  0  0.103329  0  1.055853  0  0  0.099667  0.097246  0  1.059546  0
H  H16  1  0.12732864  0.81420744  0.67873170  1  0  0.099022  0  0.945069  0  0  0.111261  0  0.999866  0  0  0.113823  0  0.999485  0  0  0.103298  0.109454  0  1.000197  0
H  H17  1  0.61983402  0.68611422  0.82139246  1  0  0.099352  0  0.944045  0  0  0.11135  0  0.999198  0  0  0.113934  0  0.998783  0  0  0.103315  0.109541  0  0.999494  0
H  H18  1  0.87267710  0.18579092  0.32126735  1  0  0.099005  0  0.94501  0  0  0.111195  0  0.99987  0  0  0.113756  0  0.999492  0  0  0.103274  0.109389  0  1.000201  0
H  H19  1  0.38016482  0.31388729  0.17860609  1  0  0.099361  0  0.944043  0  0  0.111359  0  0.999201  0  0  0.113944  0  0.998785  0  0  0.103312  0.10955  0  0.999497  0
H  H20  1  0.45995336  0.80408305  0.58266616  1  0  0.097885  0  0.98248  0  0  0.100457  0  1.055687  0  0  0.10394  0  1.053293  0  0  0.099746  0.097945  0  1.057498  0
H  H21  1  0.84636439  0.69669550  0.91713230  1  0  0.098306  0  0.982536  0  0  0.1009  0  1.055738  0  0  0.104463  0  1.053276  0  0  0.099783  0.098347  0  1.057537  0
H  H22  1  0.54005101  0.19591534  0.41733424  1  0  0.097875  0  0.982455  0  0  0.100416  0  1.055707  0  0  0.1039  0  1.053315  0  0  0.099722  0.097908  0  1.057516  0
H  H23  1  0.15363052  0.30330916  0.08286696  1  0  0.098397  0  0.982557  0  0  0.100891  0  1.055847  0  0  0.104454  0  1.053386  0  0  0.099787  0.098339  0  1.057647  0
H  H24  1  0.65861750  0.92490207  0.61910600  1  0  0.104559  0  0.931812  0  0  0.116533  0  0.986854  0  0  0.119884  0  0.985125  0  0  0.109271  0.114062  0  0.98828  0
H  H25  1  0.20235523  0.57569472  0.88077890  1  0  0.104452  0  0.932191  0  0  0.115821  0  0.987873  0  0  0.119256  0  0.986016  0  0  0.108969  0.113368  0  0.989312  0
H  H26  1  0.34138823  0.07509629  0.38089304  1  0  0.104617  0  0.931797  0  0  0.116596  0  0.986831  0  0  0.119943  0  0.9851  0  0  0.109304  0.114125  0  0.988255  0
H  H27  1  0.79764022  0.42430997  0.11922121  1  0  0.104493  0  0.932079  0  0  0.115832  0  0.9878  0  0  0.119264  0  0.985946  0  0  0.10898  0.113381  0  0.989236  0
C  C28  1  0.44603452  0.99938247  0.73724418  1  0  -0.085773  0  3.714253  0  0  -0.070434  0  3.952436  0  0  -0.07721  0  3.973197  0  0  -0.01343  -0.06616  0  3.938447  0
C  C29  1  0.18242273  0.50077933  0.76287515  1  0  -0.084942  0  3.716921  0  0  -0.070174  0  3.955676  0  0  -0.076959  0  3.976472  0  0  -0.013693  -0.065823  0  3.941722  0
C  C30  1  0.55396854  0.00061485  0.26275535  1  0  -0.085807  0  3.714227  0  0  -0.070434  0  3.952367  0  0  -0.07721  0  3.973128  0  0  -0.013389  -0.066161  0  3.93838  0
C  C31  1  0.81757674  0.49922325  0.23712495  1  0  -0.085034  0  3.71696  0  0  -0.070219  0  3.955668  0  0  -0.077005  0  3.976459  0  0  -0.013743  -0.065868  0  3.941715  0
C  C32  1  0.25649615  0.00708779  0.79166483  1  0  -0.013745  0  3.741365  0  0  -0.002633  0  3.978516  0  0  -0.003433  0  4.000768  0  0  -0.004882  -0.001958  0  3.963439  0
C  C33  1  0.05505901  0.49281869  0.70861111  1  0  -0.01289  0  3.740389  0  0  -0.002232  0  3.978004  0  0  -0.003092  0  4.000327  0  0  -0.004521  -0.001585  0  3.962812  0
C  C34  1  0.74350168  0.99291163  0.20833453  1  0  -0.01367  0  3.741269  0  0  -0.002579  0  3.978432  0  0  -0.003379  0  4.000684  0  0  -0.004898  -0.001903  0  3.963355  0
C  C35  1  0.94494290  0.50718390  0.29138934  1  0  -0.012907  0  3.740242  0  0  -0.002249  0  3.977894  0  0  -0.003099  0  4.000209  0  0  -0.00449  -0.001601  0  3.962701  0
C  C36  1  0.14422899  0.93934904  0.76890885  1  0  -0.114493  0  3.746026  0  0  -0.136047  0  4.001222  0  0  -0.139287  0  4.022044  0  0  -0.09133  -0.133895  0  3.987484  0
C  C37  1  0.85217327  0.56056667  0.73140557  1  0  -0.115503  0  3.743269  0  0  -0.136369  0  3.999072  0  0  -0.139616  0  4.019824  0  0  -0.091318  -0.133926  0  3.984824  0
C  C38  1  0.85576999  0.06065245  0.23108817  1  0  -0.114666  0  3.746063  0  0  -0.136208  0  4.001274  0  0  -0.139442  0  4.022088  0  0  -0.091368  -0.134057  0  3.98754  0
C  C39  1  0.14782792  0.43943378  0.26859263  1  0  -0.115486  0  3.74327  0  0  -0.136331  0  3.999081  0  0  -0.139579  0  4.019834  0  0  -0.091327  -0.133889  0  3.984833  0
C  C40  1  0.21572857  0.86687431  0.69455580  1  0  -0.041015  0  3.73985  0  0  -0.055656  0  3.98512  0  0  -0.056571  0  4.006  0  0  -0.08257  -0.055043  0  3.97127  0
C  C41  1  0.77676905  0.63334459  0.80559502  1  0  -0.041393  0  3.738849  0  0  -0.055798  0  3.984286  0  0  -0.056729  0  4.005143  0  0  -0.083105  -0.055007  0  3.969824  0
C  C42  1  0.78427559  0.13311884  0.30544503  1  0  -0.040903  0  3.739762  0  0  -0.055507  0  3.985042  0  0  -0.056421  0  4.00592  0  0  -0.082526  -0.054892  0  3.971194  0
C  C43  1  0.22323110  0.36665798  0.19440440  1  0  -0.041498  0  3.738889  0  0  -0.055922  0  3.984322  0  0  -0.056854  0  4.00518  0  0  -0.083164  -0.055131  0  3.96986  0
C  C44  1  0.40135558  0.86137921  0.64035498  1  0  -0.048852  0  3.739172  0  0  -0.062239  0  3.989678  0  0  -0.064185  0  4.00996  0  0  -0.082954  -0.061155  0  3.976238  0
C  C45  1  0.90274778  0.63912937  0.85960436  1  0  -0.050531  0  3.739314  0  0  -0.064227  0  3.989829  0  0  -0.066212  0  4.010053  0  0  -0.082881  -0.062685  0  3.976054  0
C  C46  1  0.59865066  0.13861606  0.35964674  1  0  -0.048804  0  3.738978  0  0  -0.06216  0  3.989481  0  0  -0.064106  0  4.009764  0  0  -0.082894  -0.061079  0  3.97604  0
C  C47  1  0.09724773  0.36087422  0.14039353  1  0  -0.050535  0  3.739407  0  0  -0.064123  0  3.989895  0  0  -0.066107  0  4.010119  0  0  -0.082806  -0.062583  0  3.976123  0
C  C48  1  0.51360147  0.92837632  0.66132582  1  0  -0.066127  0  3.727921  0  0  -0.091428  0  3.977981  0  0  -0.092171  0  3.998505  0  0  -0.079662  -0.090712  0  3.964085  0
C  C49  1  0.10305045  0.57208892  0.83865066  1  0  -0.064885  0  3.7276  0  0  -0.089265  0  3.977286  0  0  -0.090075  0  3.997819  0  0  -0.079106  -0.088841  0  3.963709  0
C  C50  1  0.48639850  0.07162413  0.33867221  1  0  -0.066222  0  3.727751  0  0  -0.091534  0  3.977803  0  0  -0.092271  0  3.998321  0  0  -0.079726  -0.090815  0  3.96391  0
C  C51  1  0.89694965  0.42791474  0.16135099  1  0  -0.064911  0  3.727681  0  0  -0.089284  0  3.977318  0  0  -0.090098  0  3.997859  0  0  -0.07912  -0.088859  0  3.963741  0
C  C52  1  0.58255370  0.06440174  0.75303192  1  0  0.680151  0  3.862076  0  0  0.625338  0  4.152443  0  0  0.660881  0  4.144362  0  0  0.213096  0.601201  0  4.156923  0
C  C53  1  0.39974506  0.43569113  0.74712177  1  0  0.676976  0  3.863516  0  0  0.622419  0  4.153594  0  0  0.657978  0  4.145584  0  0  0.212363  0.598346  0  4.15816  0
C  C54  1  0.41744868  0.93559559  0.24696828  1  0  0.680172  0  3.861957  0  0  0.625361  0  4.152313  0  0  0.660902  0  4.144234  0  0  0.213124  0.601225  0  4.156794  0
C  C55  1  0.60025559  0.56430834  0.25288033  1  0  0.677113  0  3.863388  0  0  0.622553  0  4.153438  0  0  0.658117  0  4.145423  0  0  0.212404  0.598478  0  4.158006  0
C  C56  1  0.15390847  0.08976817  0.86634517  1  0  0.304487  0  3.759298  0  0  0.269894  0  4.031863  0  0  0.282822  0  4.049812  0  0  0.221631  0.261246  0  4.019471  0
C  C57  1  0.11004297  0.41017493  0.63389083  1  0  0.303406  0  3.757484  0  0  0.269557  0  4.029331  0  0  0.282551  0  4.047195  0  0  0.22144  0.260813  0  4.017086  0
C  C58  1  0.84609027  0.91023228  0.13365269  1  0  0.304501  0  3.75922  0  0  0.269899  0  4.031803  0  0  0.282827  0  4.049752  0  0  0.221567  0.26125  0  4.019414  0
C  C59  1  0.88995626  0.58982662  0.36611010  1  0  0.303498  0  3.757429  0  0  0.269552  0  4.029415  0  0  0.28253  0  4.047298  0  0  0.221437  0.260808  0  4.017168  0
N  N60  1  0.96481241  0.17007508  0.86777885  1  0  -0.365332  0  3.211786  0  0  -0.298289  0  3.504384  0  0  -0.319935  0  3.521688  0  0  -0.246727  -0.283478  0  3.492481  0
N  N61  1  0.00275248  0.32989446  0.63242457  1  0  -0.364271  0  3.212069  0  0  -0.297269  0  3.503939  0  0  -0.318969  0  3.521324  0  0  -0.246159  -0.282369  0  3.49195  0
N  N62  1  0.03518687  0.82992538  0.13221986  1  0  -0.365437  0  3.211848  0  0  -0.298408  0  3.504473  0  0  -0.320055  0  3.521775  0  0  -0.246737  -0.283598  0  3.492574  0
N  N63  1  0.99724675  0.67010708  0.36757636  1  0  -0.36429  0  3.212079  0  0  -0.297266  0  3.503991  0  0  -0.318962  0  3.521382  0  0  -0.246163  -0.282366  0  3.492002  0
N  N64  1  0.90579057  0.21892912  0.94939835  1  0  -0.091104  0  3.037783  0  0  -0.067857  0  3.317453  0  0  -0.068605  0  3.329948  0  0  -0.086714  -0.067197  0  3.308983  0
N  N65  1  0.07428567  0.28113068  0.55076987  1  0  -0.089846  0  3.038211  0  0  -0.0666  0  3.317685  0  0  -0.067348  0  3.330188  0  0  -0.085971  -0.065852  0  3.309181  0
N  N66  1  0.09420916  0.78107030  0.05060052  1  0  -0.090994  0  3.037722  0  0  -0.067734  0  3.317371  0  0  -0.068481  0  3.329866  0  0  -0.086645  -0.067075  0  3.308901  0
N  N67  1  0.92571356  0.71887087  0.44923106  1  0  -0.089884  0  3.038163  0  0  -0.066636  0  3.317623  0  0  -0.067383  0  3.330126  0  0  -0.085969  -0.065888  0  3.309119  0
N  N68  1  0.05215870  0.17170441  0.99668457  1  0  -0.049762  0  2.950538  0  0  -0.043091  0  3.237872  0  0  -0.041894  0  3.250677  0  0  -0.080123  -0.04356  0  3.229129  0
N  N69  1  0.22068220  0.32839803  0.50347840  1  0  -0.051847  0  2.949714  0  0  -0.045222  0  3.236923  0  0  -0.043973  0  3.249637  0  0  -0.08129  -0.045715  0  3.228077  0
N  N70  1  0.94784058  0.82829606  0.00331414  1  0  -0.049851  0  2.950566  0  0  -0.043192  0  3.23791  0  0  -0.041996  0  3.250715  0  0  -0.080177  -0.043659  0  3.229161  0
N  N71  1  0.77931747  0.67160247  0.49652269  1  0  -0.051805  0  2.949656  0  0  -0.045173  0  3.236852  0  0  -0.043924  0  3.249565  0  0  -0.081285  -0.045666  0  3.228006  0
N  N72  1  0.20906752  0.09156898  0.94637118  1  0  -0.346944  0  3.145573  0  0  -0.283224  0  3.438156  0  0  -0.302716  0  3.452646  0  0  -0.238138  -0.269943  0  3.428124  0
N  N73  1  0.24704355  0.40847824  0.55382753  1  0  -0.346378  0  3.142011  0  0  -0.282693  0  3.434248  0  0  -0.30221  0  3.448734  0  0  -0.238157  -0.269305  0  3.424163  0
N  N74  1  0.79093221  0.90843044  0.05362769  1  0  -0.346899  0  3.145526  0  0  -0.283168  0  3.438104  0  0  -0.302657  0  3.452592  0  0  -0.238107  -0.269885  0  3.428067  0
N  N75  1  0.75295446  0.59152331  0.44617323  1  0  -0.346417  0  3.142012  0  0  -0.282703  0  3.434281  0  0  -0.302215  0  3.448773  0  0  -0.238165  -0.269316  0  3.424196  0
O  O76  1  0.61537445  0.05404660  0.83562712  1  0  -0.663799  0  2.064478  0  0  -0.593021  0  2.331367  0  0  -0.622946  0  2.318812  0  0  -0.324715  -0.571856  0  2.33926  0
O  O77  1  0.50487063  0.44609318  0.66450309  1  0  -0.663388  0  2.06314  0  0  -0.592752  0  2.329799  0  0  -0.622568  0  2.317029  0  0  -0.325207  -0.571778  0  2.337882  0
O  O78  1  0.38462834  0.94594657  0.16437506  1  0  -0.663804  0  2.064487  0  0  -0.593028  0  2.331377  0  0  -0.622952  0  2.318821  0  0  -0.324736  -0.571866  0  2.339274  0
O  O79  1  0.49513116  0.55390523  0.33549848  1  0  -0.663408  0  2.06311  0  0  -0.592772  0  2.329755  0  0  -0.622586  0  2.316979  0  0  -0.32518  -0.571803  0  2.337854  0
O  O80  1  0.49518401  0.77420841  0.99656987  1  0  -0.818973  0  1.869098  0  0  -0.759643  0  2.062252  0  0  -0.78112  0  2.029063  0  0  -0.582933  -0.744268  0  2.085135  0
O  O81  1  0.26570007  0.72583626  0.50333040  1  0  -0.818574  0  1.868478  0  0  -0.759186  0  2.061463  0  0  -0.780647  0  2.02837  0  0  -0.58254  -0.743806  0  2.084617  0
O  O82  1  0.50481724  0.22578998  0.00343085  1  0  -0.818916  0  1.869181  0  0  -0.759578  0  2.062315  0  0  -0.781054  0  2.029128  0  0  -0.582923  -0.744201  0  2.085199  0
O  O83  1  0.73429413  0.27416530  0.49667136  1  0  -0.818514  0  1.868548  0  0  -0.759114  0  2.061559  0  0  -0.780576  0  2.028464  0  0  -0.582501  -0.743735  0  2.084713  0
O  O84  1  0.67124596  0.13041078  0.67848178  1  0  -0.650954  0  2.02894  0  0  -0.57342  0  2.265939  0  0  -0.603913  0  2.254718  0  0  -0.320383  -0.551941  0  2.27294  0
O  O85  1  0.47982936  0.36958288  0.82166843  1  0  -0.649869  0  2.027289  0  0  -0.57147  0  2.263538  0  0  -0.602018  0  2.252364  0  0  -0.319669  -0.550101  0  2.27056  0
O  O86  1  0.32875470  0.86958868  0.32152032  1  0  -0.650992  0  2.028864  0  0  -0.573471  0  2.265869  0  0  -0.603964  0  2.254648  0  0  -0.32042  -0.55199  0  2.272867  0
O  O87  1  0.52016819  0.63041239  0.17833360  1  0  -0.649991  0  2.027205  0  0  -0.571561  0  2.263424  0  0  -0.602119  0  2.252253  0  0  -0.319713  -0.550191  0  2.270448  0
