# generated using pymatgen
data_AlH7C14N2O5F2
_symmetry_space_group_name_H-M   'P 1'
_cell_length_a   6.76008517
_cell_length_b   16.89014013
_cell_length_c   16.89028352
_cell_angle_alpha   83.41291280
_cell_angle_beta   84.13441632
_cell_angle_gamma   84.13389614
_symmetry_Int_Tables_number   1
_chemical_formula_structural   AlH7C14N2O5F2
_chemical_formula_sum   'Al2 H14 C28 N4 O10 F4'
_cell_volume   1897.74570522
_cell_formula_units_Z   2
loop_
 _symmetry_equiv_pos_site_id
 _symmetry_equiv_pos_as_xyz
  1  'x, y, z'
loop_
 _atom_site_type_symbol
 _atom_site_label
 _atom_site_symmetry_multiplicity
 _atom_site_fract_x
 _atom_site_fract_y
 _atom_site_fract_z
 _atom_site_occupancy
 _atom_site_pbe_bader_charge
 _atom_site_pbe_bader_spin_density
 _atom_site_pbe_cm5_charge
 _atom_site_pbe_ddec_charge
 _atom_site_pbe_ddec_spin_density
 _atom_site_pbe_ddec_sum_bond_order
 _atom_site_pbe_magmom
Al  Al0  1  0.50000833  0.49999680  0.49999843  1  2.505428  0  0.403434  1.654226  0  2.561047  0
Al  Al1  1  0.00001381  0.49999936  0.50000348  1  2.505685  0  0.403361  1.653701  0  2.56159  0
H  H2  1  0.75002380  0.42111698  0.57886536  1  0.613702  0  0.356093  0.436433  0  0.843984  0
H  H3  1  0.24997357  0.57886437  0.42112031  1  0.614324  0  0.356115  0.436469  0  0.843864  0
H  H4  1  0.36456464  0.73245340  0.50691753  1  0.135841  0  0.109845  0.121553  0  1.024971  0
H  H5  1  0.29607808  0.88113876  0.50584224  1  0.113541  0  0.103122  0.104168  0  1.040509  0
H  H6  1  0.92839405  0.90036740  0.49857997  1  0.10713  0  0.115909  0.142218  0  0.998341  0
H  H7  1  0.07160519  0.09963413  0.50140939  1  0.106994  0  0.115925  0.142307  0  0.99833  0
H  H8  1  0.70390258  0.11885620  0.49415857  1  0.113655  0  0.103119  0.104093  0  1.040565  0
H  H9  1  0.63541930  0.26754041  0.49308262  1  0.136086  0  0.109858  0.121622  0  1.024995  0
H  H10  1  0.86455778  0.50688713  0.73246971  1  0.136001  0  0.109887  0.121469  0  1.025229  0
H  H11  1  0.79609497  0.50579037  0.88115053  1  0.114045  0  0.103094  0.10406  0  1.040635  0
H  H12  1  0.42837301  0.49858063  0.90035867  1  0.107231  0  0.115989  0.142311  0  0.998445  0
H  H13  1  0.57161021  0.50144281  0.09964754  1  0.107209  0  0.116027  0.142307  0  0.99846  0
H  H14  1  0.20392903  0.49418776  0.11884598  1  0.113851  0  0.103037  0.104002  0  1.040423  0
H  H15  1  0.13546496  0.49309170  0.26753866  1  0.135777  0  0.109827  0.121464  0  1.025001  0
C  C16  1  0.20926259  0.50089112  0.64344596  1  1.599299  0  0.269703  0.661364  0  4.093857  0
C  C17  1  0.29063877  0.35655918  0.49911567  1  1.598769  0  0.26993  0.661468  0  4.093424  0
C  C18  1  0.79076178  0.49911209  0.35655098  1  1.59883  0  0.269675  0.661377  0  4.094297  0
C  C19  1  0.70935417  0.64344489  0.50088387  1  1.598772  0  0.269939  0.661562  0  4.093269  0
C  C20  1  0.68165575  0.73221240  0.50240529  1  0.03901  0  -0.014327  -0.148503  0  3.934688  0
C  C21  1  0.48596783  0.77039695  0.50480539  1  -0.016118  0  -0.074234  -0.053044  0  3.967209  0
C  C22  1  0.44770843  0.85242935  0.50432240  1  -0.023886  0  -0.087131  -0.157004  0  3.960412  0
C  C23  1  0.60810608  0.89987426  0.50181321  1  0.393519  0  0.091916  0.199664  0  4.050173  0
C  C24  1  0.80421706  0.86370931  0.50029614  1  0.051864  0  -0.089035  -0.272508  0  3.941903  0
C  C25  1  0.83796158  0.78123751  0.50037270  1  0.391211  0  0.112608  0.293393  0  4.030522  0
C  C26  1  0.19576509  0.13629056  0.49970186  1  0.051741  0  -0.089042  -0.27266  0  3.942195  0
C  C27  1  0.39187515  0.10012329  0.49818264  1  0.393608  0  0.091876  0.199544  0  4.05029  0
C  C28  1  0.55228118  0.14756428  0.49566861  1  -0.023962  0  -0.087017  -0.15665  0  3.960017  0
C  C29  1  0.51401902  0.22959603  0.49518640  1  -0.016044  0  -0.074425  -0.05335  0  3.967173  0
C  C30  1  0.31833529  0.26778755  0.49759228  1  0.039051  0  -0.014255  -0.148504  0  3.934277  0
C  C31  1  0.16202824  0.21875686  0.49962951  1  0.39119  0  0.112554  0.293372  0  4.03043  0
C  C32  1  0.18163638  0.50239317  0.73220869  1  0.03915  0  -0.014477  -0.148659  0  3.934729  0
C  C33  1  0.98596844  0.50477567  0.77040477  1  -0.016716  0  -0.074389  -0.053036  0  3.967295  0
C  C34  1  0.94771368  0.50431765  0.85243330  1  -0.024447  0  -0.08694  -0.156829  0  3.959868  0
C  C35  1  0.10812554  0.50183144  0.89987417  1  0.394086  0  0.091794  0.199852  0  4.049881  0
C  C36  1  0.30421371  0.50031317  0.86369779  1  0.051881  0  -0.089071  -0.272734  0  3.94238  0
C  C37  1  0.33793307  0.50037945  0.78123348  1  0.390708  0  0.112662  0.293471  0  4.030501  0
C  C38  1  0.69577681  0.49970509  0.13630493  1  0.052078  0  -0.089065  -0.272552  0  3.941981  0
C  C39  1  0.89186029  0.49817184  0.10012873  1  0.394025  0  0.091831  0.19976  0  4.04983  0
C  C40  1  0.05229010  0.49565892  0.14756843  1  -0.024356  0  -0.086959  -0.156756  0  3.959653  0
C  C41  1  0.01404603  0.49519493  0.22959869  1  -0.016546  0  -0.074397  -0.053214  0  3.966745  0
C  C42  1  0.81836572  0.49760005  0.26779481  1  0.039009  0  -0.014512  -0.148687  0  3.934716  0
C  C43  1  0.66206794  0.49963346  0.21877034  1  0.391055  0  0.11277  0.293581  0  4.030309  0
N  N44  1  0.58897362  0.98409517  0.50063267  1  -0.532629  0  -0.143802  -0.127317  0  3.254852  0
N  N45  1  0.41102465  0.01590991  0.49935765  1  -0.48545  0  -0.143796  -0.127284  0  3.25516  0
N  N46  1  0.08898421  0.50062783  0.98410041  1  -0.532476  0  -0.143719  -0.127249  0  3.254902  0
N  N47  1  0.91101751  0.49937687  0.01589985  1  -0.485511  0  -0.143686  -0.127403  0  3.254871  0
O  O48  1  0.38617664  0.49391052  0.60966927  1  -1.248454  0  -0.233199  -0.593436  0  2.35534  0
O  O49  1  0.11371468  0.39031770  0.50610281  1  -1.248969  0  -0.233299  -0.593378  0  2.355494  0
O  O50  1  0.95112759  0.49459121  0.39115462  1  -1.254823  0  -0.234172  -0.589982  0  2.34641  0
O  O51  1  0.54899769  0.60883509  0.50541855  1  -1.254108  0  -0.234497  -0.59035  0  2.345971  0
O  O52  1  0.61385085  0.50608768  0.39033384  1  -1.24811  0  -0.23322  -0.593598  0  2.355332  0
O  O53  1  0.88627620  0.60968194  0.49388768  1  -1.248814  0  -0.233407  -0.593626  0  2.355261  0
O  O54  1  0.04888997  0.50542030  0.60884259  1  -1.255015  0  -0.234248  -0.590161  0  2.346086  0
O  O55  1  0.45100764  0.39115794  0.49459014  1  -1.254043  0  -0.234476  -0.590354  0  2.345981  0
O  O56  1  0.74999641  0.46417037  0.53579034  1  -1.414603  0  -0.447521  -0.995501  0  2.181106  0
O  O57  1  0.25001152  0.53582254  0.46420697  1  -1.415253  0  -0.447584  -0.995572  0  2.181078  0
F  F58  1  0.03101093  0.74961662  0.49828058  1  -0.631339  0  -0.08296  -0.127713  0  1.393156  0
F  F59  1  0.96898463  0.25039174  0.50170192  1  -0.631412  0  -0.082968  -0.127672  0  1.393051  0
F  F60  1  0.53097756  0.49830927  0.74961414  1  -0.631017  0  -0.083007  -0.127748  0  1.393301  0
F  F61  1  0.46902812  0.50172889  0.25038692  1  -0.631258  0  -0.083065  -0.127776  0  1.393351  0
