# generated using pymatgen
data_FeH12Au2C14I2N8O
_symmetry_space_group_name_H-M   'P 1'
_cell_length_a   9.37593666
_cell_length_b   10.03378792
_cell_length_c   12.72424943
_cell_angle_alpha   92.12974708
_cell_angle_beta   99.62718246
_cell_angle_gamma   114.30705528
_symmetry_Int_Tables_number   1
_chemical_formula_structural   FeH12Au2C14I2N8O
_chemical_formula_sum   'Fe2 H24 Au4 C28 I4 N16 O2'
_cell_volume   1068.05844660
_cell_formula_units_Z   2
loop_
 _symmetry_equiv_pos_site_id
 _symmetry_equiv_pos_as_xyz
  1  'x, y, z'
loop_
 _atom_site_type_symbol
 _atom_site_label
 _atom_site_symmetry_multiplicity
 _atom_site_fract_x
 _atom_site_fract_y
 _atom_site_fract_z
 _atom_site_occupancy
 _atom_site_pbe_bader_spin_density
 _atom_site_pbe_cm5_charge
 _atom_site_pbe_ddec_charge
 _atom_site_pbe_ddec_spin_density
 _atom_site_pbe_ddec_sum_bond_order
 _atom_site_pbe_magmom
Fe  Fe0  1  0.60372221  0.35319478  0.68864760  1  0  0.796295  0.565097  0  3.57599  0
Fe  Fe1  1  0.39627129  0.64679932  0.31134100  1  0  0.796321  0.565047  0  3.576237  0
H  H2  1  0.36102276  0.28981549  0.80500125  1  0  0.296264  0.33423  0  0.996737  0
H  H3  1  0.63897608  0.71018079  0.19499907  1  0  0.296294  0.334287  0  0.99656  0
H  H4  1  0.67930710  0.17859674  0.52572229  1  0  0.120378  0.115799  0  1.014678  0
H  H5  1  0.32069918  0.82140392  0.47428064  1  0  0.120378  0.115797  0  1.014721  0
H  H6  1  0.77373920  0.62326271  0.85991382  1  0  0.124441  0.115907  0  1.011846  0
H  H7  1  0.22625845  0.37673799  0.14008884  1  0  0.124434  0.115883  0  1.011899  0
H  H8  1  0.76104695  0.61888397  0.58347297  1  0  0.117344  0.095527  0  1.059026  0
H  H9  1  0.23894752  0.38111454  0.41652374  1  0  0.117392  0.095606  0  1.059108  0
H  H10  1  0.87946033  0.67345969  0.42013930  1  0  0.110208  0.087833  0  1.034452  0
H  H11  1  0.12053198  0.32653884  0.57985635  1  0  0.110217  0.08784  0  1.034558  0
H  H12  1  0.90771265  0.30854396  0.74140560  1  0  0.12084  0.10265  0  1.020712  0
H  H13  1  0.09228233  0.69145566  0.25859670  1  0  0.120833  0.102646  0  1.020757  0
H  H14  1  0.17907712  0.43891853  0.85779362  1  0  0.122232  0.106942  0  0.987353  0
H  H15  1  0.82092320  0.56108327  0.14220547  1  0  0.122222  0.106927  0  0.987401  0
H  H16  1  0.62172392  0.25473389  0.93368400  1  0  0.089535  0.053534  0  1.035872  0
H  H17  1  0.37827430  0.74526571  0.06631870  1  0  0.089526  0.053514  0  1.035862  0
H  H18  1  0.42679053  0.11490283  0.87932280  1  0  0.082737  0.042291  0  1.005111  0
H  H19  1  0.57320888  0.88509235  0.12067913  1  0  0.082743  0.042269  0  1.005134  0
H  H20  1  0.31068429  0.23660820  0.99522020  1  0  0.069866  0.098761  0  1.060307  0
H  H21  1  0.68931126  0.76339030  0.00477584  1  0  0.069835  0.098724  0  1.060362  0
H  H22  1  0.50548344  0.37871409  0.04719291  1  0  0.086783  0.132369  0  0.997444  0
H  H23  1  0.49451108  0.62128221  0.95280688  1  0  0.086791  0.132325  0  0.997498  0
H  H24  1  0.45834619  0.19479875  0.07568540  1  0  0.070769  0.106494  0  1.059775  0
H  H25  1  0.54164509  0.80519757  0.92431478  1  0  0.070797  0.106509  0  1.059808  0
Au  Au26  1  0.59658685  0.85160202  0.70925400  1  0  0.272665  0.02336  0  3.074085  0
Au  Au27  1  0.40342574  0.14840523  0.29075147  1  0  0.272626  0.023249  0  3.073754  0
Au  Au28  1  0.12379852  0.02626233  0.41513016  1  0  0.249821  -0.02134  0  3.239728  0
Au  Au29  1  0.87620345  0.97373835  0.58486989  1  0  0.249796  -0.021395  0  3.239771  0
C  C30  1  0.95147035  0.88290025  0.30222975  1  0  -0.021994  0.042403  0  4.004954  0
C  C31  1  0.04853264  0.11710263  0.69777127  1  0  -0.021962  0.04243  0  4.005001  0
C  C32  1  0.29978664  0.16698346  0.52723524  1  0  -0.00794  0.046601  0  3.928949  0
C  C33  1  0.70021487  0.83301392  0.47276622  1  0  -0.008008  0.046557  0  3.928903  0
C  C34  1  0.79929997  0.32589738  0.41436700  1  0  0.0795  0.123417  0  4.000575  0
C  C35  1  0.20069722  0.67410002  0.58563157  1  0  0.079468  0.123298  0  4.000606  0
C  C36  1  0.72573728  0.28956374  0.50297372  1  0  0.039696  -0.008876  0  3.8773  0
C  C37  1  0.27426684  0.71043692  0.49702423  1  0  0.039719  -0.008778  0  3.877198  0
C  C38  1  0.86550805  0.58408120  0.85814130  1  0  0.046423  0.006535  0  3.88789  0
C  C39  1  0.13449335  0.41592059  0.14185949  1  0  0.046428  0.006621  0  3.887744  0
C  C40  1  0.61172012  0.05374587  0.71144648  1  0  -0.006582  0.032549  0  3.931387  0
C  C41  1  0.38828139  0.94625150  0.28855891  1  0  -0.006559  0.032673  0  3.931215  0
C  C42  1  0.77077685  0.53325805  0.53490840  1  0  0.046983  0.029237  0  3.866072  0
C  C43  1  0.22922193  0.46674044  0.46508333  1  0  0.046911  0.029157  0  3.866142  0
C  C44  1  0.57687917  0.64772257  0.70022938  1  0  0.002552  0.055179  0  3.860644  0
C  C45  1  0.42312781  0.35229355  0.29977645  1  0  0.002717  0.055342  0  3.860973  0
C  C46  1  0.02113250  0.65893254  0.91758457  1  0  0.078489  0.116987  0  4.014135  0
C  C47  1  0.97886777  0.34107146  0.08241380  1  0  0.078475  0.116889  0  4.014285  0
C  C48  1  0.83802315  0.56301687  0.44446234  1  0  0.053469  0.078781  0  3.931189  0
C  C49  1  0.16196870  0.43697835  0.55553395  1  0  0.053436  0.078709  0  3.931203  0
C  C50  1  0.93895185  0.40880355  0.79334841  1  0  0.05124  0.033168  0  3.901619  0
C  C51  1  0.06104683  0.59119936  0.20665523  1  0  0.051191  0.033158  0  3.901468  0
C  C52  1  0.09043110  0.48297709  0.85772468  1  0  0.057665  0.066152  0  3.942471  0
C  C53  1  0.90956649  0.51702582  0.14227646  1  0  0.057658  0.066131  0  3.942499  0
C  C54  1  0.49462464  0.23090473  0.91430784  1  0  -0.08393  0.125853  0  3.8853  0
C  C55  1  0.50537420  0.76909155  0.08569327  1  0  -0.083844  0.125983  0  3.885047  0
C  C56  1  0.43880008  0.26247917  0.01365618  1  0  -0.260623  -0.404381  0  3.965444  0
C  C57  1  0.56119547  0.73751934  0.98634223  1  0  -0.260615  -0.404322  0  3.965499  0
I  I58  1  0.83025404  0.16248635  0.32453592  1  0  0.141563  0.036384  0  1.820803  0
I  I59  1  0.16974372  0.83750993  0.67546191  1  0  0.141549  0.036397  0  1.820841  0
I  I60  1  0.08477731  0.86575513  0.00329590  1  0  0.127888  0.011723  0  1.706824  0
I  I61  1  0.91522563  0.13424997  0.99670203  1  0  0.127866  0.011718  0  1.706938  0
N  N62  1  0.82604750  0.45926384  0.79381003  1  0  -0.293017  -0.119454  0  3.52889  0
N  N63  1  0.17396612  0.54074561  0.20619878  1  0  -0.292977  -0.11943  0  3.5286  0
N  N64  1  0.84467255  0.79801722  0.23760906  1  0  -0.340695  -0.363723  0  3.081475  0
N  N65  1  0.15533033  0.20199008  0.76239050  1  0  -0.34072  -0.363736  0  3.081567  0
N  N66  1  0.40963904  0.24698982  0.59208850  1  0  -0.389334  -0.283463  0  3.589604  0
N  N67  1  0.59036242  0.75300976  0.40791145  1  0  -0.389219  -0.283383  0  3.589383  0
N  N68  1  0.71285373  0.39561414  0.56456917  1  0  -0.302148  -0.092595  0  3.572388  0
N  N69  1  0.28715199  0.60438762  0.43542508  1  0  -0.302109  -0.092555  0  3.572329  0
N  N70  1  0.85462018  0.46003020  0.38415304  1  0  -0.304466  -0.239073  0  3.354132  0
N  N71  1  0.14537543  0.53996610  0.61584295  1  0  -0.304393  -0.238971  0  3.354283  0
N  N72  1  0.13268125  0.60954416  0.91949715  1  0  -0.299064  -0.227987  0  3.348238  0
N  N73  1  0.86732277  0.39046093  0.08050092  1  0  -0.299046  -0.227936  0  3.348346  0
N  N74  1  0.57949795  0.53197321  0.69035012  1  0  -0.386676  -0.296721  0  3.581906  0
N  N75  1  0.42051049  0.46802744  0.30965308  1  0  -0.386822  -0.296819  0  3.58263  0
N  N76  1  0.61797288  0.17206882  0.70335639  1  0  -0.392167  -0.305605  0  3.62546  0
N  N77  1  0.38203022  0.82792964  0.29664530  1  0  -0.392185  -0.305728  0  3.625481  0
O  O78  1  0.47830870  0.32673321  0.83534579  1  0  -0.367036  -0.422544  0  2.31154  0
O  O79  1  0.52167731  0.67325873  0.16466460  1  0  -0.367137  -0.422631  0  2.311343  0
