# generated using pymatgen
data_Zn2H20C25N8
_symmetry_space_group_name_H-M   'P 1'
_cell_length_a   15.05364856
_cell_length_b   14.61819470
_cell_length_c   23.96035772
_cell_angle_alpha   91.15593394
_cell_angle_beta   88.57711975
_cell_angle_gamma   102.31898818
_symmetry_Int_Tables_number   1
_chemical_formula_structural   Zn2H20C25N8
_chemical_formula_sum   'Zn8 H80 C100 N32'
_cell_volume   5149.05954992
_cell_formula_units_Z   4
loop_
 _symmetry_equiv_pos_site_id
 _symmetry_equiv_pos_as_xyz
  1  'x, y, z'
loop_
 _atom_site_type_symbol
 _atom_site_label
 _atom_site_symmetry_multiplicity
 _atom_site_fract_x
 _atom_site_fract_y
 _atom_site_fract_z
 _atom_site_occupancy
 _atom_site_pbe_bader_charge
 _atom_site_pbe_bader_spin_density
 _atom_site_pbe_cm5_charge
 _atom_site_pbe_ddec_charge
 _atom_site_pbe_ddec_spin_density
 _atom_site_pbe_ddec_sum_bond_order
 _atom_site_pbe_magmom
Zn  Zn0  1  0.41060015  0.59039744  0.40325039  1  1.179311  0  0.750299  0.61498  0  2.453217  0
Zn  Zn1  1  0.56521289  0.46017600  0.43409141  1  1.189183  0  0.745494  0.595597  0  2.541723  0
Zn  Zn2  1  0.94170130  0.07859539  0.95216414  1  1.182483  0  0.742988  0.60328  0  2.479058  0
Zn  Zn3  1  0.07685711  0.93374833  0.94317439  1  1.187337  0  0.738061  0.624151  0  2.376213  0
Zn  Zn4  1  0.58191285  0.48512173  0.57261855  1  1.194429  0  0.727668  0.601028  0  2.470659  0
Zn  Zn5  1  0.38038546  0.56564630  0.52270299  1  1.179651  0  0.753677  0.616937  0  2.476306  0
Zn  Zn6  1  0.09463801  0.94370458  0.07931077  1  1.187807  0  0.742818  0.613678  0  2.439622  0
Zn  Zn7  1  0.94758376  0.07929936  0.08788113  1  1.182457  0  0.743124  0.597976  0  2.489518  0
H  H8  1  0.23182552  0.44568844  0.42739201  1  0.115412  0  0.122657  0.118943  0  1.003449  0
H  H9  1  0.66925831  0.48102386  0.31127776  1  0.061043  0  0.121942  0.112345  0  0.988103  0
H  H10  1  0.74976419  0.93788008  0.93202135  1  0.08487  0  0.114238  0.100503  0  1.007689  0
H  H11  1  0.18239573  0.00474990  0.82237981  1  0.068635  0  0.116075  0.103304  0  0.998101  0
H  H12  1  0.91664345  0.71817591  0.50925759  1  0.051854  0  0.098798  0.09686  0  0.997949  0
H  H13  1  0.03332347  0.65941875  0.49534334  1  0.03781  0  0.097001  0.094465  0  1.008822  0
H  H14  1  0.45338309  0.06365631  0.00006500  1  0.033431  0  0.092623  0.088104  0  1.007301  0
H  H15  1  0.57200717  0.12970361  0.06195782  1  0.062526  0  0.093255  0.089349  0  1.010683  0
H  H16  1  0.62779126  0.75541851  0.27130910  1  0.017155  0  0.092675  0.0904  0  1.024254  0
H  H17  1  0.37116022  0.29586435  0.31615462  1  0.057151  0  0.094449  0.095256  0  1.045296  0
H  H18  1  0.14137437  0.31378073  0.80572843  1  0.032218  0  0.093403  0.091572  0  1.02317  0
H  H19  1  0.76030030  0.61374205  0.90166227  1  0.040608  0  0.092941  0.095337  0  1.013905  0
H  H20  1  0.67287445  0.51564397  0.17710221  1  0.052621  0  0.098939  0.102059  0  0.999782  0
H  H21  1  0.12081546  0.22472992  0.41069036  1  0.046134  0  0.101418  0.106979  0  0.994132  0
H  H22  1  0.21674148  0.07703637  0.72291851  1  0.02854  0  0.096286  0.097426  0  1.004527  0
H  H23  1  0.69755424  0.86974328  0.84491342  1  0.013739  0  0.092821  0.09231  0  1.015576  0
H  H24  1  0.30830019  0.18384528  0.65426197  1  0.056461  0  0.096402  0.096293  0  1.005116  0
H  H25  1  0.61546833  0.78399929  0.76658763  1  0.051973  0  0.094442  0.093428  0  1.016882  0
H  H26  1  0.77317285  0.62198552  0.11148570  1  0.066839  0  0.101406  0.103312  0  0.995826  0
H  H27  1  0.04823093  0.13505117  0.32869991  1  0.012146  0  0.098432  0.099806  0  1.001852  0
H  H28  1  0.53387731  0.92705753  0.58498224  1  0.068862  0  0.099935  0.101487  0  0.998942  0
H  H29  1  0.56129107  0.09861286  0.59109402  1  0.063167  0  0.097407  0.096828  0  1.003927  0
H  H30  1  0.18342276  0.42749631  0.10119549  1  0.043846  0  0.096009  0.095815  0  1.006413  0
H  H31  1  0.19717372  0.59725895  0.09826412  1  0.043165  0  0.094275  0.092151  0  1.012073  0
H  H32  1  0.68953988  0.11702006  0.42787888  1  0.039336  0  0.094603  0.092385  0  1.009645  0
H  H33  1  0.66189735  0.94525000  0.42161218  1  0.048086  0  0.09591  0.094685  0  1.010649  0
H  H34  1  0.17454071  0.58045496  0.91925131  1  0.05526  0  0.097191  0.095284  0  1.011106  0
H  H35  1  0.15861066  0.41064336  0.92234123  1  0.028612  0  0.095747  0.092474  0  1.023904  0
H  H36  1  0.46449047  0.32470515  0.63962280  1  0.086696  0  0.115391  0.099838  0  1.008069  0
H  H37  1  0.50088972  0.69229044  0.71341648  1  0.046178  0  0.101914  0.086824  0  1.011963  0
H  H38  1  0.95247151  0.75056605  0.11636747  1  0.076164  0  0.116349  0.105204  0  1.001952  0
H  H39  1  0.99517353  0.17229009  0.21656059  1  0.082683  0  0.11645  0.105457  0  0.997607  0
H  H40  1  0.62054125  0.25430951  0.41666341  1  0.075131  0  0.113457  0.099959  0  1.005074  0
H  H41  1  0.55250745  0.80258838  0.39951620  1  0.069321  0  0.113975  0.098357  0  1.006808  0
H  H42  1  0.13456195  0.72623143  0.91998929  1  0.044067  0  0.116131  0.102808  0  1.002908  0
H  H43  1  0.10742305  0.25047749  0.92612650  1  0.115244  0  0.112405  0.097199  0  1.035069  0
H  H44  1  0.17905318  0.62885588  0.54317943  1  0.113183  0  0.12195  0.111903  0  0.986388  0
H  H45  1  0.75936212  0.65218022  0.57243792  1  0.132929  0  0.122827  0.115185  0  0.988114  0
H  H46  1  0.74312652  0.13230851  0.11589444  1  0.098809  0  0.115486  0.104121  0  0.997032  0
H  H47  1  0.28301783  0.09670688  0.09227235  1  0.063551  0  0.10962  0.097831  0  1.02674  0
H  H48  1  0.62391521  0.27661085  0.59687629  1  0.096681  0  0.118422  0.107047  0  0.996063  0
H  H49  1  0.52400513  0.75156198  0.57763763  1  0.122207  0  0.120487  0.112629  0  1.012822  0
H  H50  1  0.17727353  0.75063018  0.09808244  1  0.059196  0  0.113066  0.098671  0  1.009289  0
H  H51  1  0.10059201  0.27088196  0.10695255  1  0.106443  0  0.112794  0.097119  0  1.015804  0
H  H52  1  0.21674952  0.67041780  0.36496634  1  0.106744  0  0.118716  0.10815  0  0.994193  0
H  H53  1  0.72348766  0.62585877  0.39329050  1  0.052266  0  0.112733  0.098335  0  1.020035  0
H  H54  1  0.75293320  0.16051523  0.93639532  1  0.089429  0  0.119578  0.10857  0  0.992023  0
H  H55  1  0.27435411  0.06562145  0.91245433  1  0.115967  0  0.112995  0.102287  0  1.016411  0
H  H56  1  0.24166746  0.46291827  0.61671124  1  0.063814  0  0.118682  0.106943  0  0.997538  0
H  H57  1  0.69272788  0.51002666  0.70098397  1  0.060456  0  0.105295  0.093197  0  1.021886  0
H  H58  1  0.76212499  0.93023280  0.09366816  1  0.08258  0  0.118192  0.105859  0  1.002538  0
H  H59  1  0.20648817  0.01480320  0.19544834  1  0.081675  0  0.116854  0.104149  0  0.999658  0
H  H60  1  0.43213763  0.27310050  0.41983112  1  0.101413  0  0.123034  0.110442  0  0.992107  0
H  H61  1  0.46123563  0.63440139  0.27832831  1  0.068044  0  0.119834  0.109279  0  0.99138  0
H  H62  1  0.92663715  0.74003728  0.91963226  1  0.087916  0  0.113942  0.10232  0  1.00621  0
H  H63  1  0.00221109  0.19850672  0.83608408  1  0.070329  0  0.11635  0.103986  0  0.997842  0
H  H64  1  0.88675706  0.69803068  0.38257663  1  0.040451  0  0.093519  0.092543  0  1.002089  0
H  H65  1  0.05337476  0.72773795  0.37439439  1  0.035805  0  0.093419  0.090716  0  0.996677  0
H  H66  1  0.45009898  0.27074514  0.98561499  1  0.055498  0  0.101275  0.105438  0  0.986972  0
H  H67  1  0.61800326  0.26488626  0.96384895  1  0.057528  0  0.095449  0.093106  0  1.008338  0
H  H68  1  0.25177292  0.45055467  0.83496117  1  0.003262  0  0.07992  0.102621  0  1.033696  0
H  H69  1  0.35656464  0.47682831  0.79687674  1  0.049245  0  0.089916  0.121939  0  0.994625  0
H  H70  1  0.28910072  0.56241964  0.80441665  1  -0.001622  0  0.084062  0.108737  0  1.002666  0
H  H71  1  0.27472309  0.49080990  0.70926482  1  0.03879  0  0.088406  0.082881  0  1.026396  0
H  H72  1  0.16888898  0.46651001  0.74521071  1  0.008163  0  0.086766  0.077944  0  0.978085  0
H  H73  1  0.63821685  0.46919776  0.91532795  1  0.031974  0  0.081328  0.104398  0  1.016525  0
H  H74  1  0.53963491  0.46284766  0.87511189  1  0.025602  0  0.086769  0.115792  0  0.999684  0
H  H75  1  0.59901354  0.36999163  0.87132605  1  -0.019539  0  0.080327  0.103692  0  1.011311  0
H  H76  1  0.63354676  0.46767489  0.78683352  1  0.037946  0  0.087212  0.082069  0  1.02067  0
H  H77  1  0.73291384  0.47482134  0.82564464  1  0.000598  0  0.084457  0.074024  0  0.982989  0
H  H78  1  0.77524370  0.86823101  0.30297450  1  0.029466  0  0.082273  0.10695  0  1.013716  0
H  H79  1  0.86854990  0.89116981  0.25471889  1  0.003671  0  0.087438  0.119658  0  0.997163  0
H  H80  1  0.81737058  0.98403299  0.27862136  1  -0.012107  0  0.082212  0.10672  0  1.006755  0
H  H81  1  0.76749253  0.93480903  0.18260939  1  0.033105  0  0.085334  0.075586  0  1.048771  0
H  H82  1  0.67355732  0.91074717  0.22937952  1  0.035947  0  0.087122  0.080241  0  0.979379  0
H  H83  1  0.38360311  0.36051135  0.22148826  1  0.009031  0  0.085831  0.115164  0  1.000886  0
H  H84  1  0.45278722  0.28436156  0.24322165  1  0.009662  0  0.082121  0.105973  0  1.013875  0
H  H85  1  0.43128300  0.29260505  0.17138110  1  0.020785  0  0.089321  0.119331  0  0.996889  0
H  H86  1  0.33671743  0.14499450  0.21126734  1  0.002755  0  0.08983  0.081134  0  0.979104  0
H  H87  1  0.27069055  0.21672921  0.18289701  1  0.038201  0  0.091609  0.086598  0  0.991501  0
C  C88  1  0.29106430  0.41497640  0.43045736  1  0.355205  0  0.005794  -0.05633  0  3.930591  0
C  C89  1  0.60977175  0.51198095  0.31121162  1  0.412263  0  0.01016  -0.056532  0  3.986011  0
C  C90  1  0.80489816  0.90057725  0.93242809  1  0.42848  0  0.004913  -0.052521  0  3.972462  0
C  C91  1  0.12984601  0.04328077  0.83278780  1  0.405601  0  0.003679  -0.059235  0  4.001366  0
C  C92  1  0.33039250  0.36890045  0.64730089  1  0.02021  0  -0.032974  -0.025452  0  4.081446  0
C  C93  1  0.60763788  0.61098234  0.73301402  1  -0.001271  0  -0.05159  -0.055562  0  4.109172  0
C  C94  1  0.82650258  0.81129936  0.11856649  1  -0.053776  0  -0.035423  -0.03452  0  4.066359  0
C  C95  1  0.12080529  0.11455061  0.22724214  1  -0.080879  0  -0.038004  -0.036759  0  4.103669  0
C  C96  1  0.62561135  0.22219982  0.50801739  1  0.006868  0  -0.037961  -0.039508  0  4.090049  0
C  C97  1  0.55783147  0.82099947  0.49330464  1  0.039552  0  -0.032802  -0.038501  0  4.047406  0
C  C98  1  0.16759127  0.69792139  0.00864111  1  0.028634  0  -0.041098  -0.045268  0  4.106282  0
C  C99  1  0.12833965  0.30340257  0.01531312  1  0.01197  0  -0.037218  -0.044647  0  4.068881  0
C  C100  1  0.16000897  0.66277404  0.45356368  1  0.044317  0  -0.038576  0.013123  0  4.143257  0
C  C101  1  0.78192413  0.66448650  0.47882486  1  -0.004088  0  -0.041091  0.003122  0  4.126156  0
C  C102  1  0.70873204  0.15642943  0.02706534  1  -0.014984  0  -0.043345  0.007183  0  4.139263  0
C  C103  1  0.32075195  0.09860395  0.00066943  1  -0.01803  0  -0.041584  0.01051  0  4.094564  0
C  C104  1  0.92474762  0.70736927  0.42138842  1  -0.135522  0  -0.113696  -0.117483  0  4.073236  0
C  C105  1  0.02127190  0.70983930  0.41533616  1  -0.035826  0  -0.106773  -0.098265  0  4.074747  0
C  C106  1  0.47732452  0.20826455  0.99241630  1  -0.018746  0  -0.099806  -0.101953  0  4.062478  0
C  C107  1  0.57579626  0.21740670  0.99351362  1  -0.03476  0  -0.104762  -0.10275  0  4.049864  0
C  C108  1  0.87790846  0.70296402  0.47087867  1  0.041178  0  -0.09577  -0.116079  0  4.031147  0
C  C109  1  0.06929480  0.68010292  0.45585526  1  -0.002385  0  -0.104353  -0.134757  0  4.060562  0
C  C110  1  0.42072522  0.12376988  0.99791026  1  0.019684  0  -0.092855  -0.11229  0  4.010057  0
C  C111  1  0.61543894  0.16803439  0.02903557  1  -0.090408  0  -0.100434  -0.130997  0  4.060405  0
C  C112  1  0.22979577  0.34706439  0.73409794  1  0.005714  0  -0.009074  0.079035  0  3.920117  0
C  C113  1  0.67933609  0.60059238  0.82798590  1  -0.0113  0  -0.013827  0.070267  0  3.914427  0
C  C114  1  0.71698003  0.78765072  0.20001736  1  -0.025894  0  -0.009049  0.079555  0  3.915261  0
C  C115  1  0.26095651  0.20989879  0.27176023  1  -0.055864  0  -0.012143  0.072587  0  3.926827  0
C  C116  1  0.65874994  0.72624679  0.23527512  1  -0.072436  0  -0.10082  -0.199998  0  3.987758  0
C  C117  1  0.30067048  0.25766532  0.31880542  1  -0.037277  0  -0.100454  -0.195153  0  3.97099  0
C  C118  1  0.17717086  0.28489225  0.77171657  1  -0.023338  0  -0.100011  -0.196759  0  3.966682  0
C  C119  1  0.72838351  0.65164435  0.87183366  1  -0.00795  0  -0.103312  -0.20251  0  3.97089  0
C  C120  1  0.64259231  0.62854794  0.22898442  1  0.028961  0  -0.017396  0.07971  0  4.072983  0
C  C121  1  0.25239565  0.26516278  0.36906582  1  -0.002663  0  -0.013747  0.08653  0  4.054459  0
C  C122  1  0.17065109  0.18770011  0.76896560  1  0.004009  0  -0.015597  0.086097  0  4.080292  0
C  C123  1  0.73958296  0.74916390  0.87799549  1  -0.022702  0  -0.019499  0.078745  0  4.071036  0
C  C124  1  0.68510507  0.59130958  0.18386509  1  -0.052239  0  -0.101094  -0.147372  0  4.027808  0
C  C125  1  0.16036225  0.22099750  0.37227336  1  -0.047118  0  -0.099604  -0.145835  0  4.026417  0
C  C126  1  0.22062628  0.15230163  0.72654548  1  -0.064522  0  -0.102964  -0.14647  0  4.029573  0
C  C127  1  0.69170705  0.79421895  0.84131178  1  -0.023494  0  -0.106632  -0.146439  0  4.043093  0
C  C128  1  0.27225646  0.21254030  0.68814799  1  -0.049359  0  -0.098974  -0.13305  0  4.038427  0
C  C129  1  0.64523826  0.74562566  0.79706196  1  -0.041792  0  -0.102666  -0.135097  0  4.041783  0
C  C130  1  0.74172964  0.65144292  0.14712620  1  -0.092222  0  -0.094527  -0.128041  0  4.014972  0
C  C131  1  0.11959016  0.17105641  0.32597162  1  -0.04392  0  -0.097593  -0.133609  0  4.028489  0
C  C132  1  0.41825184  0.36750784  0.62654098  1  0.413786  0  0.009923  -0.04626  0  3.967095  0
C  C133  1  0.54344421  0.64366159  0.70079511  1  0.421306  0  -0.014664  -0.069479  0  4.076145  0
C  C134  1  0.91739110  0.80590912  0.10693151  1  0.44691  0  0.008155  -0.051638  0  3.965167  0
C  C135  1  0.03923495  0.12540670  0.20364836  1  0.441491  0  0.002533  -0.067657  0  4.006758  0
C  C136  1  0.27713091  0.30982757  0.69038655  1  -0.018122  0  -0.012302  0.02515  0  4.001004  0
C  C137  1  0.64228625  0.64957753  0.78710859  1  -0.055261  0  -0.012984  0.034138  0  4.00178  0
C  C138  1  0.75963881  0.74949044  0.15436107  1  0.059889  0  -0.006499  0.034319  0  3.984044  0
C  C139  1  0.16779301  0.16465104  0.27552955  1  0.083277  0  -0.013226  0.024737  0  4.006153  0
C  C140  1  0.56928942  0.96826628  0.55050770  1  -0.035517  0  -0.094356  -0.128754  0  3.992035  0
C  C141  1  0.58492697  0.06557965  0.55396858  1  -0.08461  0  -0.097001  -0.134376  0  4.007189  0
C  C142  1  0.18139021  0.46048056  0.06094581  1  -0.035856  0  -0.100474  -0.137619  0  4.016859  0
C  C143  1  0.18927115  0.55685004  0.05924300  1  -0.087552  0  -0.100479  -0.138869  0  4.019213  0
C  C144  1  0.62424351  0.12169337  0.50898946  1  -0.033101  0  -0.01552  0.076386  0  4.056764  0
C  C145  1  0.59196194  0.92191831  0.50182442  1  0.046808  0  -0.011553  0.081672  0  4.038603  0
C  C146  1  0.18112814  0.60202878  0.00890404  1  -0.02308  0  -0.016707  0.079727  0  4.061591  0
C  C147  1  0.16425934  0.40435498  0.01235838  1  0.051989  0  -0.014095  0.08165  0  4.051602  0
C  C148  1  0.65444972  0.07557215  0.46239091  1  -0.068637  0  -0.100799  -0.137886  0  4.018755  0
C  C149  1  0.63882159  0.97833637  0.45889598  1  -0.020373  0  -0.099535  -0.138327  0  4.013605  0
C  C150  1  0.17633815  0.54752518  0.95953910  1  -0.058834  0  -0.098054  -0.135402  0  4.008501  0
C  C151  1  0.16797252  0.45115046  0.96127594  1  -0.011494  0  -0.097565  -0.134186  0  4.008137  0
C  C152  1  0.62108653  0.27550364  0.46039100  1  0.39609  0  0.00024  -0.06618  0  4.01433  0
C  C153  1  0.53843025  0.77516955  0.44133721  1  0.406535  0  0.008059  -0.041053  0  3.980977  0
C  C154  1  0.14217835  0.74668673  0.96371708  1  0.438929  0  0.003724  -0.057548  0  4.001805  0
C  C155  1  0.09731049  0.24134703  0.97081869  1  0.372678  0  0.009385  -0.03807  0  3.945439  0
C  C156  1  0.20282282  0.63496793  0.49996483  1  0.379641  0  0.010827  -0.056317  0  3.98732  0
C  C157  1  0.73615133  0.63709477  0.52999554  1  0.383939  0  0.015684  -0.04552  0  3.92917  0
C  C158  1  0.76046222  0.13636531  0.07158458  1  0.393185  0  0.004183  -0.066264  0  4.001109  0
C  C159  1  0.26517736  0.08185671  0.04887169  1  0.371396  0  -0.003846  -0.073164  0  3.982656  0
C  C160  1  0.62111593  0.28625755  0.55217658  1  0.398149  0  0.006118  -0.056495  0  3.982142  0
C  C161  1  0.52219520  0.75095561  0.53233598  1  0.399069  0  0.017477  -0.029647  0  3.921476  0
C  C162  1  0.16374105  0.75892146  0.05437652  1  0.39219  0  -5.3e-05  -0.063872  0  4.014107  0
C  C163  1  0.09429879  0.25150740  0.06302000  1  0.367364  0  0.006546  -0.045526  0  3.963379  0
C  C164  1  0.22178452  0.65703651  0.40904532  1  0.357311  0  0.008304  -0.054257  0  3.960642  0
C  C165  1  0.71815379  0.62409896  0.43855564  1  0.41876  0  0.005216  -0.053522  0  3.958988  0
C  C166  1  0.76608908  0.15240219  0.98019045  1  0.403794  0  0.00821  -0.05623  0  3.981137  0
C  C167  1  0.26074861  0.06564693  0.95715839  1  0.359273  0  0.001637  -0.062399  0  3.965152  0
C  C168  1  0.30538816  0.43944093  0.61636718  1  0.43249  0  0.005053  -0.065248  0  4.004889  0
C  C169  1  0.64030780  0.54975611  0.69566527  1  0.365691  0  -0.017614  -0.087673  0  4.047189  0
C  C170  1  0.82041246  0.89794990  0.09644036  1  0.433668  0  0.007827  -0.047648  0  3.973469  0
C  C171  1  0.14775707  0.04642056  0.19247195  1  0.435233  0  0.004951  -0.06489  0  4.019151  0
C  C172  1  0.39395621  0.32782359  0.42636946  1  0.416428  0  0.021761  -0.025726  0  3.938172  0
C  C173  1  0.50430362  0.59090396  0.29486107  1  0.35646  0  0.005101  -0.062368  0  4.002493  0
C  C174  1  0.89476431  0.79937816  0.92682376  1  0.406404  0  0.003678  -0.052162  0  3.959617  0
C  C175  1  0.03890814  0.14268966  0.84040569  1  0.413942  0  0.002067  -0.064759  0  4.015884  0
C  C176  1  0.30406940  0.32792544  0.41137236  1  0.042392  0  -0.026942  -0.021261  0  4.041844  0
C  C177  1  0.58643394  0.57399846  0.27290360  1  0.087224  0  -0.033002  -0.028957  0  4.076397  0
C  C178  1  0.80631490  0.80870374  0.91420811  1  -0.04375  0  -0.036103  -0.035661  0  4.063575  0
C  C179  1  0.11565734  0.12698988  0.81034700  1  0.00747  0  -0.037914  -0.039825  0  4.096946  0
C  C180  1  0.23754105  0.45118029  0.74402224  1  -0.004031  0  -0.164364  -0.143889  0  3.982653  0
C  C181  1  0.28632940  0.48711261  0.79825263  1  -0.039593  0  -0.2418  -0.343071  0  3.955274  0
C  C182  1  0.66627481  0.49482015  0.82595387  1  -0.004205  0  -0.164293  -0.139522  0  3.980842  0
C  C183  1  0.60765286  0.44657764  0.87480621  1  -0.033734  0  -0.244144  -0.345153  0  3.968639  0
C  C184  1  0.73772450  0.89020414  0.21731226  1  -0.012262  0  -0.165357  -0.145137  0  3.987196  0
C  C185  1  0.80337636  0.90953115  0.26631918  1  -0.014108  0  -0.243388  -0.344785  0  3.962547  0
C  C186  1  0.31593103  0.21245143  0.21772595  1  -0.001756  0  -0.16011  -0.13596  0  3.98241  0
C  C187  1  0.40045891  0.29178922  0.21344706  1  -0.027334  0  -0.244794  -0.351701  0  3.974866  0
N  N188  1  0.37004064  0.46558392  0.45255371  1  -0.837115  0  -0.295992  -0.212307  0  3.596736  0
N  N189  1  0.54769401  0.49528652  0.35345787  1  -0.793734  0  -0.271919  -0.177943  0  3.531647  0
N  N190  1  0.88646556  0.94241497  0.95262005  1  -0.782772  0  -0.287382  -0.181696  0  3.650574  0
N  N191  1  0.06754647  0.01268425  0.87337974  1  -0.816972  0  -0.27055  -0.181509  0  3.514077  0
N  N192  1  0.44406001  0.43278905  0.58705695  1  -0.771412  0  -0.26627  -0.171816  0  3.545287  0
N  N193  1  0.53777872  0.60646707  0.64918720  1  -0.710511  0  -0.278052  -0.243717  0  3.296284  0
N  N194  1  0.96162275  0.88490162  0.08182324  1  -0.775354  0  -0.281086  -0.177993  0  3.627289  0
N  N195  1  0.01972072  0.06872893  0.15841340  1  -0.80299  0  -0.271456  -0.174623  0  3.525084  0
N  N196  1  0.61402827  0.36316105  0.47513023  1  -0.815651  0  -0.27979  -0.179057  0  3.579735  0
N  N197  1  0.49369368  0.68633665  0.44907397  1  -0.798782  0  -0.292015  -0.2026  0  3.645111  0
N  N198  1  0.12485310  0.82917098  0.98138415  1  -0.787149  0  -0.26866  -0.175278  0  3.547577  0
N  N199  1  0.04689845  0.16085766  0.99081774  1  -0.737307  0  -0.283175  -0.18412  0  3.630942  0
N  N200  1  0.28262695  0.61465444  0.48456063  1  -0.806034  0  -0.282173  -0.178229  0  3.59932  0
N  N201  1  0.65360774  0.58271476  0.52043717  1  -0.770303  0  -0.270619  -0.165528  0  3.570266  0
N  N202  1  0.84166318  0.12271292  0.05277045  1  -0.807596  0  -0.271637  -0.174893  0  3.554624  0
N  N203  1  0.17915611  0.04123243  0.03474309  1  -0.764763  0  -0.285089  -0.1836  0  3.630561  0
N  N204  1  0.61418642  0.37008992  0.53233754  1  -0.765703  0  -0.265777  -0.169746  0  3.533472  0
N  N205  1  0.48367287  0.67122170  0.50515158  1  -0.818577  0  -0.283615  -0.181334  0  3.612559  0
N  N206  1  0.13835368  0.83681810  0.03788476  1  -0.784009  0  -0.271364  -0.174583  0  3.555979  0
N  N207  1  0.04527671  0.16717886  0.04740746  1  -0.828854  0  -0.287295  -0.18101  0  3.660186  0
N  N208  1  0.29446539  0.62772872  0.42804073  1  -0.804134  0  -0.279441  -0.189338  0  3.590312  0
N  N209  1  0.64270267  0.57532295  0.46405000  1  -0.803599  0  -0.28844  -0.180025  0  3.649317  0
N  N210  1  0.84482038  0.13185650  0.99565541  1  -0.782622  0  -0.269878  -0.171369  0  3.534119  0
N  N211  1  0.17650081  0.03158756  0.97834923  1  -0.776971  0  -0.278876  -0.179972  0  3.618185  0
N  N212  1  0.37404434  0.47711133  0.58117073  1  -0.806076  0  -0.291052  -0.166173  0  3.703699  0
N  N213  1  0.59847115  0.54862720  0.64615709  1  -0.840443  0  -0.299734  -0.199762  0  3.682228  0
N  N214  1  0.90211656  0.94176329  0.07557109  1  -0.797364  0  -0.288245  -0.19022  0  3.632755  0
N  N215  1  0.08735267  0.01916182  0.15179402  1  -0.783537  0  -0.270904  -0.175596  0  3.551876  0
N  N216  1  0.43263340  0.40977192  0.45042206  1  -0.80064  0  -0.285053  -0.177701  0  3.570578  0
N  N217  1  0.48132921  0.54402230  0.34289085  1  -0.80686  0  -0.287034  -0.180682  0  3.593112  0
N  N218  1  0.94223297  0.88042580  0.94919283  1  -0.789772  0  -0.282212  -0.186456  0  3.602287  0
N  N219  1  0.01051186  0.07459856  0.87787337  1  -0.775717  0  -0.276044  -0.17743  0  3.540927  0
