# generated using pymatgen
data_BaH12C12S4(NO5)2
_symmetry_space_group_name_H-M   'P 1'
_cell_length_a   7.51257842
_cell_length_b   11.40740675
_cell_length_c   12.46850294
_cell_angle_alpha   117.23546023
_cell_angle_beta   99.63174172
_cell_angle_gamma   90.00753225
_symmetry_Int_Tables_number   1
_chemical_formula_structural   BaH12C12S4(NO5)2
_chemical_formula_sum   'Ba2 H24 C24 S8 N4 O20'
_cell_volume   933.08798089
_cell_formula_units_Z   2
loop_
 _symmetry_equiv_pos_site_id
 _symmetry_equiv_pos_as_xyz
  1  'x, y, z'
loop_
 _atom_site_type_symbol
 _atom_site_label
 _atom_site_symmetry_multiplicity
 _atom_site_fract_x
 _atom_site_fract_y
 _atom_site_fract_z
 _atom_site_occupancy
 _atom_site_hle17_bader_spin_density
 _atom_site_hle17_ddec_charge
 _atom_site_hle17_ddec_spin_density
 _atom_site_hle17_ddec_sum_bond_order
 _atom_site_hle17_magmom
 _atom_site_hse06_10hf_bader_spin_density
 _atom_site_hse06_10hf_ddec_charge
 _atom_site_hse06_10hf_ddec_spin_density
 _atom_site_hse06_10hf_ddec_sum_bond_order
 _atom_site_hse06_10hf_magmom
 _atom_site_hse06_bader_spin_density
 _atom_site_hse06_ddec_charge
 _atom_site_hse06_ddec_spin_density
 _atom_site_hse06_ddec_sum_bond_order
 _atom_site_hse06_magmom
 _atom_site_pbe_bader_spin_density
 _atom_site_pbe_cm5_charge
 _atom_site_pbe_ddec_charge
 _atom_site_pbe_ddec_spin_density
 _atom_site_pbe_ddec_sum_bond_order
 _atom_site_pbe_magmom
Ba  Ba0  1  0.75013974  0.21346155  0.99998645  1  0  1.730543  0  1.067401  0  0  1.598274  0  1.467352  0  0  1.630892  0  1.425139  0  0  0.981244  1.57373  0  1.497884  0
Ba  Ba1  1  0.24986064  0.78653913  0.00001465  1  0  1.730537  0  1.067421  0  0  1.598236  0  1.467431  0  0  1.630875  0  1.425179  0  0  0.981263  1.57371  0  1.497971  0
H  H2  1  0.03341233  0.32658395  0.87274450  1  0  0.429404  0  0.857989  0  0  0.402111  0  0.915464  0  0  0.411164  0  0.902083  0  0  0.304073  0.395659  0  0.925014  0
H  H3  1  0.46691349  0.45391276  0.12727748  1  0  0.430345  0  0.856711  0  0  0.402208  0  0.915425  0  0  0.411288  0  0.902017  0  0  0.304185  0.395731  0  0.925  0
H  H4  1  0.96659210  0.67341538  0.12725455  1  0  0.429301  0  0.858048  0  0  0.401952  0  0.915666  0  0  0.411002  0  0.902294  0  0  0.303995  0.395504  0  0.925206  0
H  H5  1  0.53308469  0.54609056  0.87272178  1  0  0.430374  0  0.856673  0  0  0.402234  0  0.915385  0  0  0.411312  0  0.90198  0  0  0.304208  0.395758  0  0.924959  0
H  H6  1  0.87817207  0.41972608  0.88597436  1  0  0.431075  0  0.854098  0  0  0.40433  0  0.909928  0  0  0.413576  0  0.896256  0  0  0.306442  0.397683  0  0.919781  0
H  H7  1  0.62215809  0.53390110  0.11411915  1  0  0.430714  0  0.854494  0  0  0.403853  0  0.910621  0  0  0.413096  0  0.896929  0  0  0.306543  0.397194  0  0.920501  0
H  H8  1  0.12183553  0.58027722  0.11402987  1  0  0.431011  0  0.854179  0  0  0.404254  0  0.910027  0  0  0.413501  0  0.896352  0  0  0.306422  0.397608  0  0.919878  0
H  H9  1  0.37784398  0.46610123  0.88588732  1  0  0.43069  0  0.854534  0  0  0.403826  0  0.910658  0  0  0.413079  0  0.896953  0  0  0.306524  0.397162  0  0.92054  0
H  H10  1  0.98378434  0.75857484  0.59055910  1  0  0.100486  0  0.966549  0  0  0.108883  0  1.031017  0  0  0.110878  0  1.031653  0  0  0.105888  0.107416  0  1.030731  0
H  H11  1  0.51590028  0.16795458  0.40930964  1  0  0.101241  0  0.96604  0  0  0.109646  0  1.030421  0  0  0.11165  0  1.031039  0  0  0.106075  0.10816  0  1.030159  0
H  H12  1  0.01621445  0.24142253  0.40943774  1  0  0.100525  0  0.966507  0  0  0.108913  0  1.030989  0  0  0.110908  0  1.031624  0  0  0.105879  0.107444  0  1.030709  0
H  H13  1  0.48410303  0.83204675  0.59069252  1  0  0.101239  0  0.966057  0  0  0.109656  0  1.030427  0  0  0.111659  0  1.031046  0  0  0.106067  0.108168  0  1.030166  0
H  H14  1  0.01838573  0.68981155  0.37330614  1  0  0.108785  0  0.949658  0  0  0.115474  0  1.014247  0  0  0.119157  0  1.011923  0  0  0.106902  0.11276  0  1.016072  0
H  H15  1  0.48128519  0.31638803  0.62647349  1  0  0.109113  0  0.949056  0  0  0.115362  0  1.014049  0  0  0.119085  0  1.011655  0  0  0.106752  0.112646  0  1.015873  0
H  H16  1  0.98161416  0.31018384  0.62668999  1  0  0.108728  0  0.94977  0  0  0.115477  0  1.014289  0  0  0.119155  0  1.011967  0  0  0.106891  0.112764  0  1.01611  0
H  H17  1  0.51871851  0.68361627  0.37352915  1  0  0.109103  0  0.949094  0  0  0.115366  0  1.014071  0  0  0.119086  0  1.011676  0  0  0.106747  0.112647  0  1.015894  0
H  H18  1  0.19427356  0.83704587  0.32528577  1  0  0.117895  0  0.953086  0  0  0.125685  0  1.015483  0  0  0.130027  0  1.012115  0  0  0.115462  0.122531  0  1.017977  0
H  H19  1  0.30565990  0.51174419  0.67473781  1  0  0.118661  0  0.952403  0  0  0.125766  0  1.015547  0  0  0.130082  0  1.012272  0  0  0.115385  0.122614  0  1.018018  0
H  H20  1  0.80573308  0.16294950  0.67471104  1  0  0.117909  0  0.953076  0  0  0.125675  0  1.015488  0  0  0.130018  0  1.012122  0  0  0.115472  0.122522  0  1.017976  0
H  H21  1  0.69434074  0.48825714  0.32526087  1  0  0.11862  0  0.952439  0  0  0.125766  0  1.015527  0  0  0.130087  0  1.012247  0  0  0.115375  0.122579  0  1.018043  0
H  H22  1  0.33909415  0.05584058  0.49048450  1  0  0.1025  0  0.952992  0  0  0.113816  0  1.014085  0  0  0.116257  0  1.013639  0  0  0.108643  0.112032  0  1.014552  0
H  H23  1  0.16109122  0.56553983  0.50961940  1  0  0.102559  0  0.952853  0  0  0.113479  0  1.014389  0  0  0.115821  0  1.014064  0  0  0.108567  0.111748  0  1.014807  0
H  H24  1  0.66091284  0.94415777  0.50951761  1  0  0.102511  0  0.95301  0  0  0.113827  0  1.014104  0  0  0.116266  0  1.013658  0  0  0.10864  0.112044  0  1.014566  0
H  H25  1  0.83891357  0.43446248  0.49038253  1  0  0.102559  0  0.952846  0  0  0.113481  0  1.014386  0  0  0.115818  0  1.014062  0  0  0.108578  0.11175  0  1.0148  0
C  C26  1  0.24667513  0.02631987  0.63276112  1  0  -0.131052  0  3.771227  0  0  -0.113682  0  4.016759  0  0  -0.118864  0  4.03919  0  0  -0.013816  -0.110247  0  4.00177  0
C  C27  1  0.25330158  0.39367279  0.36726642  1  0  -0.131673  0  3.773728  0  0  -0.114326  0  4.019036  0  0  -0.119428  0  4.041303  0  0  -0.0142  -0.111021  0  4.00425  0
C  C28  1  0.75332377  0.97367849  0.36723855  1  0  -0.131053  0  3.771287  0  0  -0.113787  0  4.016955  0  0  -0.118975  0  4.039397  0  0  -0.013833  -0.110352  0  4.00197  0
C  C29  1  0.74669758  0.60632755  0.63273170  1  0  -0.131548  0  3.773583  0  0  -0.11425  0  4.018954  0  0  -0.119349  0  4.041216  0  0  -0.014194  -0.110934  0  4.004159  0
C  C30  1  0.14739478  0.94300382  0.65939932  1  0  -0.127718  0  3.778552  0  0  -0.110622  0  4.021988  0  0  -0.115261  0  4.043415  0  0  -0.012116  -0.107619  0  4.007766  0
C  C31  1  0.35255436  0.28369957  0.34052278  1  0  -0.126767  0  3.778177  0  0  -0.109268  0  4.020939  0  0  -0.113917  0  4.042354  0  0  -0.012181  -0.106233  0  4.006734  0
C  C32  1  0.85260117  0.05699258  0.34059923  1  0  -0.1277  0  3.778528  0  0  -0.110568  0  4.021979  0  0  -0.115205  0  4.043404  0  0  -0.01214  -0.107564  0  4.007752  0
C  C33  1  0.64744627  0.71630177  0.65947750  1  0  -0.126805  0  3.778104  0  0  -0.109298  0  4.020901  0  0  -0.113948  0  4.042317  0  0  -0.012182  -0.106276  0  4.006712  0
C  C34  1  0.06238502  0.82182162  0.56809205  1  0  -0.056896  0  3.724741  0  0  -0.078609  0  3.973778  0  0  -0.079008  0  3.993658  0  0  -0.078289  -0.078315  0  3.960469  0
C  C35  1  0.43741044  0.25370964  0.43176808  1  0  -0.05702  0  3.724775  0  0  -0.079064  0  3.973757  0  0  -0.079478  0  3.993676  0  0  -0.07777  -0.078762  0  3.960429  0
C  C36  1  0.93761646  0.17817575  0.43190667  1  0  -0.056992  0  3.724659  0  0  -0.078702  0  3.973709  0  0  -0.079101  0  3.993582  0  0  -0.078296  -0.078408  0  3.960395  0
C  C37  1  0.56259301  0.74629267  0.56823290  1  0  -0.056979  0  3.724703  0  0  -0.079041  0  3.973697  0  0  -0.079456  0  3.993618  0  0  -0.077739  -0.078731  0  3.960365  0
C  C38  1  0.08220130  0.78434743  0.44742958  1  0  -0.04463  0  3.694233  0  0  -0.063799  0  3.956089  0  0  -0.064534  0  3.974521  0  0  -0.076764  -0.063269  0  3.943722  0
C  C39  1  0.41748578  0.33684961  0.55242906  1  0  -0.046027  0  3.694637  0  0  -0.064475  0  3.955895  0  0  -0.06523  0  3.97432  0  0  -0.076952  -0.063948  0  3.943565  0
C  C40  1  0.91780044  0.21565191  0.55256759  1  0  -0.044539  0  3.694287  0  0  -0.063754  0  3.956112  0  0  -0.064481  0  3.974544  0  0  -0.076723  -0.063225  0  3.943739  0
C  C41  1  0.58252026  0.66315170  0.44757097  1  0  -0.046025  0  3.694648  0  0  -0.064492  0  3.955915  0  0  -0.065242  0  3.974339  0  0  -0.076975  -0.063952  0  3.943562  0
C  C42  1  0.18089661  0.86798080  0.41991772  1  0  -0.040307  0  3.667791  0  0  -0.059159  0  3.924684  0  0  -0.059887  0  3.942276  0  0  -0.073234  -0.058699  0  3.91293  0
C  C43  1  0.31888676  0.44807025  0.58007024  1  0  -0.041055  0  3.66771  0  0  -0.059299  0  3.924169  0  0  -0.060052  0  3.941771  0  0  -0.073513  -0.058832  0  3.912434  0
C  C44  1  0.81910341  0.13201558  0.58007804  1  0  -0.040284  0  3.667806  0  0  -0.059104  0  3.924676  0  0  -0.059832  0  3.942265  0  0  -0.073229  -0.058639  0  3.912914  0
C  C45  1  0.68111535  0.55193206  0.41992981  1  0  -0.040997  0  3.667714  0  0  -0.059264  0  3.924155  0  0  -0.060008  0  3.941726  0  0  -0.073485  -0.058776  0  3.91244  0
C  C46  1  0.26321540  0.99094490  0.51240151  1  0  -0.048657  0  3.710594  0  0  -0.070611  0  3.959849  0  0  -0.070715  0  3.979478  0  0  -0.074504  -0.070466  0  3.946678  0
C  C47  1  0.23666904  0.47857978  0.48763955  1  0  -0.04855  0  3.711568  0  0  -0.070289  0  3.960873  0  0  -0.070331  0  3.980487  0  0  -0.074248  -0.070215  0  3.947779  0
C  C48  1  0.73678363  0.00905446  0.48759778  1  0  -0.048671  0  3.710655  0  0  -0.0706  0  3.959924  0  0  -0.070701  0  3.979551  0  0  -0.074493  -0.07046  0  3.946753  0
C  C49  1  0.76333134  0.52141957  0.51235988  1  0  -0.048635  0  3.71159  0  0  -0.070376  0  3.960931  0  0  -0.070413  0  3.980542  0  0  -0.074279  -0.070296  0  3.947816  0
S  S50  1  0.34174532  0.17187859  0.77133465  1  0  1.216725  0  5.51186  0  0  1.130293  0  6.020904  0  0  1.174671  0  6.004396  0  0  0.561099  1.09971  0  6.031329  0
S  S51  1  0.15827661  0.40071857  0.22874782  1  0  1.216258  0  5.511248  0  0  1.13002  0  6.020098  0  0  1.174384  0  6.003524  0  0  0.560656  1.099528  0  6.030424  0
S  S52  1  0.65825492  0.82811978  0.22866677  1  0  1.216888  0  5.51178  0  0  1.130456  0  6.020849  0  0  1.174817  0  6.004344  0  0  0.561113  1.099876  0  6.031275  0
S  S53  1  0.84172131  0.59928277  0.77125379  1  0  1.216212  0  5.511297  0  0  1.129994  0  6.020145  0  0  1.174357  0  6.003573  0  0  0.560644  1.099484  0  6.030493  0
S  S54  1  0.13940241  0.01745288  0.81856342  1  0  1.291011  0  5.456596  0  0  1.205898  0  5.959991  0  0  1.251257  0  5.941221  0  0  0.587118  1.174479  0  5.972194  0
S  S55  1  0.36054276  0.19901915  0.18135620  1  0  1.289919  0  5.45595  0  0  1.204825  0  5.959429  0  0  1.250176  0  5.940674  0  0  0.587194  1.173417  0  5.971651  0
S  S56  1  0.86059328  0.98254154  0.18143588  1  0  1.291068  0  5.456692  0  0  1.205962  0  5.960065  0  0  1.251319  0  5.941292  0  0  0.587174  1.174544  0  5.972266  0
S  S57  1  0.63945504  0.80098121  0.81864419  1  0  1.289941  0  5.455873  0  0  1.204845  0  5.959351  0  0  1.250198  0  5.940598  0  0  0.587186  1.173445  0  5.971562  0
N  N58  1  0.31256175  0.12364852  0.86926254  1  0  -0.76187  0  2.856402  0  0  -0.720034  0  3.173992  0  0  -0.741528  0  3.167866  0  0  -0.4069  -0.704973  0  3.177613  0
N  N59  1  0.18740393  0.25455746  0.13073280  1  0  -0.762731  0  2.856282  0  0  -0.720837  0  3.173875  0  0  -0.742324  0  3.167714  0  0  -0.407155  -0.705883  0  3.177572  0
N  N60  1  0.68743125  0.87634591  0.13073648  1  0  -0.761982  0  2.85657  0  0  -0.720125  0  3.17416  0  0  -0.741618  0  3.168031  0  0  -0.406897  -0.705068  0  3.17779  0
N  N61  1  0.81259535  0.74544387  0.86926735  1  0  -0.762727  0  2.856314  0  0  -0.72083  0  3.173905  0  0  -0.742319  0  3.167745  0  0  -0.407133  -0.705881  0  3.177616  0
O  O62  1  0.92927757  0.35686374  0.91335590  1  0  -0.870921  0  1.797217  0  0  -0.819614  0  1.958987  0  0  -0.837228  0  1.930239  0  0  -0.624889  -0.80688  0  1.979412  0
O  O63  1  0.57105500  0.44361289  0.08668783  1  0  -0.871289  0  1.795413  0  0  -0.819155  0  1.957997  0  0  -0.836781  0  1.929285  0  0  -0.625125  -0.806422  0  1.978422  0
O  O64  1  0.07072807  0.64313461  0.08664526  1  0  -0.870749  0  1.797295  0  0  -0.819369  0  1.959199  0  0  -0.836998  0  1.930447  0  0  -0.624799  -0.806629  0  1.97961  0
O  O65  1  0.42894184  0.55639043  0.91331049  1  0  -0.871304  0  1.795451  0  0  -0.81914  0  1.958079  0  0  -0.836772  0  1.929347  0  0  -0.625126  -0.806396  0  1.978533  0
O  O66  1  0.53577987  0.19369614  0.77821428  1  0  -0.639659  0  1.956362  0  0  -0.590742  0  2.208736  0  0  -0.611891  0  2.196341  0  0  -0.335366  -0.575661  0  2.216804  0
O  O67  1  0.96424292  0.41567295  0.22189181  1  0  -0.639038  0  1.956019  0  0  -0.590335  0  2.208583  0  0  -0.611487  0  2.196196  0  0  -0.335107  -0.575218  0  2.216545  0
O  O68  1  0.46421889  0.80630124  0.22178738  1  0  -0.639691  0  1.956347  0  0  -0.590772  0  2.208735  0  0  -0.611926  0  2.196347  0  0  -0.335353  -0.57569  0  2.216803  0
O  O69  1  0.03575366  0.58432839  0.77810807  1  0  -0.638999  0  1.956053  0  0  -0.590292  0  2.208609  0  0  -0.611443  0  2.196221  0  0  -0.335068  -0.575176  0  2.216597  0
O  O70  1  0.23959171  0.28432418  0.77920792  1  0  -0.629453  0  1.962944  0  0  -0.568481  0  2.193084  0  0  -0.589977  0  2.180581  0  0  -0.302852  -0.553372  0  2.201417  0
O  O71  1  0.26048579  0.50531080  0.22090690  1  0  -0.628823  0  1.961609  0  0  -0.567973  0  2.19179  0  0  -0.589448  0  2.179319  0  0  -0.302477  -0.552817  0  2.199967  0
O  O72  1  0.76040841  0.71567319  0.22079227  1  0  -0.629533  0  1.962948  0  0  -0.568506  0  2.193041  0  0  -0.58996  0  2.180514  0  0  -0.302848  -0.553395  0  2.201378  0
O  O73  1  0.73950945  0.49469054  0.77909123  1  0  -0.628843  0  1.96162  0  0  -0.568014  0  2.191832  0  0  -0.589492  0  2.179364  0  0  -0.302504  -0.552846  0  2.200009  0
O  O74  1  0.16686234  0.92309624  0.86579502  1  0  -0.640042  0  2.015169  0  0  -0.592033  0  2.277257  0  0  -0.612565  0  2.263902  0  0  -0.336442  -0.577506  0  2.286103  0
O  O75  1  0.33288785  0.05742036  0.13408079  1  0  -0.638983  0  2.014801  0  0  -0.591083  0  2.276818  0  0  -0.611676  0  2.263599  0  0  -0.336509  -0.576546  0  2.285563  0
O  O76  1  0.83312724  0.07690315  0.13420331  1  0  -0.640118  0  2.015008  0  0  -0.592098  0  2.277068  0  0  -0.612627  0  2.263713  0  0  -0.336498  -0.577566  0  2.285911  0
O  O77  1  0.66711205  0.94258592  0.86592149  1  0  -0.639022  0  2.01453  0  0  -0.591135  0  2.276559  0  0  -0.611728  0  2.263338  0  0  -0.336543  -0.576594  0  2.285297  0
O  O78  1  0.96790973  0.07766616  0.83083376  1  0  -0.672107  0  2.006182  0  0  -0.618196  0  2.265779  0  0  -0.640906  0  2.254295  0  0  -0.350892  -0.602062  0  2.273239  0
O  O79  1  0.53208214  0.24690721  0.16908475  1  0  -0.671957  0  2.005696  0  0  -0.618231  0  2.265599  0  0  -0.640965  0  2.254197  0  0  -0.350939  -0.602089  0  2.272948  0
O  O80  1  0.03208257  0.92233321  0.16916325  1  0  -0.672075  0  2.006298  0  0  -0.618207  0  2.265946  0  0  -0.640918  0  2.254455  0  0  -0.350913  -0.602076  0  2.273413  0
O  O81  1  0.46791764  0.75309808  0.83091550  1  0  -0.67195  0  2.005857  0  0  -0.6182  0  2.265746  0  0  -0.640927  0  2.254324  0  0  -0.350915  -0.602059  0  2.273096  0
