# generated using pymatgen
data_InH7C12O5
_symmetry_space_group_name_H-M   'P 1'
_cell_length_a   7.30483509
_cell_length_b   22.20385800
_cell_length_c   22.20389542
_cell_angle_alpha   90.00004265
_cell_angle_beta   89.99991455
_cell_angle_gamma   90.00040926
_symmetry_Int_Tables_number   1
_chemical_formula_structural   InH7C12O5
_chemical_formula_sum   'In8 H56 C96 O40'
_cell_volume   3601.37238420
_cell_formula_units_Z   8
loop_
 _symmetry_equiv_pos_site_id
 _symmetry_equiv_pos_as_xyz
  1  'x, y, z'
loop_
 _atom_site_type_symbol
 _atom_site_label
 _atom_site_symmetry_multiplicity
 _atom_site_fract_x
 _atom_site_fract_y
 _atom_site_fract_z
 _atom_site_occupancy
 _atom_site_pbe_bader_charge
 _atom_site_pbe_bader_spin_density
 _atom_site_pbe_cm5_charge
 _atom_site_pbe_ddec_charge
 _atom_site_pbe_ddec_spin_density
 _atom_site_pbe_ddec_sum_bond_order
 _atom_site_pbe_magmom
In  In0  1  0.00000896  0.75002786  0.24997669  1  1.979852  0  0.785875  1.579574  0  2.845176  0
In  In1  1  0.00003251  0.25006898  0.74999732  1  1.980034  0  0.785764  1.579355  0  2.845499  0
In  In2  1  0.00000352  0.25002151  0.24994137  1  1.980207  0  0.785799  1.579614  0  2.845083  0
In  In3  1  0.99999618  0.75001796  0.75000041  1  1.979531  0  0.785846  1.579463  0  2.845417  0
In  In4  1  0.49998602  0.74997845  0.24995179  1  1.969731  0  0.781065  1.574374  0  2.78471  0
In  In5  1  0.50002189  0.24992050  0.75001431  1  1.969159  0  0.78107  1.574387  0  2.784657  0
In  In6  1  0.49999564  0.24998381  0.25002817  1  1.969633  0  0.781025  1.574275  0  2.784982  0
In  In7  1  0.49999584  0.74998450  0.75000189  1  1.969544  0  0.781082  1.574451  0  2.784922  0
H  H8  1  0.51241913  0.73243955  0.05623938  1  0.075363  0  0.108006  0.114067  0  0.996494  0
H  H9  1  0.94105255  0.82489338  0.11161292  1  0.059008  0  0.101627  0.105674  0  1.059363  0
H  H10  1  0.69224951  0.87421603  0.05651727  1  0.031361  0  0.103156  0.100258  0  0.987922  0
H  H11  1  0.25067004  0.81442703  0.68558174  1  0.620874  0  0.3354  0.428022  0  0.851565  0
H  H12  1  0.51242439  0.26755581  0.94376140  1  0.075409  0  0.108015  0.114133  0  0.996381  0
H  H13  1  0.94104099  0.17510749  0.88839305  1  0.059254  0  0.101651  0.105803  0  1.059359  0
H  H14  1  0.69224484  0.12578426  0.94349243  1  0.031417  0  0.103155  0.10031  0  0.987942  0
H  H15  1  0.51242654  0.44376411  0.23244484  1  0.075449  0  0.108035  0.114111  0  0.996456  0
H  H16  1  0.94106101  0.38838643  0.32489696  1  0.05859  0  0.101642  0.10575  0  1.059343  0
H  H17  1  0.69226875  0.44348739  0.37421496  1  0.031497  0  0.103207  0.100343  0  0.988043  0
H  H18  1  0.25067910  0.81441834  0.31441669  1  0.621135  0  0.33535  0.427983  0  0.851653  0
H  H19  1  0.51241150  0.55624251  0.76756269  1  0.075344  0  0.108021  0.114098  0  0.996574  0
H  H20  1  0.94105990  0.61161083  0.67510631  1  0.059078  0  0.101628  0.105743  0  1.059345  0
H  H21  1  0.69226256  0.55651649  0.62578528  1  0.031473  0  0.103207  0.100298  0  0.987987  0
H  H22  1  0.25064952  0.18557551  0.68557476  1  0.620743  0  0.33547  0.428119  0  0.851409  0
H  H23  1  0.48757593  0.76755838  0.55623905  1  0.075335  0  0.107998  0.114084  0  0.996553  0
H  H24  1  0.05894226  0.67510415  0.61161184  1  0.058672  0  0.101602  0.105692  0  1.059363  0
H  H25  1  0.30775103  0.62578326  0.55651512  1  0.031341  0  0.103154  0.100273  0  0.987926  0
H  H26  1  0.48757721  0.23244503  0.44376129  1  0.075409  0  0.108029  0.114144  0  0.996461  0
H  H27  1  0.05895128  0.32489420  0.38838871  1  0.059097  0  0.101643  0.105721  0  1.059361  0
H  H28  1  0.30775402  0.37421703  0.44348846  1  0.031353  0  0.10318  0.100337  0  0.987929  0
H  H29  1  0.48759381  0.05623882  0.73244390  1  0.075524  0  0.108039  0.11415  0  0.996478  0
H  H30  1  0.05892607  0.11161341  0.82489582  1  0.058628  0  0.101633  0.105756  0  1.059263  0
H  H31  1  0.30773727  0.05651564  0.87421637  1  0.031372  0  0.103177  0.100253  0  0.988065  0
H  H32  1  0.74932848  0.68558024  0.81442743  1  0.620858  0  0.335421  0.428021  0  0.851563  0
H  H33  1  0.48757028  0.94376279  0.26756094  1  0.075344  0  0.108  0.114083  0  0.99654  0
H  H34  1  0.05894830  0.88838629  0.17510563  1  0.05864  0  0.101638  0.105754  0  1.059332  0
H  H35  1  0.30774039  0.94348374  0.12578136  1  0.031355  0  0.103164  0.100257  0  0.98796  0
H  H36  1  0.74931629  0.31442919  0.18556782  1  0.620591  0  0.335439  0.428171  0  0.851367  0
H  H37  1  0.48759261  0.76755969  0.44375969  1  0.07542  0  0.108039  0.114192  0  0.996505  0
H  H38  1  0.05894140  0.67510271  0.38838884  1  0.058935  0  0.101642  0.105773  0  1.059409  0
H  H39  1  0.30774307  0.62578412  0.44348630  1  0.031361  0  0.103191  0.100289  0  0.988078  0
H  H40  1  0.48759612  0.23244462  0.55623885  1  0.075553  0  0.108029  0.114185  0  0.996515  0
H  H41  1  0.05894530  0.32489293  0.61161081  1  0.059055  0  0.101627  0.105635  0  1.059462  0
H  H42  1  0.30774966  0.37421797  0.55651818  1  0.031287  0  0.103147  0.100229  0  0.987986  0
H  H43  1  0.48758938  0.05624540  0.26755566  1  0.075836  0  0.108017  0.114103  0  0.996489  0
H  H44  1  0.05895218  0.11160822  0.17510534  1  0.059164  0  0.101644  0.105732  0  1.059339  0
H  H45  1  0.30775540  0.05651401  0.12578013  1  0.031295  0  0.103132  0.100269  0  0.987889  0
H  H46  1  0.74934085  0.68557100  0.18556976  1  0.620555  0  0.335363  0.428094  0  0.851456  0
H  H47  1  0.48758155  0.94376296  0.73244423  1  0.075426  0  0.108043  0.114142  0  0.996488  0
H  H48  1  0.05894273  0.88838788  0.82489656  1  0.058636  0  0.101629  0.105699  0  1.059294  0
H  H49  1  0.30774144  0.94348582  0.87421895  1  0.031318  0  0.103174  0.100297  0  0.987958  0
H  H50  1  0.74931623  0.31441997  0.81442234  1  0.620924  0  0.335332  0.427855  0  0.851822  0
H  H51  1  0.51241438  0.73244168  0.94376112  1  0.07541  0  0.108034  0.114129  0  0.996502  0
H  H52  1  0.94105626  0.82489232  0.88839014  1  0.05906  0  0.101617  0.105652  0  1.059559  0
H  H53  1  0.69225571  0.87421320  0.94348776  1  0.031464  0  0.103201  0.100333  0  0.988034  0
H  H54  1  0.51241544  0.26755548  0.05624101  1  0.075413  0  0.108039  0.114121  0  0.996478  0
H  H55  1  0.94105643  0.17510405  0.11161403  1  0.058618  0  0.101647  0.105729  0  1.059369  0
H  H56  1  0.69225506  0.12578348  0.05652104  1  0.03125  0  0.103194  0.100255  0  0.988117  0
H  H57  1  0.51241301  0.44375981  0.76756671  1  0.076015  0  0.107996  0.11412  0  0.996403  0
H  H58  1  0.94103284  0.38838882  0.67510308  1  0.058701  0  0.10161  0.105647  0  1.059509  0
H  H59  1  0.69225723  0.44349019  0.62578343  1  0.031429  0  0.103181  0.10031  0  0.988001  0
H  H60  1  0.51240723  0.55623916  0.23244713  1  0.075497  0  0.10804  0.114129  0  0.996573  0
H  H61  1  0.94105796  0.61161205  0.32489794  1  0.058644  0  0.101657  0.105765  0  1.059262  0
H  H62  1  0.69225629  0.55651460  0.37421681  1  0.031379  0  0.103196  0.100311  0  0.987946  0
H  H63  1  0.25064899  0.18558032  0.31441195  1  0.619995  0  0.335413  0.428063  0  0.851492  0
C  C64  1  0.24943045  0.76162069  0.13078943  1  1.566208  0  0.243732  0.62662  0  4.145532  0
C  C65  1  0.24481869  0.77054883  0.06376652  1  0.004366  0  -0.008515  -0.075849  0  3.911063  0
C  C66  1  0.39510530  0.75004175  0.03158833  1  -0.112154  0  -0.082805  -0.093493  0  4.003732  0
C  C67  1  0.09179711  0.79675985  0.03256618  1  -0.125612  0  0.000874  0.062268  0  3.923681  0
C  C68  1  0.94302669  0.82492219  0.06283860  1  0.024576  0  -0.094161  -0.136471  0  3.981672  0
C  C69  1  0.80287468  0.85240868  0.03172068  1  0.061915  0  -0.089703  -0.0739  0  4.037271  0
C  C70  1  0.24940393  0.23837766  0.86920562  1  1.565705  0  0.243692  0.626669  0  4.14555  0
C  C71  1  0.24480809  0.22945040  0.93623349  1  0.004584  0  -0.008378  -0.075803  0  3.911001  0
C  C72  1  0.39510459  0.24995423  0.96841115  1  0.059859  0  -0.082836  -0.093635  0  4.003602  0
C  C73  1  0.09179538  0.20323902  0.96743705  1  -0.125279  0  0.000781  0.062408  0  3.924032  0
C  C74  1  0.94301765  0.17507779  0.93716782  1  0.023997  0  -0.094182  -0.136659  0  3.982289  0
C  C75  1  0.80287312  0.14759097  0.96828581  1  -0.108656  0  -0.089737  -0.073982  0  4.037441  0
C  C76  1  0.24944779  0.36921506  0.26162444  1  1.565618  0  0.24364  0.626575  0  4.145437  0
C  C77  1  0.24483101  0.43623764  0.27055623  1  0.004201  0  -0.008439  -0.075815  0  3.911539  0
C  C78  1  0.39511269  0.46841285  0.25004629  1  -0.112308  0  -0.082801  -0.093481  0  4.003779  0
C  C79  1  0.09180936  0.46743475  0.29676339  1  -0.125417  0  0.000875  0.062367  0  3.923926  0
C  C80  1  0.94304105  0.43715949  0.32492535  1  0.02491  0  -0.094276  -0.136666  0  3.981467  0
C  C81  1  0.80288210  0.46828050  0.35241066  1  -0.109314  0  -0.089733  -0.073983  0  4.037395  0
C  C82  1  0.24943997  0.63079590  0.73838097  1  1.565261  0  0.24365  0.626563  0  4.145109  0
C  C83  1  0.24482451  0.56376880  0.72945639  1  0.00483  0  -0.008441  -0.075773  0  3.911046  0
C  C84  1  0.39510814  0.53158494  0.74996130  1  -0.112094  0  -0.082965  -0.093716  0  4.003516  0
C  C85  1  0.09180504  0.53256638  0.70324209  1  -0.125796  0  0.000886  0.06237  0  3.923732  0
C  C86  1  0.94303204  0.56283823  0.67508287  1  0.024588  0  -0.094297  -0.136739  0  3.981752  0
C  C87  1  0.80287665  0.53172049  0.64759177  1  0.061998  0  -0.089713  -0.07387  0  4.0371  0
C  C88  1  0.75054921  0.73837865  0.63079571  1  1.565216  0  0.243666  0.626615  0  4.145282  0
C  C89  1  0.75517360  0.72945091  0.56376963  1  0.004807  0  -0.008502  -0.075947  0  3.911142  0
C  C90  1  0.60488850  0.74995571  0.53158883  1  -0.112228  0  -0.08279  -0.093488  0  4.003734  0
C  C91  1  0.90819395  0.70323806  0.53256605  1  -0.125658  0  0.00085  0.062417  0  3.923481  0
C  C92  1  0.05696560  0.67507350  0.56283706  1  0.02481  0  -0.094232  -0.136623  0  3.981641  0
C  C93  1  0.19712870  0.64759149  0.53171905  1  -0.109148  0  -0.089731  -0.073948  0  4.037254  0
C  C94  1  0.75058158  0.26162312  0.36920135  1  1.565371  0  0.243618  0.626492  0  4.145736  0
C  C95  1  0.75518396  0.27054998  0.43622833  1  0.004575  0  -0.008399  -0.075831  0  3.911019  0
C  C96  1  0.60489416  0.25004572  0.46841100  1  0.059879  0  -0.082874  -0.09363  0  4.003582  0
C  C97  1  0.90819926  0.29676228  0.46743183  1  0.035104  0  0.000813  0.062337  0  3.923697  0
C  C98  1  0.05697440  0.32492394  0.43716259  1  0.024624  0  -0.094192  -0.136466  0  3.981824  0
C  C99  1  0.19713385  0.35240988  0.46828098  1  -0.108991  0  -0.08975  -0.074098  0  4.037276  0
C  C100  1  0.75061897  0.13079420  0.76161577  1  1.565239  0  0.243809  0.626839  0  4.145195  0
C  C101  1  0.75519054  0.06376802  0.77054436  1  0.004118  0  -0.008445  -0.075743  0  3.910929  0
C  C102  1  0.60490621  0.03158739  0.75004303  1  -0.112296  0  -0.082863  -0.093679  0  4.003724  0
C  C103  1  0.90820933  0.03256507  0.79675953  1  -0.125226  0  0.000715  0.062126  0  3.923816  0
C  C104  1  0.05696656  0.06283990  0.82492193  1  0.024811  0  -0.094174  -0.136475  0  3.981645  0
C  C105  1  0.19712812  0.03172206  0.85241030  1  0.061894  0  -0.089653  -0.073888  0  4.03721  0
C  C106  1  0.75055426  0.86920127  0.23837588  1  1.565359  0  0.243564  0.626655  0  4.145605  0
C  C107  1  0.75517660  0.93622836  0.22945089  1  0.004847  0  -0.008377  -0.075778  0  3.910917  0
C  C108  1  0.60488741  0.96841179  0.24995770  1  -0.112147  0  -0.082814  -0.093486  0  4.003512  0
C  C109  1  0.90819346  0.96743167  0.20323880  1  0.034897  0  0.000859  0.062377  0  3.923638  0
C  C110  1  0.05696385  0.93715934  0.17507727  1  0.024683  0  -0.094238  -0.136673  0  3.981432  0
C  C111  1  0.19713716  0.96827931  0.14759198  1  0.061902  0  -0.089574  -0.07375  0  4.037054  0
C  C112  1  0.75055938  0.73838036  0.36919882  1  1.565424  0  0.243403  0.626447  0  4.145472  0
C  C113  1  0.75517799  0.72945176  0.43622715  1  0.004682  0  -0.008388  -0.075739  0  3.911124  0
C  C114  1  0.60489549  0.74995479  0.46841028  1  0.05982  0  -0.082896  -0.09375  0  4.003791  0
C  C115  1  0.90819136  0.70323669  0.46743153  1  0.034827  0  0.000856  0.062398  0  3.923588  0
C  C116  1  0.05696588  0.67507751  0.43715957  1  0.024778  0  -0.094214  -0.13661  0  3.981589  0
C  C117  1  0.19713706  0.64758967  0.46828019  1  0.061936  0  -0.089626  -0.073822  0  4.037116  0
C  C118  1  0.75058920  0.26161736  0.63080004  1  1.564919  0  0.243651  0.626473  0  4.14538  0
C  C119  1  0.75519325  0.27054552  0.56377171  1  0.004416  0  -0.008368  -0.075741  0  3.911052  0
C  C120  1  0.60490908  0.25004529  0.53158775  1  -0.112273  0  -0.082908  -0.093729  0  4.00385  0
C  C121  1  0.90820322  0.29676230  0.53256770  1  -0.125316  0  0.000782  0.062266  0  3.923791  0
C  C122  1  0.05697548  0.32492354  0.56283738  1  0.024464  0  -0.094192  -0.136434  0  3.981961  0
C  C123  1  0.19713644  0.35240901  0.53172165  1  0.061991  0  -0.08956  -0.07372  0  4.03717  0
C  C124  1  0.75058730  0.13080617  0.23837921  1  1.56516  0  0.243594  0.626532  0  4.145544  0
C  C125  1  0.75518902  0.06377502  0.22945552  1  0.004412  0  -0.008295  -0.075711  0  3.910876  0
C  C126  1  0.60490187  0.03159036  0.24995735  1  0.059233  0  -0.082924  -0.093688  0  4.003769  0
C  C127  1  0.90820794  0.03256665  0.20324205  1  -0.124966  0  0.000823  0.062377  0  3.923551  0
C  C128  1  0.05698309  0.06283471  0.17508010  1  0.024359  0  -0.094177  -0.136546  0  3.981947  0
C  C129  1  0.19714204  0.03171730  0.14759163  1  -0.10895  0  -0.089747  -0.074001  0  4.037257  0
C  C130  1  0.75054486  0.86920462  0.76162551  1  1.565232  0  0.243643  0.626654  0  4.145335  0
C  C131  1  0.75517812  0.93623126  0.77055369  1  0.004588  0  -0.008442  -0.075835  0  3.911206  0
C  C132  1  0.60489449  0.96841017  0.75004518  1  0.059886  0  -0.082803  -0.093522  0  4.003578  0
C  C133  1  0.90818938  0.96743234  0.79676709  1  0.03494  0  0.000976  0.062543  0  3.923601  0
C  C134  1  0.05695416  0.93716183  0.82493261  1  0.024498  0  -0.094299  -0.13662  0  3.981677  0
C  C135  1  0.19712324  0.96828138  0.85241245  1  -0.108766  0  -0.0897  -0.073935  0  4.037286  0
C  C136  1  0.24944795  0.76162321  0.86920626  1  1.565232  0  0.243705  0.626763  0  4.145369  0
C  C137  1  0.24482356  0.77055051  0.93623189  1  0.004661  0  -0.008465  -0.075888  0  3.911252  0
C  C138  1  0.39510455  0.75004255  0.96841179  1  0.05986  0  -0.082849  -0.093607  0  4.003869  0
C  C139  1  0.09180594  0.79676065  0.96743187  1  0.03478  0  0.000939  0.062601  0  3.923675  0
C  C140  1  0.94303293  0.82491891  0.93716086  1  0.024702  0  -0.09423  -0.136622  0  3.981777  0
C  C141  1  0.80286435  0.85240947  0.96828157  1  -0.108966  0  -0.089661  -0.073892  0  4.037116  0
C  C142  1  0.24945077  0.23838324  0.13079194  1  1.565732  0  0.243692  0.626627  0  4.145451  0
C  C143  1  0.24481965  0.22945053  0.06376947  1  0.00438  0  -0.008461  -0.075893  0  3.91131  0
C  C144  1  0.39510534  0.24995569  0.03158815  1  -0.112133  0  -0.082841  -0.093511  0  4.003746  0
C  C145  1  0.09180024  0.20323777  0.03256956  1  0.034884  0  0.000807  0.062268  0  3.923952  0
C  C146  1  0.94303058  0.17507926  0.06284151  1  0.024173  0  -0.094218  -0.136506  0  3.981606  0
C  C147  1  0.80286155  0.14758927  0.03172492  1  0.062354  0  -0.089601  -0.073817  0  4.037064  0
C  C148  1  0.24943713  0.36919857  0.73837817  1  1.565325  0  0.243629  0.626773  0  4.145651  0
C  C149  1  0.24481628  0.43622655  0.72944868  1  0.004421  0  -0.008377  -0.075769  0  3.911158  0
C  C150  1  0.39509513  0.46840493  0.74995812  1  0.059006  0  -0.082708  -0.093499  0  4.003473  0
C  C151  1  0.09180707  0.46743130  0.70323712  1  0.035017  0  0.000902  0.06246  0  3.923837  0
C  C152  1  0.94303204  0.43716097  0.67507967  1  0.024623  0  -0.094215  -0.13661  0  3.981882  0
C  C153  1  0.80286638  0.46828107  0.64759130  1  -0.10894  0  -0.089623  -0.073805  0  4.037044  0
C  C154  1  0.24943284  0.63079077  0.26162048  1  1.565681  0  0.243639  0.626654  0  4.145248  0
C  C155  1  0.24481871  0.56376593  0.27055313  1  0.004594  0  -0.008478  -0.075992  0  3.911355  0
C  C156  1  0.39509832  0.53158881  0.25004496  1  0.059644  0  -0.082894  -0.093623  0  4.003979  0
C  C157  1  0.09179774  0.53256623  0.29676207  1  0.035011  0  0.000825  0.062441  0  3.924179  0
C  C158  1  0.94303694  0.56283900  0.32492450  1  0.024847  0  -0.094152  -0.136499  0  3.981497  0
C  C159  1  0.80287321  0.53171903  0.35241249  1  0.061768  0  -0.089689  -0.073914  0  4.037143  0
O  O160  1  0.40642501  0.75846828  0.15567737  1  -1.173834  0  -0.288123  -0.586353  0  2.291514  0
O  O161  1  0.09573487  0.75575802  0.15745236  1  -1.180076  0  -0.287656  -0.588349  0  2.351086  0
O  O162  1  0.40641509  0.24152594  0.84431986  1  -1.17338  0  -0.288141  -0.586412  0  2.291032  0
O  O163  1  0.09572091  0.24423771  0.84253962  1  -1.179738  0  -0.287726  -0.588389  0  2.350945  0
O  O164  1  0.40643122  0.34431866  0.25846954  1  -1.173347  0  -0.288148  -0.586313  0  2.290699  0
O  O165  1  0.09573289  0.34255779  0.25575523  1  -1.179734  0  -0.28774  -0.58845  0  2.350543  0
O  O166  1  0.40643762  0.65568861  0.74153444  1  -1.17349  0  -0.288188  -0.586454  0  2.290971  0
O  O167  1  0.09573384  0.65746406  0.74424080  1  -1.179451  0  -0.287674  -0.588289  0  2.350385  0
O  O168  1  0.59355317  0.74152973  0.65569048  1  -1.173681  0  -0.288174  -0.586424  0  2.290956  0
O  O169  1  0.90425973  0.74423819  0.65746262  1  -1.179247  0  -0.287715  -0.588372  0  2.350512  0
O  O170  1  0.59355958  0.25847302  0.34431476  1  -1.173376  0  -0.288238  -0.586379  0  2.291009  0
O  O171  1  0.90426061  0.25577070  0.34252446  1  -1.180134  0  -0.287668  -0.588353  0  2.350383  0
O  O172  1  0.59357258  0.15567032  0.75847943  1  -1.173304  0  -0.288313  -0.586658  0  2.291357  0
O  O173  1  0.90428325  0.15746632  0.75575596  1  -1.179872  0  -0.287734  -0.588488  0  2.350235  0
O  O174  1  0.59356755  0.84430766  0.24153301  1  -1.173615  0  -0.288155  -0.586463  0  2.290792  0
O  O175  1  0.90426311  0.84253536  0.24422661  1  -1.179585  0  -0.287553  -0.588379  0  2.351253  0
O  O176  1  0.59356620  0.74153187  0.34430323  1  -1.173377  0  -0.28817  -0.58645  0  2.290394  0
O  O177  1  0.90427413  0.74423717  0.34253545  1  -1.179717  0  -0.287667  -0.588379  0  2.350319  0
O  O178  1  0.59357941  0.25846638  0.65569616  1  -1.173371  0  -0.288164  -0.586372  0  2.290444  0
O  O179  1  0.90428317  0.25575641  0.65746469  1  -1.179576  0  -0.287737  -0.588282  0  2.351033  0
O  O180  1  0.59357786  0.15569535  0.24153321  1  -1.17347  0  -0.288154  -0.586379  0  2.291068  0
O  O181  1  0.90427482  0.15747694  0.24422905  1  -1.179596  0  -0.287676  -0.588395  0  2.350896  0
O  O182  1  0.59355406  0.84431101  0.75846888  1  -1.17374  0  -0.288177  -0.586377  0  2.290783  0
O  O183  1  0.90425510  0.84254231  0.75576568  1  -1.179269  0  -0.287667  -0.588486  0  2.350929  0
O  O184  1  0.40643851  0.75846943  0.84431374  1  -1.1736  0  -0.288172  -0.586425  0  2.290942  0
O  O185  1  0.09574290  0.75576503  0.84254296  1  -1.179252  0  -0.287681  -0.588434  0  2.350633  0
O  O186  1  0.40642486  0.24153198  0.15569159  1  -1.173503  0  -0.288149  -0.586398  0  2.290797  0
O  O187  1  0.09572520  0.24424691  0.15744451  1  -1.179681  0  -0.287737  -0.588414  0  2.351188  0
O  O188  1  0.40640001  0.34429497  0.74153838  1  -1.173084  0  -0.288153  -0.58656  0  2.290555  0
O  O189  1  0.09571536  0.34254401  0.74423078  1  -1.179555  0  -0.287745  -0.588539  0  2.351747  0
O  O190  1  0.40644008  0.65567942  0.25846875  1  -1.17341  0  -0.288153  -0.58637  0  2.290942  0
O  O191  1  0.09573631  0.65745667  0.25575399  1  -1.179967  0  -0.287748  -0.588466  0  2.350324  0
O  O192  1  0.25073359  0.78355567  0.28356579  1  -1.219986  0  -0.531413  -0.913798  0  2.088167  0
O  O193  1  0.25067853  0.21642241  0.71644097  1  -1.220012  0  -0.531435  -0.913773  0  2.087819  0
O  O194  1  0.25066856  0.21644927  0.28356693  1  -1.219337  0  -0.531349  -0.913809  0  2.088168  0
O  O195  1  0.25071071  0.78356754  0.71643578  1  -1.219656  0  -0.531471  -0.913879  0  2.088248  0
O  O196  1  0.74929055  0.71643793  0.78357115  1  -1.219746  0  -0.531539  -0.913885  0  2.088228  0
O  O197  1  0.74925017  0.28357871  0.21642951  1  -1.219346  0  -0.531478  -0.914001  0  2.087867  0
O  O198  1  0.74925847  0.28355865  0.78357099  1  -1.219533  0  -0.531362  -0.913481  0  2.088108  0
O  O199  1  0.74930827  0.71642330  0.21642787  1  -1.21957  0  -0.531398  -0.913875  0  2.087963  0
