# generated using pymatgen
data_NiH12C8S(NO2)2
_symmetry_space_group_name_H-M   'P 1'
_cell_length_a   4.79763237
_cell_length_b   9.89967073
_cell_length_c   10.64554187
_cell_angle_alpha   89.99981193
_cell_angle_beta   90.00019791
_cell_angle_gamma   90.00019687
_symmetry_Int_Tables_number   1
_chemical_formula_structural   NiH12C8S(NO2)2
_chemical_formula_sum   'Ni2 H24 C16 S2 N4 O8'
_cell_volume   505.60980661
_cell_formula_units_Z   2
loop_
 _symmetry_equiv_pos_site_id
 _symmetry_equiv_pos_as_xyz
  1  'x, y, z'
loop_
 _atom_site_type_symbol
 _atom_site_label
 _atom_site_symmetry_multiplicity
 _atom_site_fract_x
 _atom_site_fract_y
 _atom_site_fract_z
 _atom_site_occupancy
 _atom_site_hle17_ddec_charge
 _atom_site_hle17_ddec_spin_density
 _atom_site_hle17_ddec_sum_bond_order
 _atom_site_hle17_magmom
 _atom_site_hse06_10hf_ddec_charge
 _atom_site_hse06_10hf_ddec_spin_density
 _atom_site_hse06_10hf_ddec_sum_bond_order
 _atom_site_hse06_10hf_magmom
 _atom_site_hse06_ddec_charge
 _atom_site_hse06_ddec_spin_density
 _atom_site_hse06_ddec_sum_bond_order
 _atom_site_hse06_magmom
 _atom_site_pbe_cm5_charge
 _atom_site_pbe_ddec_charge
 _atom_site_pbe_ddec_spin_density
 _atom_site_pbe_ddec_sum_bond_order
 _atom_site_pbe_magmom
Ni  Ni0  1  0.16146529  0.13568861  0.50000266  1  0.895899  1.720061  1.787679  1.474  0.904951  1.801592  2.170939  1.612  1.005047  1.859371  2.091484  1.704  0.63324  0.828212  1.751506  2.232501  1.537
Ni  Ni1  1  0.83853644  0.63568964  0.49999775  1  0.895811  1.720033  1.78771  1.474  0.904975  1.801615  2.170937  1.612  1.004932  1.85936  2.091574  1.704  0.633212  0.828168  1.751528  2.232492  1.537
H  H2  1  0.44733603  0.81546184  0.00000006  1  0.08648  -2.1e-05  0.941045  0.0  0.101089  -1.3e-05  0.993205  0.0  0.103253  -1.5e-05  0.993346  0.0  0.101258  0.099571  -1.1e-05  0.993043  0.0
H  H3  1  0.55266072  0.31546473  0.99999698  1  0.086468  -2.3e-05  0.941105  0.0  0.101087  -1.3e-05  0.993235  0.0  0.103252  -1.5e-05  0.993376  0.0  0.101258  0.099587  -1.1e-05  0.993055  0.0
H  H4  1  0.64758175  0.89167424  0.79763072  1  0.099116  0.000247  0.981422  0.0  0.107542  0.000257  1.047635  0.0  0.110977  0.000179  1.044989  0.0  0.096911  0.104883  0.000336  1.049883  0.0
H  H5  1  0.35241971  0.39167458  0.20236797  1  0.099121  0.000248  0.981479  0.0  0.107556  0.000257  1.047677  0.0  0.11099  0.000179  1.045032  0.0  0.096913  0.1049  0.000336  1.049921  0.0
H  H6  1  0.35241356  0.39167756  0.79762842  1  0.09907  0.00025  0.981434  0.0  0.107472  0.000257  1.047679  0.0  0.110901  0.000179  1.045047  0.0  0.09688  0.104822  0.000336  1.049928  0.0
H  H7  1  0.64757956  0.89167731  0.20237121  1  0.099117  0.000249  0.981431  0.0  0.107521  0.000257  1.047662  0.0  0.110949  0.000179  1.045032  0.0  0.096919  0.104869  0.000336  1.049907  0.0
H  H8  1  0.13862605  0.18247450  0.77930352  1  0.07751  0.000514  0.929158  0.001  0.093817  0.000285  0.990658  0.001  0.093388  0.000165  0.991444  0.001  0.108302  0.093971  0.000406  0.990342  0.001
H  H9  1  0.86137601  0.68247454  0.22069580  1  0.077584  0.000515  0.929113  0.001  0.093861  0.000285  0.990645  0.001  0.093431  0.000165  0.991432  0.001  0.108316  0.094012  0.000406  0.990324  0.001
H  H10  1  0.86137390  0.68247658  0.77929583  1  0.0776  0.000514  0.929114  0.001  0.093916  0.000285  0.99061  0.001  0.093484  0.000165  0.991403  0.001  0.10831  0.094066  0.000406  0.990294  0.001
H  H11  1  0.13861358  0.18247852  0.22070255  1  0.077503  0.000513  0.92919  0.001  0.093847  0.000284  0.990648  0.001  0.093415  0.000165  0.991443  0.001  0.108275  0.093999  0.000406  0.990337  0.001
H  H12  1  0.30008839  0.02537652  0.75862575  1  0.069013  0.000179  0.939114  0.001  0.085761  0.000201  1.003184  0.001  0.085307  0.000118  1.003751  0.0  0.106038  0.085912  0.000292  1.003051  0.001
H  H13  1  0.69991047  0.52537824  0.24137687  1  0.069028  0.000181  0.939077  0.001  0.085774  0.000201  1.003151  0.001  0.085321  0.000118  1.003715  0.0  0.106033  0.085919  0.000292  1.003024  0.001
H  H14  1  0.69991446  0.52538035  0.75861498  1  0.069074  0.000179  0.939081  0.001  0.08578  0.000201  1.003204  0.001  0.085355  0.000118  1.003737  0.0  0.106032  0.085927  0.000292  1.003078  0.001
H  H15  1  0.30008441  0.02538552  0.24138012  1  0.069157  0.00018  0.939027  0.001  0.085819  0.000201  1.003204  0.001  0.085404  0.000118  1.003729  0.0  0.10605  0.085967  0.000292  1.003076  0.001
H  H16  1  0.22901971  0.14144732  0.00000091  1  0.087652  -0.00012  0.986781  0.0  0.098664  -4.8e-05  1.052421  0.0  0.10062  -3.8e-05  1.053288  0.0  0.09746  0.097127  -5e-05  1.052101  0.0
H  H17  1  0.77097005  0.64144723  0.00000153  1  0.087597  -0.00012  0.986819  0.0  0.09866  -4.8e-05  1.052399  0.0  0.100615  -3.8e-05  1.053265  0.0  0.097429  0.097123  -5e-05  1.052074  0.0
H  H18  1  0.75536283  0.10211499  0.65019752  1  0.303404  -0.002275  0.910862  -0.002  0.291625  -0.000548  0.974085  -0.001  0.298187  -0.000763  0.970744  -0.001  0.292203  0.286624  -0.000361  0.976914  0.0
H  H19  1  0.24463866  0.60211557  0.34980017  1  0.30351  -0.002275  0.910726  -0.002  0.291723  -0.000548  0.973969  -0.001  0.298283  -0.000763  0.97063  -0.001  0.292234  0.286719  -0.000362  0.976797  0.0
H  H20  1  0.24464185  0.60211403  0.65019540  1  0.303537  -0.002277  0.910765  -0.002  0.291728  -0.000549  0.974041  -0.001  0.298287  -0.000763  0.970709  -0.001  0.292191  0.286725  -0.000362  0.976872  0.0
H  H21  1  0.75535756  0.10211553  0.34980604  1  0.303455  -0.002277  0.91091  -0.002  0.291658  -0.000549  0.974143  -0.001  0.298226  -0.000763  0.970789  -0.001  0.292181  0.286655  -0.000361  0.976972  0.0
H  H22  1  0.91739152  0.95609004  0.62726844  1  0.303696  -0.002461  0.905341  -0.002  0.291901  -0.000746  0.968164  -0.001  0.298544  -0.000975  0.964745  -0.001  0.294619  0.286885  -0.00051  0.97092  -0.001
H  H23  1  0.08261039  0.45609235  0.37273099  1  0.303677  -0.00246  0.905379  -0.002  0.291917  -0.000745  0.968151  -0.001  0.298559  -0.000976  0.96473  -0.001  0.294651  0.286902  -0.000511  0.970909  -0.001
H  H24  1  0.08260924  0.45609089  0.62726477  1  0.30365  -0.002463  0.905415  -0.002  0.291889  -0.000745  0.96817  -0.001  0.298532  -0.000976  0.96475  -0.001  0.294615  0.286874  -0.000511  0.970932  -0.001
H  H25  1  0.91739267  0.95608948  0.37273466  1  0.303695  -0.002461  0.905379  -0.002  0.291902  -0.000745  0.968157  -0.001  0.298544  -0.000976  0.964738  -0.001  0.294596  0.286884  -0.000511  0.970915  -0.001
C  C26  1  0.62241222  0.88586433  0.00000386  1  -0.049858  0.000234  3.79833  0.0  -0.06095  -8.2e-05  4.053914  0.0  -0.061289  2e-06  4.075395  0.0  -0.090453  -0.060451  -0.000109  4.039274  0.0
C  C27  1  0.37758294  0.38586491  0.99999579  1  -0.049938  0.000255  3.798477  0.0  -0.061017  -8.3e-05  4.054058  0.0  -0.061357  6e-06  4.075541  0.0  -0.090509  -0.06053  -0.000108  4.039425  0.0
C  C28  1  0.95379046  0.02269190  0.88518537  1  0.07139  0.008267  3.754158  0.011  0.094785  0.004597  3.989487  0.007  0.094555  0.003309  4.014062  0.005  -0.014712  0.095099  0.005745  3.972476  0.008
C  C29  1  0.04620631  0.52268793  0.11482102  1  0.071462  0.008285  3.754059  0.011  0.094885  0.004597  3.989357  0.007  0.094653  0.003312  4.01394  0.005  -0.014565  0.095207  0.005745  3.972338  0.008
C  C30  1  0.04619871  0.52269060  0.88517166  1  0.071542  0.008286  3.754051  0.011  0.094961  0.004596  3.989349  0.007  0.094728  0.003312  4.013935  0.005  -0.014507  0.095279  0.005743  3.972337  0.008
C  C31  1  0.95380014  0.02269125  0.11482721  1  0.071589  0.008266  3.75436  0.011  0.095031  0.004595  3.989608  0.007  0.094798  0.003308  4.014197  0.005  -0.014455  0.095345  0.005742  3.972593  0.008
C  C32  1  0.73309939  0.93019159  0.88565255  1  -0.146455  -0.000859  3.749501  -0.001  -0.169169  0.000232  3.999763  0.0  -0.17296  3e-06  4.020617  0.0  -0.104716  -0.166618  0.000409  3.985885  0.0
C  C33  1  0.26690234  0.43018908  0.11434696  1  -0.146461  -0.000894  3.749531  -0.001  -0.1692  0.000233  3.9998  0.0  -0.172992  -2e-06  4.020659  0.0  -0.104739  -0.166649  0.000409  3.985929  0.0
C  C34  1  0.26689058  0.43019377  0.88564636  1  -0.146361  -0.000903  3.749384  -0.001  -0.169054  0.000234  3.99961  0.0  -0.172847  -2e-06  4.02047  0.0  -0.104708  -0.166511  0.000409  3.985753  0.0
C  C35  1  0.73310698  0.93019498  0.11435503  1  -0.146491  -0.000869  3.749461  -0.001  -0.169194  0.000234  3.999708  0.0  -0.172987  2e-06  4.020569  0.0  -0.104782  -0.166647  0.000409  3.985834  0.0
C  C36  1  0.09520837  0.07430927  0.76766028  1  0.041621  -0.003099  3.656202  -0.004  -0.01545  0.000627  3.92074  -0.001  -0.009151  -0.000228  3.933767  -0.001  -0.068287  -0.019662  0.001351  3.911758  -0.001
C  C37  1  0.90479084  0.57431035  0.23234313  1  0.041579  -0.003108  3.656286  -0.004  -0.01549  0.000627  3.920851  -0.001  -0.009192  -0.000228  3.933878  -0.001  -0.068298  -0.019703  0.00135  3.91186  -0.001
C  C38  1  0.90479072  0.57431041  0.76765454  1  0.041456  -0.0031  3.656455  -0.004  -0.015627  0.000627  3.921022  -0.001  -0.009344  -0.000227  3.934046  -0.001  -0.068344  -0.01984  0.001351  3.912034  -0.001
C  C39  1  0.09520224  0.07431123  0.23233854  1  0.041406  -0.003096  3.656532  -0.004  -0.015677  0.000629  3.921053  -0.001  -0.009406  -0.000227  3.934081  -0.001  -0.068373  -0.019887  0.001352  3.912065  -0.001
C  C40  1  0.05854370  0.06857506  0.00000464  1  -0.173813  -0.000372  3.752526  0.001  -0.201438  0.000444  3.997146  0.001  -0.206671  4.2e-05  4.021494  0.001  -0.095985  -0.197677  0.000765  3.980325  0.002
C  C41  1  0.94145547  0.56857449  0.99999785  1  -0.173836  -0.000399  3.752335  0.001  -0.201484  0.000445  3.996922  0.001  -0.206714  3.7e-05  4.021269  0.001  -0.095985  -0.19772  0.000766  3.980091  0.002
S  S42  1  0.39327582  0.82541679  0.49999992  1  1.543153  -0.00214  5.75992  -0.001  1.433312  0.004063  6.29034  0.003  1.493604  0.002429  6.258973  0.003  0.568885  1.389884  0.005564  6.309984  0.004
S  S43  1  0.60673559  0.32541549  0.49999897  1  1.543116  -0.002143  5.759697  -0.001  1.433338  0.004057  6.290091  0.003  1.493638  0.00243  6.258721  0.003  0.568923  1.389914  0.005565  6.309742  0.004
N  N44  1  0.94718853  0.05606918  0.64828708  1  -0.595637  0.080761  3.165071  0.124  -0.594497  0.046426  3.458435  0.072  -0.629727  0.033988  3.461382  0.057  -0.633841  -0.569566  0.05568  3.457129  0.082
N  N45  1  0.05281472  0.55606943  0.35170981  1  -0.595743  0.080759  3.165166  0.124  -0.594655  0.046423  3.45854  0.072  -0.629835  0.033991  3.461446  0.057  -0.633937  -0.569707  0.055678  3.457219  0.082
N  N46  1  0.05281581  0.55606991  0.64828560  1  -0.59572  0.080773  3.165172  0.124  -0.594585  0.046426  3.458496  0.072  -0.629777  0.033991  3.461417  0.057  -0.633819  -0.569636  0.05568  3.45717  0.082
N  N47  1  0.94718744  0.05606971  0.35171599  1  -0.595723  0.080762  3.165188  0.124  -0.5945  0.046428  3.458474  0.072  -0.62972  0.033991  3.461416  0.057  -0.633774  -0.569565  0.055682  3.457164  0.082
O  O48  1  0.45603438  0.97280458  0.50000256  1  -0.699291  0.037755  2.042315  0.061  -0.654887  0.027667  2.328628  0.044  -0.688249  0.020177  2.312246  0.034  -0.339093  -0.629023  0.035245  2.340239  0.054
O  O49  1  0.54396765  0.47280519  0.49999964  1  -0.699237  0.037755  2.042122  0.061  -0.654905  0.027669  2.328447  0.044  -0.688249  0.020176  2.312055  0.034  -0.339135  -0.62903  0.035243  2.340043  0.054
O  O50  1  0.08205767  0.81049887  0.50000532  1  -0.722637  0.03561  2.102265  0.061  -0.67714  0.026211  2.382423  0.044  -0.711577  0.018988  2.365554  0.034  -0.342282  -0.650318  0.033352  2.393271  0.054
O  O51  1  0.91795780  0.31050112  0.50000206  1  -0.722683  0.03561  2.102277  0.061  -0.677207  0.026213  2.382418  0.044  -0.711656  0.018988  2.365536  0.034  -0.34232  -0.650394  0.033353  2.393278  0.054
O  O52  1  0.51845857  0.75852760  0.61287836  1  -0.707455  0.023246  1.927713  0.038  -0.658192  0.018747  2.182296  0.03  -0.686541  0.013731  2.165487  0.024  -0.343108  -0.636254  0.023519  2.193585  0.037
O  O53  1  0.48155445  0.25852448  0.38711886  1  -0.707455  0.023241  1.927724  0.038  -0.658162  0.018748  2.182258  0.03  -0.686543  0.013728  2.165474  0.024  -0.34307  -0.636233  0.023516  2.193562  0.036
O  O54  1  0.48155319  0.25852710  0.61288097  1  -0.707433  0.023245  1.927716  0.038  -0.658115  0.018745  2.182209  0.03  -0.68649  0.01373  2.165424  0.024  -0.343063  -0.636188  0.023517  2.193515  0.036
O  O55  1  0.51844941  0.75852901  0.38712094  1  -0.70751  0.023241  1.927819  0.038  -0.658154  0.018745  2.1823  0.03  -0.686507  0.013728  2.1655  0.024  -0.343074  -0.636225  0.023516  2.193604  0.036
