# generated using pymatgen
data_CaH13C4NO8
_symmetry_space_group_name_H-M   'P 1'
_cell_length_a   6.48032368
_cell_length_b   11.86463054
_cell_length_c   13.97034158
_cell_angle_alpha   67.96521896
_cell_angle_beta   76.58703787
_cell_angle_gamma   74.14472455
_symmetry_Int_Tables_number   1
_chemical_formula_structural   CaH13C4NO8
_chemical_formula_sum   'Ca4 H52 C16 N4 O32'
_cell_volume   947.64389252
_cell_formula_units_Z   4
loop_
 _symmetry_equiv_pos_site_id
 _symmetry_equiv_pos_as_xyz
  1  'x, y, z'
loop_
 _atom_site_type_symbol
 _atom_site_label
 _atom_site_symmetry_multiplicity
 _atom_site_fract_x
 _atom_site_fract_y
 _atom_site_fract_z
 _atom_site_occupancy
 _atom_site_hle17_bader_spin_density
 _atom_site_hle17_ddec_charge
 _atom_site_hle17_ddec_spin_density
 _atom_site_hle17_ddec_sum_bond_order
 _atom_site_hle17_magmom
 _atom_site_hse06_10hf_bader_spin_density
 _atom_site_hse06_10hf_ddec_charge
 _atom_site_hse06_10hf_ddec_spin_density
 _atom_site_hse06_10hf_ddec_sum_bond_order
 _atom_site_hse06_10hf_magmom
 _atom_site_hse06_bader_spin_density
 _atom_site_hse06_ddec_charge
 _atom_site_hse06_ddec_spin_density
 _atom_site_hse06_ddec_sum_bond_order
 _atom_site_hse06_magmom
 _atom_site_pbe_bader_spin_density
 _atom_site_pbe_cm5_charge
 _atom_site_pbe_ddec_charge
 _atom_site_pbe_ddec_spin_density
 _atom_site_pbe_ddec_sum_bond_order
 _atom_site_pbe_magmom
Ca  Ca0  1  0.33560521  0.52535592  0.71566186  1  0  1.537165  0  1.085461  0  0  1.402947  0  1.436322  0  0  1.442567  0  1.394007  0  0  0.862091  1.373233  0  1.466342  0
Ca  Ca1  1  0.57656838  0.47462601  0.28433520  1  0  1.537972  0  1.084796  0  0  1.404063  0  1.435327  0  0  1.443674  0  1.39301  0  0  0.86248  1.374585  0  1.464986  0
Ca  Ca2  1  0.56066921  0.02467285  0.21851518  1  0  1.525286  0  1.097049  0  0  1.39295  0  1.445653  0  0  1.43252  0  1.40392  0  0  0.857168  1.363299  0  1.475244  0
Ca  Ca3  1  0.80351038  0.97538671  0.78148357  1  0  1.525445  0  1.09704  0  0  1.39332  0  1.445151  0  0  1.432904  0  1.40341  0  0  0.857114  1.363663  0  1.474742  0
H  H4  1  0.83179433  0.59048333  0.72664092  1  0  0.288111  0  0.944131  0  0  0.273777  0  1.014292  0  0  0.280926  0  1.007766  0  0  0.29204  0.26861  0  1.019027  0
H  H5  1  0.14885181  0.40953651  0.27337016  1  0  0.288828  0  0.94246  0  0  0.274268  0  1.013113  0  0  0.281421  0  1.006596  0  0  0.292336  0.269101  0  1.017841  0
H  H6  1  0.93075266  0.71471577  0.68994367  1  0  0.302037  0  0.911608  0  0  0.292318  0  0.972023  0  0  0.298884  0  0.966437  0  0  0.297133  0.287563  0  0.976154  0
H  H7  1  0.33541269  0.28529071  0.31001313  1  0  0.30217  0  0.912355  0  0  0.292742  0  0.97218  0  0  0.299282  0  0.966656  0  0  0.297032  0.28798  0  0.976312  0
H  H8  1  0.85557803  0.58146769  0.56783964  1  0  0.079209  0  0.900058  0  0  0.092775  0  0.95759  0  0  0.094359  0  0.956379  0  0  0.127461  0.091545  0  0.958687  0
H  H9  1  0.00493754  0.41854005  0.43213962  1  0  0.078782  0  0.901185  0  0  0.092299  0  0.958464  0  0  0.093993  0  0.957106  0  0  0.127283  0.091011  0  0.959648  0
H  H10  1  0.69738040  0.78607527  0.45627570  1  0  0.116011  0  0.953166  0  0  0.131838  0  1.014032  0  0  0.134021  0  1.012821  0  0  0.116173  0.130286  0  1.014975  0
H  H11  1  0.93951186  0.21413035  0.54370382  1  0  0.11637  0  0.953384  0  0  0.132579  0  1.014129  0  0  0.134785  0  1.012933  0  0  0.116429  0.131015  0  1.015041  0
H  H12  1  0.81061040  0.86155844  0.51150196  1  0  0.113005  0  0.950796  0  0  0.125673  0  1.013887  0  0  0.128523  0  1.012069  0  0  0.107332  0.123607  0  1.015292  0
H  H13  1  0.18353058  0.13847303  0.48865772  1  0  0.113982  0  0.95146  0  0  0.12734  0  1.014227  0  0  0.130229  0  1.012441  0  0  0.107711  0.12523  0  1.015636  0
H  H14  1  0.70667179  0.37806495  0.85105835  1  0  0.421087  0  0.883166  0  0  0.390244  0  0.945825  0  0  0.400123  0  0.931483  0  0  0.297978  0.383283  0  0.955923  0
H  H15  1  0.93572671  0.62184000  0.14897938  1  0  0.422687  0  0.881027  0  0  0.391079  0  0.945075  0  0  0.401003  0  0.930673  0  0  0.297768  0.384088  0  0.955215  0
H  H16  1  0.62040365  0.50908273  0.86666587  1  0  0.427869  0  0.874632  0  0  0.395509  0  0.940004  0  0  0.406122  0  0.9245  0  0  0.300334  0.388022  0  0.950941  0
H  H17  1  0.99610514  0.49083645  0.13331965  1  0  0.427969  0  0.874494  0  0  0.395467  0  0.940173  0  0  0.406082  0  0.924659  0  0  0.300345  0.387985  0  0.951103  0
H  H18  1  0.11556143  0.29752577  0.82019122  1  0  0.424653  0  0.880213  0  0  0.389974  0  0.949988  0  0  0.401329  0  0.933313  0  0  0.298593  0.381894  0  0.961844  0
H  H19  1  0.23326435  0.70236078  0.17979221  1  0  0.423619  0  0.881804  0  0  0.389751  0  0.950154  0  0  0.401052  0  0.933532  0  0  0.298153  0.381712  0  0.961973  0
H  H20  1  0.25538974  0.30350939  0.70809245  1  0  0.417396  0  0.894121  0  0  0.382229  0  0.964326  0  0  0.393789  0  0.947522  0  0  0.297945  0.374094  0  0.976126  0
H  H21  1  0.26693305  0.69648922  0.29186107  1  0  0.418716  0  0.892311  0  0  0.383275  0  0.962903  0  0  0.394822  0  0.946114  0  0  0.29858  0.375154  0  0.97469  0
H  H22  1  0.15994470  0.48503989  0.94800770  1  0  0.41699  0  0.893972  0  0  0.381785  0  0.965175  0  0  0.393306  0  0.948437  0  0  0.287796  0.373643  0  0.976971  0
H  H23  1  0.59301853  0.51494214  0.05192975  1  0  0.416843  0  0.894142  0  0  0.381357  0  0.96586  0  0  0.392893  0  0.949082  0  0  0.287249  0.373211  0  0.977689  0
H  H24  1  0.96142400  0.56311495  0.88794336  1  0  0.417571  0  0.888357  0  0  0.383491  0  0.957828  0  0  0.394979  0  0.940974  0  0  0.292617  0.375344  0  0.969762  0
H  H25  1  0.41253260  0.43687915  0.11199306  1  0  0.418697  0  0.886898  0  0  0.384657  0  0.956277  0  0  0.396145  0  0.939438  0  0  0.292808  0.376539  0  0.968162  0
H  H26  1  0.70485507  0.32395245  0.66097442  1  0  0.413314  0  0.887187  0  0  0.386656  0  0.944268  0  0  0.397141  0  0.928794  0  0  0.295301  0.37914  0  0.955363  0
H  H27  1  0.68970606  0.67610141  0.33902526  1  0  0.412492  0  0.888334  0  0  0.386277  0  0.944635  0  0  0.396749  0  0.929184  0  0  0.295238  0.378762  0  0.955725  0
H  H28  1  0.57041205  0.39390462  0.56604434  1  0  0.421346  0  0.882291  0  0  0.388368  0  0.950136  0  0  0.400257  0  0.932755  0  0  0.296436  0.379942  0  0.962436  0
H  H29  1  0.53024067  0.60619184  0.43393818  1  0  0.419869  0  0.884437  0  0  0.387294  0  0.951537  0  0  0.399179  0  0.934176  0  0  0.296161  0.378857  0  0.963843  0
H  H30  1  0.00876073  0.06860761  0.19910936  1  0  0.285699  0  0.926894  0  0  0.278685  0  0.985937  0  0  0.28482  0  0.980732  0  0  0.295416  0.274251  0  0.98972  0
H  H31  1  0.27612700  0.93125139  0.80088081  1  0  0.285891  0  0.925435  0  0  0.278986  0  0.984317  0  0  0.285095  0  0.979156  0  0  0.295484  0.274559  0  0.988109  0
H  H32  1  0.84649574  0.18554493  0.22949437  1  0  0.295144  0  0.93635  0  0  0.282144  0  1.00181  0  0  0.289288  0  0.995795  0  0  0.294179  0.277026  0  1.006109  0
H  H33  1  0.26121871  0.81432582  0.77050497  1  0  0.295316  0  0.935752  0  0  0.282436  0  1.00098  0  0  0.289586  0  0.994954  0  0  0.294161  0.277314  0  1.005286  0
H  H34  1  0.81907218  0.31283641  0.06910658  1  0  0.078254  0  0.917741  0  0  0.092714  0  0.972938  0  0  0.094923  0  0.971701  0  0  0.124367  0.091002  0  0.974101  0
H  H35  1  0.20086540  0.68701307  0.93088900  1  0  0.077954  0  0.919412  0  0  0.092485  0  0.974263  0  0  0.09464  0  0.973062  0  0  0.124491  0.090804  0  0.975433  0
H  H36  1  0.18049748  0.28811099  0.95557809  1  0  0.111901  0  0.978133  0  0  0.125193  0  1.041843  0  0  0.127723  0  1.040309  0  0  0.110145  0.123286  0  1.043102  0
H  H37  1  0.42396617  0.71185236  0.04439364  1  0  0.111311  0  0.978157  0  0  0.124895  0  1.042147  0  0  0.127495  0  1.04062  0  0  0.110158  0.122977  0  1.043366  0
H  H38  1  0.25617364  0.13518603  0.04451405  1  0  0.115213  0  0.94894  0  0  0.128583  0  1.011284  0  0  0.131285  0  1.009221  0  0  0.111419  0.126631  0  1.012848  0
H  H39  1  0.43533369  0.86480900  0.95547255  1  0  0.114153  0  0.94794  0  0  0.128451  0  1.010064  0  0  0.131187  0  1.008036  0  0  0.111133  0.12647  0  1.011628  0
H  H40  1  0.20735724  0.86710523  0.35025376  1  0  0.418579  0  0.884802  0  0  0.38715  0  0.948251  0  0  0.3974  0  0.933304  0  0  0.297556  0.379905  0  0.95882  0
H  H41  1  0.42407278  0.13278626  0.64986325  1  0  0.419519  0  0.883076  0  0  0.387638  0  0.947485  0  0  0.397895  0  0.932508  0  0  0.297385  0.380398  0  0.958053  0
H  H42  1  0.12997428  0.99962074  0.36259763  1  0  0.426838  0  0.872883  0  0  0.394972  0  0.937587  0  0  0.40525  0  0.922683  0  0  0.300184  0.38771  0  0.948106  0
H  H43  1  0.49142429  0.00029373  0.63753986  1  0  0.427082  0  0.872974  0  0  0.394711  0  0.938371  0  0  0.405041  0  0.923414  0  0  0.300236  0.387419  0  0.948927  0
H  H44  1  0.91212670  0.79103228  0.31970894  1  0  0.424048  0  0.884153  0  0  0.388789  0  0.954868  0  0  0.400301  0  0.938029  0  0  0.296597  0.380604  0  0.96682  0
H  H45  1  0.02261149  0.20905279  0.68024609  1  0  0.42418  0  0.884022  0  0  0.389084  0  0.954376  0  0  0.400622  0  0.937491  0  0  0.296521  0.380877  0  0.966374  0
H  H46  1  0.87422551  0.80287533  0.20615754  1  0  0.420952  0  0.885621  0  0  0.386279  0  0.955004  0  0  0.398089  0  0.937774  0  0  0.298302  0.377951  0  0.96713  0
H  H47  1  0.88311823  0.19710052  0.79382811  1  0  0.420567  0  0.886293  0  0  0.385814  0  0.955831  0  0  0.39762  0  0.938616  0  0  0.298317  0.377476  0  0.967973  0
H  H48  1  0.49208303  0.00578812  0.44795553  1  0  0.412157  0  0.897794  0  0  0.378281  0  0.967628  0  0  0.389311  0  0.951549  0  0  0.288029  0.370474  0  0.97899  0
H  H49  1  0.94562149  0.99435153  0.55201381  1  0  0.411101  0  0.89909  0  0  0.377931  0  0.967766  0  0  0.388912  0  0.951733  0  0  0.287985  0.370133  0  0.979139  0
H  H50  1  0.68254136  0.07612306  0.39001957  1  0  0.415265  0  0.896607  0  0  0.379624  0  0.968983  0  0  0.391478  0  0.951653  0  0  0.289209  0.37127  0  0.981176  0
H  H51  1  0.14838421  0.92397288  0.60999606  1  0  0.414029  0  0.898575  0  0  0.378942  0  0.970065  0  0  0.390773  0  0.952745  0  0  0.288577  0.370601  0  0.982264  0
H  H52  1  0.45218968  0.82657090  0.15846952  1  0  0.418521  0  0.879985  0  0  0.391142  0  0.937954  0  0  0.401588  0  0.922605  0  0  0.296053  0.38367  0  0.94893  0
H  H53  1  0.43717610  0.17352210  0.84154641  1  0  0.417923  0  0.880599  0  0  0.391002  0  0.937668  0  0  0.401424  0  0.922365  0  0  0.29621  0.383566  0  0.94858  0
H  H54  1  0.61696581  0.89769180  0.06715707  1  0  0.419075  0  0.886912  0  0  0.386735  0  0.953959  0  0  0.398478  0  0.936775  0  0  0.29706  0.378384  0  0.966149  0
H  H55  1  0.58181461  0.10234365  0.93284161  1  0  0.419328  0  0.886617  0  0  0.38595  0  0.95514  0  0  0.397711  0  0.937973  0  0  0.296573  0.377592  0  0.967334  0
C  C56  1  0.12319287  0.66917927  0.49314996  1  0  0.675721  0  3.771686  0  0  0.617686  0  4.07996  0  0  0.65061  0  4.072502  0  0  0.239299  0.595323  0  4.084314  0
C  C57  1  0.28544654  0.33092686  0.50688433  1  0  0.676653  0  3.774022  0  0  0.618582  0  4.081663  0  0  0.651484  0  4.074216  0  0  0.239807  0.59622  0  4.086033  0
C  C58  1  0.90964561  0.66138048  0.56926038  1  0  0.094893  0  3.641807  0  0  0.075967  0  3.890231  0  0  0.076291  0  3.902562  0  0  0.008848  0.075684  0  3.881668  0
C  C59  1  0.14037032  0.33863484  0.43073064  1  0  0.096669  0  3.643025  0  0  0.078828  0  3.890617  0  0  0.079176  0  3.902989  0  0  0.009691  0.078524  0  3.882041  0
C  C60  1  0.74033694  0.78029969  0.52983821  1  0  -0.334784  0  3.676558  0  0  -0.379539  0  3.926634  0  0  -0.385112  0  3.932959  0  0  -0.164007  -0.375606  0  3.922176  0
C  C61  1  0.05040466  0.21976912  0.47020850  1  0  -0.336658  0  3.676108  0  0  -0.383713  0  3.928358  0  0  -0.389494  0  3.934885  0  0  -0.165117  -0.379646  0  3.923806  0
C  C62  1  0.52538779  0.79882676  0.59948175  1  0  0.758197  0  3.781468  0  0  0.702702  0  4.086675  0  0  0.737147  0  4.077104  0  0  0.239507  0.679344  0  4.092403  0
C  C63  1  0.92375073  0.20120198  0.40052500  1  0  0.755065  0  3.786904  0  0  0.700433  0  4.092141  0  0  0.7349  0  4.082617  0  0  0.238221  0.677019  0  4.097843  0
C  C64  1  0.83102483  0.18685239  0.99452683  1  0  0.673784  0  3.774856  0  0  0.616294  0  4.080652  0  0  0.649286  0  4.073489  0  0  0.237691  0.593868  0  4.084816  0
C  C65  1  0.01221292  0.81301290  0.00549755  1  0  0.674713  0  3.779469  0  0  0.617793  0  4.084109  0  0  0.650789  0  4.076903  0  0  0.237922  0.595399  0  4.088289  0
C  C66  1  0.91777902  0.21982930  0.07205273  1  0  0.09616  0  3.625841  0  0  0.08107  0  3.872164  0  0  0.080467  0  3.884727  0  0  0.010027  0.081433  0  3.863493  0
C  C67  1  0.20940796  0.78004613  0.92792731  1  0  0.095149  0  3.629779  0  0  0.080662  0  3.875729  0  0  0.080214  0  3.888198  0  0  0.009859  0.080874  0  3.86726  0
C  C68  1  0.15780840  0.22874578  0.03720015  1  0  -0.34277  0  3.673992  0  0  -0.390501  0  3.923461  0  0  -0.395805  0  3.929185  0  0  -0.166521  -0.386663  0  3.919459  0
C  C69  1  0.42347173  0.77120893  0.96276254  1  0  -0.338927  0  3.672542  0  0  -0.389998  0  3.923871  0  0  -0.395523  0  3.929786  0  0  -0.166506  -0.386054  0  3.919817  0
C  C70  1  0.23246335  0.28434800  0.10154117  1  0  0.746315  0  3.800126  0  0  0.692445  0  4.106011  0  0  0.726441  0  4.09702  0  0  0.231038  0.669391  0  4.11131  0
C  C71  1  0.61815247  0.71567458  0.89840342  1  0  0.743712  0  3.804636  0  0  0.692933  0  4.106476  0  0  0.726971  0  4.09752  0  0  0.232162  0.669866  0  4.111759  0
N  N72  1  0.95079176  0.63323750  0.67558513  1  0  -0.7199  0  3.028517  0  0  -0.69101  0  3.271605  0  0  -0.707164  0  3.268044  0  0  -0.673799  -0.679207  0  3.273885  0
N  N73  1  0.25963837  0.36676471  0.32439775  1  0  -0.721314  0  3.027779  0  0  -0.692676  0  3.27093  0  0  -0.708825  0  3.267341  0  0  -0.674298  -0.680919  0  3.273286  0
N  N74  1  0.87299826  0.13626562  0.17951109  1  0  -0.71162  0  3.017691  0  0  -0.683239  0  3.256891  0  0  -0.699415  0  3.254505  0  0  -0.668692  -0.671435  0  3.258328  0
N  N75  1  0.18843235  0.86360853  0.82048313  1  0  -0.712048  0  3.017845  0  0  -0.683859  0  3.256858  0  0  -0.700059  0  3.25441  0  0  -0.66877  -0.672034  0  3.258381  0
O  O76  1  0.30041317  0.61845045  0.52876689  1  0  -0.653643  0  2.022165  0  0  -0.589428  0  2.257542  0  0  -0.617076  0  2.249954  0  0  -0.321842  -0.570059  0  2.262195  0
O  O77  1  0.44769119  0.38151286  0.47130049  1  0  -0.654692  0  2.023634  0  0  -0.59054  0  2.259224  0  0  -0.618197  0  2.251653  0  0  -0.322257  -0.571216  0  2.26388  0
O  O78  1  0.11147159  0.72789702  0.39542793  1  0  -0.686027  0  2.073813  0  0  -0.607379  0  2.291372  0  0  -0.634637  0  2.279042  0  0  -0.311437  -0.588473  0  2.299554  0
O  O79  1  0.23444780  0.27230541  0.60460177  1  0  -0.687301  0  2.074263  0  0  -0.608571  0  2.291592  0  0  -0.635845  0  2.279222  0  0  -0.311702  -0.589593  0  2.299717  0
O  O80  1  0.41820749  0.91240690  0.57817182  1  0  -0.695951  0  2.011035  0  0  -0.616845  0  2.221887  0  0  -0.64451  0  2.209697  0  0  -0.31391  -0.597779  0  2.230069  0
O  O81  1  0.90910240  0.08760642  0.42175528  1  0  -0.694007  0  2.013093  0  0  -0.616085  0  2.224621  0  0  -0.643573  0  2.212226  0  0  -0.313179  -0.59698  0  2.232783  0
O  O82  1  0.45521097  0.70957990  0.67094750  1  0  -0.687662  0  1.956817  0  0  -0.620749  0  2.198046  0  0  -0.647822  0  2.187758  0  0  -0.362255  -0.601703  0  2.20459  0
O  O83  1  0.83567512  0.29044549  0.32909886  1  0  -0.686015  0  1.959002  0  0  -0.618925  0  2.199441  0  0  -0.646066  0  2.189224  0  0  -0.361852  -0.599922  0  2.206011  0
O  O84  1  0.60699941  0.45907614  0.82608141  1  0  -0.879787  0  1.791176  0  0  -0.817687  0  1.970595  0  0  -0.839046  0  1.940118  0  0  -0.629965  -0.802307  0  1.991706  0
O  O85  1  0.89208656  0.54083140  0.17391635  1  0  -0.881335  0  1.790234  0  0  -0.818725  0  1.970014  0  0  -0.840157  0  1.939433  0  0  -0.629687  -0.803356  0  1.991224  0
O  O86  1  0.25193007  0.31853131  0.77438530  1  0  -0.888537  0  1.863393  0  0  -0.823906  0  2.048365  0  0  -0.846192  0  2.01466  0  0  -0.608301  -0.807907  0  2.071825  0
O  O87  1  0.34481465  0.68144633  0.22558883  1  0  -0.889129  0  1.863719  0  0  -0.824808  0  2.048951  0  0  -0.847042  0  2.015393  0  0  -0.608513  -0.808869  0  2.072263  0
O  O88  1  0.12218430  0.53808966  0.87700406  1  0  -0.894608  0  1.819558  0  0  -0.838186  0  2.0141  0  0  -0.859867  0  1.980985  0  0  -0.635618  -0.822451  0  2.037185  0
O  O89  1  0.53737774  0.46185546  0.12292986  1  0  -0.895623  0  1.818222  0  0  -0.838972  0  2.012791  0  0  -0.860672  0  1.979616  0  0  -0.635195  -0.823294  0  2.035821  0
O  O90  1  0.62192896  0.40580224  0.62282117  1  0  -0.872636  0  1.799986  0  0  -0.818824  0  1.976628  0  0  -0.838933  0  1.943553  0  0  -0.623844  -0.804352  0  1.999874  0
O  O91  1  0.65031510  0.59429711  0.37712144  1  0  -0.870726  0  1.803381  0  0  -0.817286  0  1.979315  0  0  -0.837382  0  1.946231  0  0  -0.623356  -0.802836  0  2.002579  0
O  O92  1  0.69724826  0.11602433  0.02984486  1  0  -0.649136  0  2.031685  0  0  -0.582248  0  2.263971  0  0  -0.610313  0  2.257184  0  0  -0.315793  -0.562578  0  2.268067  0
O  O93  1  0.84292019  0.88398596  0.97020575  1  0  -0.649075  0  2.031168  0  0  -0.583721  0  2.264351  0  0  -0.611782  0  2.257448  0  0  -0.316347  -0.564037  0  2.268467  0
O  O94  1  0.88944372  0.23977597  0.89631076  1  0  -0.683456  0  2.047788  0  0  -0.607231  0  2.264207  0  0  -0.633765  0  2.251013  0  0  -0.312765  -0.58875  0  2.27292  0
O  O95  1  0.02525782  0.76006619  0.10370217  1  0  -0.684437  0  2.050953  0  0  -0.607937  0  2.2667  0  0  -0.634459  0  2.253488  0  0  -0.31271  -0.589513  0  2.275468  0
O  O96  1  0.20189761  0.40388708  0.07213165  1  0  -0.684556  0  2.001712  0  0  -0.60562  0  2.211052  0  0  -0.63281  0  2.198407  0  0  -0.310333  -0.586921  0  2.219591  0
O  O97  1  0.67786851  0.59615330  0.92775145  1  0  -0.683542  0  2.004211  0  0  -0.605607  0  2.212123  0  0  -0.632853  0  2.199497  0  0  -0.311069  -0.58684  0  2.220613  0
O  O98  1  0.31992677  0.21388457  0.18091308  1  0  -0.686906  0  1.96495  0  0  -0.62425  0  2.210136  0  0  -0.651374  0  2.201091  0  0  -0.371385  -0.60521  0  2.215868  0
O  O99  1  0.71435820  0.78620397  0.81899808  1  0  -0.686638  0  1.96743  0  0  -0.624342  0  2.210504  0  0  -0.651466  0  2.201495  0  0  -0.371319  -0.605262  0  2.216119  0
O  O100  1  0.24065373  0.95090554  0.32308939  1  0  -0.873272  0  1.794041  0  0  -0.811931  0  1.972614  0  0  -0.832904  0  1.941706  0  0  -0.622312  -0.796885  0  1.99415  0
O  O101  1  0.51382311  0.04894262  0.67711019  1  0  -0.873951  0  1.793114  0  0  -0.81204  0  1.972059  0  0  -0.833071  0  1.941116  0  0  -0.621659  -0.796923  0  1.993537  0
O  O102  1  0.80080949  0.82038393  0.27206972  1  0  -0.893988  0  1.852541  0  0  -0.829388  0  2.037133  0  0  -0.851753  0  2.002877  0  0  -0.610975  -0.813299  0  2.061017  0
O  O103  1  0.89297569  0.17971677  0.72787969  1  0  -0.893767  0  1.853316  0  0  -0.828838  0  2.03757  0  0  -0.851206  0  2.003297  0  0  -0.610793  -0.812777  0  2.061494  0
O  O104  1  0.54863419  0.05961512  0.37821891  1  0  -0.89095  0  1.815272  0  0  -0.834721  0  2.010692  0  0  -0.856031  0  1.977909  0  0  -0.63504  -0.819382  0  2.033488  0
O  O105  1  0.98614882  0.94055052  0.62178591  1  0  -0.888771  0  1.818536  0  0  -0.833726  0  2.01323  0  0  -0.854958  0  1.980673  0  0  -0.634694  -0.818404  0  2.035814  0
O  O106  1  0.49568804  0.90771127  0.12397942  1  0  -0.877383  0  1.822768  0  0  -0.824083  0  2.003629  0  0  -0.844248  0  1.970526  0  0  -0.632614  -0.809553  0  2.0269  0
O  O107  1  0.52716713  0.09233565  0.87607733  1  0  -0.876994  0  1.822381  0  0  -0.823182  0  2.004454  0  0  -0.843359  0  1.971253  0  0  -0.632477  -0.808701  0  2.027772  0
