# generated using pymatgen
data_CdH20C38(NO2)4
_symmetry_space_group_name_H-M   'P 1'
_cell_length_a   11.86548964
_cell_length_b   13.83518574
_cell_length_c   29.54028961
_cell_angle_alpha   90.00125185
_cell_angle_beta   89.99727082
_cell_angle_gamma   103.19319557
_symmetry_Int_Tables_number   1
_chemical_formula_structural   CdH20C38(NO2)4
_chemical_formula_sum   'Cd4 H80 C152 N16 O32'
_cell_volume   4721.37672671
_cell_formula_units_Z   4
loop_
 _symmetry_equiv_pos_site_id
 _symmetry_equiv_pos_as_xyz
  1  'x, y, z'
loop_
 _atom_site_type_symbol
 _atom_site_label
 _atom_site_symmetry_multiplicity
 _atom_site_fract_x
 _atom_site_fract_y
 _atom_site_fract_z
 _atom_site_occupancy
 _atom_site_pbe_bader_charge
 _atom_site_pbe_bader_spin_density
 _atom_site_pbe_cm5_charge
 _atom_site_pbe_ddec_charge
 _atom_site_pbe_ddec_spin_density
 _atom_site_pbe_ddec_sum_bond_order
 _atom_site_pbe_magmom
Cd  Cd0  1  0.60509813  0.08484432  0.95696456  1  1.278153  0  0.769827  0.876255  0  2.181311  0
Cd  Cd1  1  0.89492000  0.41517160  0.45695592  1  1.277793  0  0.769861  0.876453  0  2.181049  0
Cd  Cd2  1  0.39490478  0.91517006  0.04304173  1  1.278016  0  0.769818  0.876267  0  2.181463  0
Cd  Cd3  1  0.10508072  0.58483386  0.54304190  1  1.27806  0  0.769805  0.876285  0  2.181302  0
H  H4  1  0.58597448  0.08462237  0.79711937  1  0.089058  0  0.102759  0.107331  0  1.009801  0
H  H5  1  0.81373057  0.34794328  0.84776678  1  0.049497  0  0.095222  0.093952  0  1.028855  0
H  H6  1  0.62897831  0.14396017  0.71785596  1  0.055763  0  0.095596  0.091769  0  1.023644  0
H  H7  1  0.85464601  0.41110667  0.76874852  1  0.060629  0  0.097735  0.095195  0  1.01195  0
H  H8  1  0.59586324  0.25042463  0.66652547  1  0.034023  0  0.097115  0.097978  0  1.027997  0
H  H9  1  0.94681326  0.39269533  0.70260676  1  0.038351  0  0.10239  0.101002  0  1.004628  0
H  H10  1  0.64260015  0.29477039  0.58572503  1  0.059  0  0.088844  0.080559  0  1.074241  0
H  H11  1  0.98741164  0.44417310  0.62343000  1  0.142511  0  0.103581  0.11935  0  1.05189  0
H  H12  1  0.87141869  0.07237898  0.96110847  1  0.125811  0  0.119184  0.100741  0  1.017947  0
H  H13  1  0.57551953  0.85400525  0.93630696  1  0.099632  0  0.118406  0.092341  0  1.011937  0
H  H14  1  0.99699615  0.94986423  0.95804872  1  0.094997  0  0.119396  0.136413  0  0.980432  0
H  H15  1  0.68839370  0.72064769  0.93369033  1  0.131929  0  0.119053  0.145387  0  0.987688  0
H  H16  1  0.11655796  0.70929909  0.05566144  1  0.181393  0  0.118593  0.134611  0  1.006757  0
H  H17  1  0.92931479  0.55567300  0.84625253  1  0.114318  0  0.121237  0.125183  0  0.977543  0
H  H18  1  0.23301983  0.58213612  0.05833351  1  0.138453  0  0.1186  0.123367  0  0.988906  0
H  H19  1  0.05389847  0.42980459  0.84798605  1  0.141452  0  0.122558  0.128078  0  0.975382  0
H  H20  1  0.49039948  0.43494086  0.97298872  1  0.085393  0  0.112766  0.132451  0  1.009461  0
H  H21  1  0.19833698  0.19959524  0.93511465  1  0.131551  0  0.120835  0.147964  0  0.987627  0
H  H22  1  0.60841148  0.30721179  0.97729617  1  0.127466  0  0.114191  0.083767  0  1.024088  0
H  H23  1  0.33201763  0.08315476  0.93774766  1  0.120306  0  0.121238  0.093736  0  0.992167  0
H  H24  1  0.91403481  0.41536967  0.29711501  1  0.089541  0  0.102763  0.107371  0  1.009571  0
H  H25  1  0.68625062  0.15206554  0.34776822  1  0.049395  0  0.09527  0.094074  0  1.028842  0
H  H26  1  0.87101085  0.35602487  0.21785255  1  0.055833  0  0.095613  0.091817  0  1.023598  0
H  H27  1  0.64533595  0.08889105  0.26875182  1  0.060502  0  0.097746  0.095242  0  1.012032  0
H  H28  1  0.90414673  0.24956864  0.16652325  1  0.03383  0  0.09717  0.098059  0  1.028174  0
H  H29  1  0.55319495  0.10730007  0.20260881  1  0.038279  0  0.102367  0.100914  0  1.004656  0
H  H30  1  0.85741768  0.20521259  0.08572303  1  0.058971  0  0.088785  0.080402  0  1.074252  0
H  H31  1  0.51259422  0.05582594  0.12342829  1  0.142637  0  0.103577  0.119369  0  1.051907  0
H  H32  1  0.62857749  0.42761079  0.46109459  1  0.125778  0  0.119237  0.100716  0  1.018016  0
H  H33  1  0.92447417  0.64600015  0.43630595  1  0.09954  0  0.118426  0.092331  0  1.011955  0
H  H34  1  0.50299627  0.55012307  0.45804007  1  0.094794  0  0.119334  0.136252  0  0.980516  0
H  H35  1  0.81159198  0.77935161  0.43369785  1  0.131944  0  0.11904  0.145372  0  0.987606  0
H  H36  1  0.38345581  0.79069739  0.55565790  1  0.182538  0  0.118619  0.134662  0  1.00668  0
H  H37  1  0.57066098  0.94430304  0.34624298  1  0.114351  0  0.12131  0.125262  0  0.977557  0
H  H38  1  0.26698549  0.91785436  0.55834088  1  0.138377  0  0.118532  0.123377  0  0.988825  0
H  H39  1  0.44610774  0.07019228  0.34798826  1  0.14108  0  0.12261  0.130556  0  0.972789  0
H  H40  1  0.00958140  0.06504172  0.47298044  1  0.085252  0  0.112754  0.132385  0  1.009567  0
H  H41  1  0.30165593  0.30040233  0.43512844  1  0.131899  0  0.120863  0.148004  0  0.987628  0
H  H42  1  0.89157265  0.19277588  0.47730299  1  0.127035  0  0.114202  0.083791  0  1.024188  0
H  H43  1  0.16798008  0.41683924  0.43778075  1  0.120352  0  0.12127  0.093742  0  0.992239  0
H  H44  1  0.41400682  0.91536578  0.20287812  1  0.089212  0  0.10284  0.10747  0  1.009826  0
H  H45  1  0.18624463  0.65205438  0.15222766  1  0.049149  0  0.095266  0.094123  0  1.028688  0
H  H46  1  0.37101832  0.85601492  0.28213848  1  0.056104  0  0.095475  0.091702  0  1.023783  0
H  H47  1  0.14534321  0.58887939  0.23124220  1  0.060547  0  0.097839  0.095372  0  1.012024  0
H  H48  1  0.40413128  0.74960366  0.33347100  1  0.033575  0  0.097128  0.09789  0  1.028102  0
H  H49  1  0.05318442  0.60729086  0.29740358  1  0.038398  0  0.102394  0.100946  0  1.004588  0
H  H50  1  0.35742572  0.70524139  0.41426906  1  0.058951  0  0.08881  0.08042  0  1.074391  0
H  H51  1  0.01261275  0.55581204  0.37658170  1  0.142717  0  0.103555  0.119364  0  1.051826  0
H  H52  1  0.12858953  0.92762956  0.03889545  1  0.12609  0  0.119202  0.100759  0  1.017971  0
H  H53  1  0.42448079  0.14601574  0.06368815  1  0.099513  0  0.1184  0.092273  0  1.012125  0
H  H54  1  0.00300681  0.05014349  0.04196027  1  0.09487  0  0.11939  0.136439  0  0.980416  0
H  H55  1  0.31160268  0.27937101  0.06629970  1  0.13169  0  0.119039  0.145352  0  0.987823  0
H  H56  1  0.88341965  0.29069122  0.94434146  1  0.181147  0  0.118554  0.134675  0  1.006837  0
H  H57  1  0.07064988  0.44431267  0.15374935  1  0.11422  0  0.121293  0.125291  0  0.977455  0
H  H58  1  0.76694878  0.41785183  0.94166499  1  0.13835  0  0.118564  0.123273  0  0.988926  0
H  H59  1  0.94607914  0.57018572  0.15201448  1  0.141444  0  0.12256  0.130538  0  0.972718  0
H  H60  1  0.50957677  0.56503021  0.02703754  1  0.085081  0  0.112723  0.132351  0  1.009459  0
H  H61  1  0.80166021  0.80039242  0.06487099  1  0.132024  0  0.120862  0.147977  0  0.987608  0
H  H62  1  0.39157204  0.69276826  0.02271283  1  0.127321  0  0.11423  0.083679  0  1.024147  0
H  H63  1  0.66799257  0.91684124  0.06222038  1  0.119064  0  0.121251  0.09375  0  0.992217  0
H  H64  1  0.08599504  0.58462738  0.70288146  1  0.089143  0  0.102842  0.10748  0  1.009784  0
H  H65  1  0.31375053  0.84794511  0.65223366  1  0.049427  0  0.095267  0.094043  0  1.02883  0
H  H66  1  0.12898376  0.64397976  0.78214426  1  0.056002  0  0.095549  0.091734  0  1.023708  0
H  H67  1  0.35465420  0.91111942  0.73124905  1  0.060544  0  0.097814  0.09525  0  1.012084  0
H  H68  1  0.09586725  0.75040155  0.83348270  1  0.03325  0  0.097101  0.09793  0  1.028122  0
H  H69  1  0.44680517  0.89270982  0.79740018  1  0.038359  0  0.102405  0.100991  0  1.004488  0
H  H70  1  0.14257387  0.79476242  0.91427987  1  0.058604  0  0.088824  0.080514  0  1.074278  0
H  H71  1  0.48739520  0.94418157  0.87657901  1  0.142522  0  0.103603  0.119444  0  1.051833  0
H  H72  1  0.37142038  0.57238649  0.53889375  1  0.125728  0  0.119259  0.10079  0  1.017881  0
H  H73  1  0.07552086  0.35399931  0.56369255  1  0.099524  0  0.118405  0.092361  0  1.011905  0
H  H74  1  0.49699257  0.44986150  0.54194354  1  0.094969  0  0.119377  0.136445  0  0.980434  0
H  H75  1  0.18839827  0.22064556  0.56630979  1  0.131941  0  0.119064  0.145427  0  0.987625  0
H  H76  1  0.61658372  0.20931165  0.44433823  1  0.182177  0  0.118518  0.134587  0  1.00679  0
H  H77  1  0.42932215  0.05570288  0.65374739  1  0.114242  0  0.121326  0.1253  0  0.977454  0
H  H78  1  0.73303208  0.08213733  0.44165863  1  0.138432  0  0.118591  0.123359  0  0.988913  0
H  H79  1  0.55390195  0.92983255  0.65201159  1  0.141414  0  0.12258  0.130547  0  0.972616  0
H  H80  1  0.99042628  0.93497495  0.52701332  1  0.085155  0  0.112771  0.132374  0  1.009528  0
H  H81  1  0.69835733  0.69962330  0.56487209  1  0.132275  0  0.120902  0.148079  0  0.987571  0
H  H82  1  0.10844834  0.80724692  0.52270431  1  0.126956  0  0.114232  0.083816  0  1.024254  0
H  H83  1  0.83203112  0.58318488  0.56222587  1  0.120767  0  0.121257  0.093697  0  0.992117  0
C  C84  1  0.67185847  0.17380846  0.87406602  1  1.542992  0  0.187079  0.55779  0  4.239155  0
C  C85  1  0.69780502  0.21243184  0.82698484  1  -0.024584  0  -0.018565  -0.023528  0  3.969344  0
C  C86  1  0.64494649  0.15582945  0.79020246  1  -0.054038  0  -0.083945  -0.085123  0  3.98495  0
C  C87  1  0.77398714  0.30418823  0.81882447  1  -0.0293  0  -0.088476  -0.092869  0  3.999325  0
C  C88  1  0.66835772  0.18996747  0.74622754  1  0.022565  0  -0.092792  -0.130807  0  3.98872  0
C  C89  1  0.79708919  0.33860156  0.77473108  1  -0.106631  0  -0.093868  -0.138157  0  3.991857  0
C  C90  1  0.74480277  0.28195354  0.73756921  1  -0.002688  0  -0.004054  0.073039  0  3.995884  0
C  C91  1  0.76909529  0.31577356  0.69046703  1  -0.000377  0  -0.001578  0.079168  0  3.989596  0
C  C92  1  0.68296563  0.28991104  0.65695029  1  -0.068052  0  -0.096138  -0.138427  0  3.982411  0
C  C93  1  0.87841051  0.37206032  0.67736668  1  -0.079217  0  -0.088065  -0.124967  0  3.95982  0
C  C94  1  0.70765679  0.31541359  0.61204132  1  0.049223  0  -0.096891  -0.093762  0  4.016246  0
C  C95  1  0.90267493  0.39908954  0.63237919  1  -0.034872  0  -0.085853  -0.090416  0  3.962183  0
C  C96  1  0.81788873  0.36885652  0.59901000  1  -0.053069  0  -0.029678  -0.050333  0  4.007158  0
C  C97  1  0.84279520  0.38823233  0.54990976  1  1.52509  0  0.190744  0.555103  0  4.229756  0
C  C98  1  0.83414283  0.99388990  0.95486685  1  0.504754  0  0.050984  0.099746  0  3.932923  0
C  C99  1  0.66915539  0.87143524  0.94079981  1  0.480261  0  0.05249  0.110668  0  3.937021  0
C  C100  1  0.90386601  0.92555134  0.95324845  1  0.053901  0  -0.074971  -0.189768  0  3.924429  0
C  C101  1  0.73175166  0.79791648  0.93915404  1  0.008055  0  -0.075798  -0.194211  0  3.928408  0
C  C102  1  0.85089340  0.82585469  0.94625663  1  0.294407  0  0.109577  0.233641  0  3.999358  0
C  C103  1  0.91447483  0.68968074  0.90910165  1  1.342926  0  0.249853  0.445328  0  4.071713  0
C  C104  1  0.97995669  0.74435702  0.98802597  1  1.340228  0  0.249721  0.442662  0  4.076764  0
C  C105  1  0.04958441  0.66858207  0.98880551  1  -0.008256  0  -0.00044  -0.059533  0  3.978649  0
C  C106  1  0.98279583  0.61279721  0.91201363  1  -0.027953  0  0.00143  -0.058624  0  3.980758  0
C  C107  1  0.05022485  0.60621491  0.95087622  1  -0.006758  0  0.006654  0.030344  0  4.000165  0
C  C108  1  0.11461256  0.65956372  0.02697929  1  0.026674  0  -0.053469  -0.041569  0  3.878143  0
C  C109  1  0.98313194  0.54928364  0.87553287  1  0.020399  0  -0.05659  -0.066924  0  3.920695  0
C  C110  1  0.18231317  0.58866660  0.02821429  1  -0.033301  0  -0.058159  -0.063465  0  3.911202  0
C  C111  1  0.05243446  0.47964029  0.87645869  1  -0.0488  0  -0.055982  -0.06246  0  3.907989  0
C  C112  1  0.18638460  0.52770322  0.99109303  1  -0.061054  0  -0.008145  -0.07686  0  3.998618  0
C  C113  1  0.12139725  0.47324924  0.91395745  1  0.03624  0  -0.000481  -0.057943  0  3.973632  0
C  C114  1  0.12039884  0.53544583  0.95186373  1  0.014954  0  0.005184  0.0344  0  3.99991  0
C  C115  1  0.25837003  0.45366979  0.99313262  1  1.312178  0  0.24502  0.43738  0  4.084929  0
C  C116  1  0.19644494  0.40131251  0.91352615  1  1.313584  0  0.251242  0.448383  0  4.0595  0
C  C117  1  0.33412144  0.32603603  0.95449719  1  0.242307  0  0.110159  0.235225  0  3.983619  0
C  C118  1  0.45080357  0.35747307  0.96601381  1  0.061809  0  -0.077909  -0.192895  0  3.928791  0
C  C119  1  0.28894547  0.22641966  0.94398906  1  0.081064  0  -0.07285  -0.189665  0  3.919987  0
C  C120  1  0.51718305  0.28677751  0.96798917  1  0.48361  0  0.049851  0.106116  0  3.949529  0
C  C121  1  0.36282288  0.16153643  0.94596437  1  0.478169  0  0.055865  0.114214  0  3.932802  0
C  C122  1  0.82814514  0.32619456  0.37406258  1  1.542231  0  0.186957  0.55771  0  4.239141  0
C  C123  1  0.80219727  0.28756287  0.32698423  1  -0.024127  0  -0.01862  -0.023792  0  3.969416  0
C  C124  1  0.85506451  0.34416027  0.29019996  1  -0.054421  0  -0.084036  -0.085157  0  3.984664  0
C  C125  1  0.72601413  0.19580631  0.31882552  1  -0.029218  0  -0.088376  -0.092681  0  3.999175  0
C  C126  1  0.83164669  0.31001761  0.24622685  1  0.005402  0  -0.092714  -0.130797  0  3.98859  0
C  C127  1  0.70289952  0.16139491  0.27473190  1  -0.106899  0  -0.093969  -0.138315  0  3.991973  0
C  C128  1  0.75520405  0.21803141  0.23756985  1  0.014374  0  -0.004111  0.072885  0  3.995979  0
C  C129  1  0.73091928  0.18420914  0.19046849  1  0.000439  0  -0.0015  0.079458  0  3.989485  0
C  C130  1  0.81704820  0.21007397  0.15695000  1  -0.06827  0  -0.096203  -0.138649  0  3.982739  0
C  C131  1  0.62160104  0.12792948  0.17737005  1  -0.078984  0  -0.088184  -0.124984  0  3.959705  0
C  C132  1  0.79235634  0.18456981  0.11203994  1  0.049458  0  -0.096707  -0.093356  0  4.016132  0
C  C133  1  0.59733543  0.10090013  0.13238313  1  -0.035024  0  -0.085651  -0.090258  0  3.962032  0
C  C134  1  0.68212849  0.13112523  0.09901059  1  -0.053683  0  -0.029846  -0.050767  0  4.007534  0
C  C135  1  0.65721077  0.11174461  0.04991341  1  1.525133  0  0.190545  0.55507  0  4.229831  0
C  C136  1  0.66585349  0.50610183  0.45485402  1  0.50484  0  0.051064  0.099884  0  3.932519  0
C  C137  1  0.83084156  0.62856437  0.44079609  1  0.480071  0  0.052543  0.110817  0  3.937223  0
C  C138  1  0.59612543  0.57443364  0.45323583  1  0.054141  0  -0.074949  -0.189622  0  3.92433  0
C  C139  1  0.76823599  0.70207556  0.43914941  1  0.008722  0  -0.075919  -0.194433  0  3.928746  0
C  C140  1  0.64909069  0.67413225  0.44624132  1  0.294318  0  0.109613  0.233667  0  3.999872  0
C  C141  1  0.58553114  0.81031693  0.40908796  1  1.343408  0  0.249885  0.445551  0  4.07166  0
C  C142  1  0.52005128  0.75563553  0.48801721  1  1.339951  0  0.249831  0.442864  0  4.076184  0
C  C143  1  0.45041421  0.83140983  0.48879918  1  -0.008086  0  -0.000393  -0.059616  0  3.978771  0
C  C144  1  0.51719580  0.88718773  0.41200497  1  -0.027832  0  0.001409  -0.058681  0  3.98084  0
C  C145  1  0.44977153  0.89377845  0.45087274  1  -0.006735  0  0.006735  0.030345  0  4.000279  0
C  C146  1  0.38540013  0.84043885  0.52697771  1  0.025394  0  -0.053544  -0.041733  0  3.878269  0
C  C147  1  0.51685852  0.95069393  0.37552606  1  0.019458  0  -0.056676  -0.06707  0  3.921908  0
C  C148  1  0.31769222  0.91133070  0.52821595  1  -0.03324  0  -0.058055  -0.063338  0  3.910907  0
C  C149  1  0.44757507  0.02035274  0.37645751  1  -0.048335  0  -0.056184  -0.064864  0  3.908518  0
C  C150  1  0.31362201  0.97230141  0.49109489  1  -0.061103  0  -0.008168  -0.076839  0  3.998354  0
C  C151  1  0.37860816  0.02674369  0.41395565  1  0.035248  0  -0.00031  -0.057907  0  3.974159  0
C  C152  1  0.37960514  0.96455137  0.45186355  1  0.016211  0  0.005115  0.034392  0  3.999837  0
C  C153  1  0.24163709  0.04634094  0.49313980  1  1.312054  0  0.244831  0.437064  0  4.085271  0
C  C154  1  0.30355809  0.09867742  0.41353320  1  1.314809  0  0.251466  0.448773  0  4.058836  0
C  C155  1  0.16586992  0.17395523  0.45450483  1  0.242805  0  0.110133  0.235315  0  3.983256  0
C  C156  1  0.04917814  0.14251382  0.46601371  1  0.062702  0  -0.077885  -0.192848  0  3.92859  0
C  C157  1  0.21104676  0.27357142  0.44400470  1  0.080408  0  -0.072904  -0.189665  0  3.91984  0
C  C158  1  0.98280192  0.21321369  0.46799676  1  0.482868  0  0.049889  0.106319  0  3.948991  0
C  C159  1  0.13716750  0.33845465  0.44598196  1  0.47838  0  0.056065  0.114433  0  3.932597  0
C  C160  1  0.32813319  0.82620130  0.12593316  1  1.542395  0  0.186999  0.557602  0  4.23939  0
C  C161  1  0.30218407  0.78755717  0.17301163  1  -0.024192  0  -0.01873  -0.023714  0  3.969147  0
C  C162  1  0.35504931  0.84415597  0.20979672  1  -0.053913  0  -0.084003  -0.085283  0  3.984993  0
C  C163  1  0.22600370  0.69579416  0.18116963  1  -0.029327  0  -0.088469  -0.092829  0  3.999197  0
C  C164  1  0.33164170  0.81001210  0.25376926  1  0.005418  0  -0.092497  -0.130473  0  3.988837  0
C  C165  1  0.20290165  0.66138083  0.22526438  1  -0.107081  0  -0.094154  -0.138615  0  3.992169  0
C  C166  1  0.25519556  0.71802158  0.26242658  1  0.014678  0  -0.003965  0.073005  0  3.995758  0
C  C167  1  0.23090287  0.68421116  0.30953181  1  -0.000288  0  -0.001629  0.079297  0  3.989237  0
C  C168  1  0.31703273  0.71009512  0.34304449  1  -0.067507  0  -0.096057  -0.138341  0  3.982212  0
C  C169  1  0.12159194  0.62792817  0.32264063  1  -0.07933  0  -0.088028  -0.12489  0  3.959761  0
C  C170  1  0.29236074  0.68459510  0.38795616  1  0.048993  0  -0.096792  -0.093326  0  4.015833  0
C  C171  1  0.09735236  0.60089713  0.36762947  1  -0.034978  0  -0.085705  -0.090313  0  3.961998  0
C  C172  1  0.18214660  0.63113545  0.40099527  1  -0.053023  0  -0.029969  -0.050952  0  4.007239  0
C  C173  1  0.15724823  0.61175829  0.45009483  1  1.523847  0  0.190766  0.555332  0  4.229706  0
C  C174  1  0.16586358  0.00612157  0.04513774  1  0.504241  0  0.05108  0.099884  0  3.932992  0
C  C175  1  0.33084939  0.12857990  0.05919802  1  0.480628  0  0.05243  0.110794  0  3.937269  0
C  C176  1  0.09613563  0.07445784  0.04675343  1  0.05461  0  -0.075097  -0.189958  0  3.924778  0
C  C177  1  0.26825228  0.20209865  0.06084006  1  0.008433  0  -0.075845  -0.194393  0  3.928479  0
C  C178  1  0.14910605  0.17415593  0.05374220  1  0.292812  0  0.109862  0.234116  0  3.999108  0
C  C179  1  0.08550491  0.31031478  0.09090023  1  1.343035  0  0.249994  0.445986  0  4.071344  0
C  C180  1  0.02002377  0.25564147  0.01197558  1  1.339586  0  0.24984  0.442862  0  4.076495  0
C  C181  1  0.95037941  0.33140359  0.01119875  1  -0.008263  0  -0.00056  -0.059707  0  3.978576  0
C  C182  1  0.01717591  0.38718636  0.08798588  1  -0.027763  0  0.001442  -0.058901  0  3.981119  0
C  C183  1  0.94974878  0.39377977  0.04912398  1  -0.006879  0  0.006746  0.030568  0  4.000464  0
C  C184  1  0.88535501  0.34042347  0.97302496  1  0.027646  0  -0.053417  -0.041739  0  3.878171  0
C  C185  1  0.01684850  0.45069415  0.12446699  1  0.019711  0  -0.056679  -0.067117  0  3.92206  0
C  C186  1  0.81766384  0.41132814  0.97178658  1  -0.033981  0  -0.058155  -0.06326  0  3.911185  0
C  C187  1  0.94755795  0.52034508  0.12354624  1  -0.049201  0  -0.056032  -0.064717  0  3.908305  0
C  C188  1  0.81359525  0.47228934  0.00891224  1  -0.060872  0  -0.008238  -0.07703  0  3.998527  0
C  C189  1  0.87859276  0.52674349  0.08604985  1  0.037275  0  -0.000295  -0.057695  0  3.973975  0
C  C190  1  0.87957454  0.46454442  0.04814256  1  0.015162  0  0.005214  0.034384  0  4.000102  0
C  C191  1  0.74160613  0.54632493  0.00687232  1  1.31217  0  0.245049  0.437604  0  4.084796  0
C  C192  1  0.80351990  0.59866355  0.08647979  1  1.314134  0  0.251253  0.448132  0  4.060074  0
C  C193  1  0.66585876  0.67394767  0.04551214  1  0.242425  0  0.110231  0.235136  0  3.984112  0
C  C194  1  0.54916980  0.64250682  0.03400365  1  0.062129  0  -0.07788  -0.192839  0  3.928619  0
C  C195  1  0.71104651  0.77356053  0.05600097  1  0.081132  0  -0.072986  -0.189541  0  3.920055  0
C  C196  1  0.48280035  0.71320550  0.03201745  1  0.482884  0  0.049853  0.106471  0  3.948813  0
C  C197  1  0.63717619  0.83845200  0.05401754  1  0.479284  0  0.056034  0.11425  0  3.932996  0
C  C198  1  0.17185808  0.67382795  0.62593355  1  1.543597  0  0.186954  0.557851  0  4.239109  0
C  C199  1  0.19782056  0.71244361  0.67301664  1  -0.024122  0  -0.018596  -0.02356  0  3.969394  0
C  C200  1  0.14495560  0.65584181  0.70979990  1  -0.053766  0  -0.084063  -0.085384  0  3.985108  0
C  C201  1  0.27399729  0.80420154  0.68117704  1  -0.029531  0  -0.088635  -0.093052  0  3.999375  0
C  C202  1  0.16836478  0.68998359  0.75377334  1  0.005368  0  -0.092569  -0.130589  0  3.988851  0
C  C203  1  0.29710126  0.83861426  0.72527100  1  -0.106829  0  -0.093938  -0.138157  0  3.991909  0
C  C204  1  0.24480429  0.78197417  0.76243238  1  0.014467  0  -0.004004  0.073002  0  3.996096  0
C  C205  1  0.26908795  0.81578164  0.80953678  1  -0.000325  0  -0.001548  0.079431  0  3.989115  0
C  C206  1  0.18295961  0.78990204  0.84305459  1  -0.067203  0  -0.09621  -0.138574  0  3.982458  0
C  C207  1  0.37840131  0.87207232  0.82263929  1  -0.079229  0  -0.08813  -0.125082  0  3.959462  0
C  C208  1  0.20764151  0.81540677  0.88796465  1  0.049052  0  -0.096716  -0.093486  0  4.01583  0
C  C209  1  0.40265669  0.89909781  0.86762756  1  -0.034755  0  -0.085747  -0.090356  0  3.961981  0
C  C210  1  0.31786580  0.86886091  0.90099773  1  -0.052758  0  -0.029937  -0.05076  0  4.007221  0
C  C211  1  0.34277942  0.88824886  0.95009321  1  1.524258  0  0.190634  0.555161  0  4.229995  0
C  C212  1  0.33414401  0.49389397  0.54513635  1  0.504689  0  0.050994  0.099932  0  3.932639  0
C  C213  1  0.16915746  0.37143071  0.55920139  1  0.480548  0  0.052476  0.11074  0  3.937035  0
C  C214  1  0.40386500  0.42555392  0.54674981  1  0.053777  0  -0.075052  -0.189951  0  3.924452  0
C  C215  1  0.23175564  0.29791350  0.56084638  1  0.007943  0  -0.075915  -0.194404  0  3.928635  0
C  C216  1  0.35089774  0.32585749  0.55374770  1  0.294939  0  0.109615  0.233648  0  3.999603  0
C  C217  1  0.41447986  0.18969609  0.59090174  1  1.342878  0  0.249896  0.445549  0  4.071619  0
C  C218  1  0.47998209  0.24437933  0.51197926  1  1.339734  0  0.249655  0.44238  0  4.076681  0
C  C219  1  0.54961511  0.16860570  0.51119865  1  -0.009286  0  -0.000602  -0.059787  0  3.97901  0
C  C220  1  0.48280662  0.11281777  0.58798676  1  -0.028007  0  0.001463  -0.058596  0  3.980663  0
C  C221  1  0.55024606  0.10623394  0.54912305  1  -0.006744  0  0.00683  0.030399  0  4.000207  0
C  C222  1  0.61463378  0.15957823  0.47302011  1  0.026414  0  -0.053296  -0.041489  0  3.877974  0
C  C223  1  0.48313434  0.04930697  0.62446601  1  0.020058  0  -0.056804  -0.067321  0  3.922065  0
C  C224  1  0.68232185  0.08867424  0.47177951  1  -0.033666  0  -0.058258  -0.063427  0  3.911277  0
C  C225  1  0.55243702  0.97966474  0.62354031  1  -0.049504  0  -0.056006  -0.064666  0  3.908015  0
C  C226  1  0.68638954  0.02771384  0.50890293  1  -0.061009  0  -0.008152  -0.076934  0  3.998465  0
C  C227  1  0.62140012  0.97326854  0.58604048  1  0.036986  0  -0.000464  -0.057853  0  3.974104  0
C  C228  1  0.62040720  0.03546020  0.54813427  1  0.01579  0  0.00518  0.034553  0  3.999927  0
C  C229  1  0.75837307  0.95367207  0.50685836  1  1.312259  0  0.244787  0.437037  0  4.085526  0
C  C230  1  0.69645104  0.90133484  0.58646699  1  1.314041  0  0.251501  0.448667  0  4.058776  0
C  C231  1  0.83415246  0.82606980  0.54550518  1  0.242561  0  0.110225  0.235492  0  3.983294  0
C  C232  1  0.95083849  0.85750151  0.53398310  1  0.062511  0  -0.078064  -0.193043  0  3.928906  0
C  C233  1  0.78896650  0.72645421  0.55599482  1  0.079989  0  -0.07285  -0.189653  0  3.919713  0
C  C234  1  0.01721665  0.78680610  0.53200682  1  0.482769  0  0.049827  0.106181  0  3.948876  0
C  C235  1  0.86284080  0.66156794  0.55401823  1  0.47846  0  0.055964  0.114341  0  3.932463  0
N  N236  1  0.71874393  0.96703450  0.94937828  1  -1.214722  0  -0.322156  -0.231203  0  3.49514  0
N  N237  1  0.91829243  0.75177274  0.94764767  1  -1.173469  0  -0.227857  -0.230395  0  3.559011  0
N  N238  1  0.26134696  0.39605990  0.95377612  1  -1.174687  0  -0.225887  -0.224764  0  3.536938  0
N  N239  1  0.47429377  0.19059342  0.95830365  1  -1.215412  0  -0.322059  -0.233411  0  3.502912  0
N  N240  1  0.78125352  0.53296677  0.44936606  1  -1.214684  0  -0.322232  -0.231287  0  3.495185  0
N  N241  1  0.58169221  0.74821349  0.44763056  1  -1.172854  0  -0.227973  -0.230574  0  3.558989  0
N  N242  1  0.23865064  0.10393588  0.45378346  1  -1.175442  0  -0.225814  -0.224778  0  3.536939  0
N  N243  1  0.02569397  0.30940155  0.45832017  1  -1.215216  0  -0.322293  -0.23398  0  3.502926  0
N  N244  1  0.28126375  0.03298217  0.05061988  1  -1.214466  0  -0.322229  -0.231296  0  3.495305  0
N  N245  1  0.08169699  0.24823476  0.05235184  1  -1.172351  0  -0.228036  -0.230908  0  3.559209  0
N  N246  1  0.73862951  0.60393261  0.04622915  1  -1.174907  0  -0.226033  -0.224774  0  3.537608  0
N  N247  1  0.52570077  0.80939716  0.04168775  1  -1.215132  0  -0.322134  -0.233797  0  3.502827  0
N  N248  1  0.21874472  0.46703200  0.55062669  1  -1.214712  0  -0.322143  -0.231317  0  3.495106  0
N  N249  1  0.41829949  0.25177926  0.55235677  1  -1.172855  0  -0.22787  -0.230411  0  3.559016  0
N  N250  1  0.76135746  0.89607561  0.54621470  1  -1.175085  0  -0.225784  -0.224646  0  3.53698  0
N  N251  1  0.97431808  0.69062258  0.54168917  1  -1.215065  0  -0.32213  -0.233725  0  3.502504  0
O  O252  1  0.72209702  0.22318693  0.90766764  1  -1.189659  0  -0.338392  -0.579796  0  2.1783  0
O  O253  1  0.59830576  0.09081323  0.87843633  1  -1.162399  0  -0.338196  -0.564135  0  2.239006  0
O  O254  1  0.94015730  0.44425960  0.53772356  1  -1.192555  0  -0.338273  -0.587454  0  2.363756  0
O  O255  1  0.76853904  0.34684475  0.52068420  1  -1.161001  0  -0.330165  -0.551073  0  2.178377  0
O  O256  1  0.97347917  0.79833573  0.02061476  1  -1.115365  0  -0.257146  -0.432987  0  2.158828  0
O  O257  1  0.85955891  0.70223965  0.87530347  1  -1.089952  0  -0.2593  -0.40945  0  2.066247  0
O  O258  1  0.20511677  0.34944052  0.88070917  1  -1.084728  0  -0.254021  -0.402502  0  2.069815  0
O  O259  1  0.31308322  0.44147821  0.02735123  1  -1.122188  0  -0.266777  -0.441168  0  2.136186  0
O  O260  1  0.77790880  0.27683007  0.40766782  1  -1.189349  0  -0.338322  -0.579702  0  2.178356  0
O  O261  1  0.90171628  0.40918056  0.37843152  1  -1.162214  0  -0.338144  -0.564101  0  2.238941  0
O  O262  1  0.55983152  0.05574271  0.03773594  1  -1.192514  0  -0.338098  -0.587317  0  2.363876  0
O  O263  1  0.73146684  0.15311462  0.02068152  1  -1.160957  0  -0.330109  -0.550987  0  2.178344  0
O  O264  1  0.52655078  0.70167713  0.52061091  1  -1.115567  0  -0.257278  -0.433036  0  2.158389  0
O  O265  1  0.64047730  0.79776970  0.37529472  1  -1.090721  0  -0.25916  -0.409386  0  2.066383  0
O  O266  1  0.29489587  0.15055634  0.38071914  1  -1.085178  0  -0.254257  -0.403037  0  2.069898  0
O  O267  1  0.18691917  0.05852360  0.52735991  1  -1.121994  0  -0.266732  -0.441043  0  2.136289  0
O  O268  1  0.27791080  0.77683713  0.09232443  1  -1.189601  0  -0.338285  -0.579703  0  2.178551  0
O  O269  1  0.40168185  0.90919720  0.12156826  1  -1.162133  0  -0.338227  -0.564002  0  2.23899  0
O  O270  1  0.05988426  0.55573025  0.46228137  1  -1.192158  0  -0.338236  -0.587393  0  2.363445  0
O  O271  1  0.23150549  0.65315032  0.47931734  1  -1.159947  0  -0.330232  -0.551196  0  2.178677  0
O  O272  1  0.02652145  0.20168305  0.97937968  1  -1.115215  0  -0.257201  -0.433005  0  2.158614  0
O  O273  1  0.14044241  0.29776139  0.12469435  1  -1.08989  0  -0.259428  -0.409773  0  2.065866  0
O  O274  1  0.79483077  0.65052344  0.11929881  1  -1.085416  0  -0.254064  -0.402663  0  2.070638  0
O  O275  1  0.68687073  0.55849472  0.97265675  1  -1.122111  0  -0.266802  -0.441308  0  2.135998  0
O  O276  1  0.22210584  0.72318745  0.59232899  1  -1.18975  0  -0.338207  -0.579721  0  2.17843  0
O  O277  1  0.09829763  0.59083399  0.62156529  1  -1.162956  0  -0.338265  -0.564204  0  2.238842  0
O  O278  1  0.44014051  0.94427635  0.96227373  1  -1.192514  0  -0.338186  -0.587287  0  2.363566  0
O  O279  1  0.26853409  0.84686423  0.97932307  1  -1.160504  0  -0.330149  -0.551107  0  2.17856  0
O  O280  1  0.47350534  0.29835140  0.47938894  1  -1.115394  0  -0.256983  -0.432634  0  2.158812  0
O  O281  1  0.35953885  0.20224710  0.62469599  1  -1.090115  0  -0.259305  -0.409486  0  2.066291  0
O  O282  1  0.70511193  0.84945738  0.61928105  1  -1.084872  0  -0.254243  -0.40305  0  2.069963  0
O  O283  1  0.81308868  0.94148346  0.47263791  1  -1.122106  0  -0.266737  -0.441085  0  2.136419  0
