# generated using pymatgen
data_ZnH8C17(O2F3)2
_symmetry_space_group_name_H-M   'P 1'
_cell_length_a   7.60341610
_cell_length_b   21.32804217
_cell_length_c   21.32800289
_cell_angle_alpha   120.00105416
_cell_angle_beta   89.99928260
_cell_angle_gamma   90.00066582
_symmetry_Int_Tables_number   1
_chemical_formula_structural   ZnH8C17(O2F3)2
_chemical_formula_sum   'Zn6 H48 C102 O24 F36'
_cell_volume   2995.26987239
_cell_formula_units_Z   6
loop_
 _symmetry_equiv_pos_site_id
 _symmetry_equiv_pos_as_xyz
  1  'x, y, z'
loop_
 _atom_site_type_symbol
 _atom_site_label
 _atom_site_symmetry_multiplicity
 _atom_site_fract_x
 _atom_site_fract_y
 _atom_site_fract_z
 _atom_site_occupancy
 _atom_site_pbe_bader_charge
 _atom_site_pbe_bader_spin_density
 _atom_site_pbe_cm5_charge
 _atom_site_pbe_ddec_charge
 _atom_site_pbe_ddec_spin_density
 _atom_site_pbe_ddec_sum_bond_order
 _atom_site_pbe_magmom
Zn  Zn0  1  0.85093086  0.73089962  0.36548951  1  1.315537  0  0.691778  0.917906  0  2.377066  0
Zn  Zn1  1  0.51796264  0.03212675  0.06419771  1  1.31438  0  0.691617  0.917593  0  2.37735  0
Zn  Zn2  1  0.51759791  0.63458940  0.26910380  1  1.315717  0  0.691683  0.917782  0  2.377445  0
Zn  Zn3  1  0.18463233  0.03207057  0.96787563  1  1.317103  0  0.691611  0.917579  0  2.377256  0
Zn  Zn4  1  0.18426581  0.63451465  0.36541621  1  1.318476  0  0.691781  0.917943  0  2.377038  0
Zn  Zn5  1  0.85129593  0.93580876  0.96793183  1  1.314933  0  0.691591  0.917598  0  2.377326  0
H  H6  1  0.05520160  0.92404737  0.32249387  1  0.080854  0  0.10492  0.11431  0  0.992988  0
H  H7  1  0.51123498  0.80958464  0.50825495  1  0.113039  0  0.106967  0.115307  0  1.010196  0
H  H8  1  0.17900505  0.96895002  0.14313828  1  0.117091  0  0.107155  0.115474  0  1.00937  0
H  H9  1  0.98916482  0.08085760  0.82120862  1  0.105098  0  0.10638  0.115694  0  0.997296  0
H  H10  1  0.52372905  0.96861067  0.82558757  1  0.09248  0  0.106921  0.115192  0  1.010301  0
H  H11  1  0.04701257  0.92639785  0.51173229  1  0.118867  0  0.106207  0.115564  0  0.997341  0
H  H12  1  0.71264358  0.08035632  0.25964321  1  0.114058  0  0.106295  0.115241  0  0.997354  0
H  H13  1  0.19048799  0.80977931  0.30190446  1  0.117042  0  0.106778  0.115406  0  1.009651  0
H  H14  1  0.31454117  0.98977628  0.25740136  1  0.087024  0  0.104979  0.114233  0  0.993594  0
H  H15  1  0.64681767  0.92380114  0.60180495  1  0.071402  0  0.104837  0.114043  0  0.99235  0
H  H16  1  0.18044855  0.04056159  0.60395948  1  0.120391  0  0.093457  0.106203  0  1.04071  0
H  H17  1  0.38818536  0.98932245  0.73205665  1  0.070461  0  0.104539  0.113532  0  0.993261  0
H  H18  1  0.65574327  0.92639393  0.41439567  1  0.11119  0  0.106355  0.115426  0  0.997621  0
H  H19  1  0.52257399  0.04055149  0.43627631  1  0.102397  0  0.093735  0.106306  0  1.04099  0
H  H20  1  0.85583197  0.10278927  0.72898691  1  0.102736  0  0.093587  0.106161  0  1.040924  0
H  H21  1  0.84604909  0.10239767  0.37380525  1  0.120527  0  0.093807  0.106058  0  1.040543  0
H  H22  1  0.72186090  0.39844510  0.07595159  1  0.078445  0  0.104919  0.114288  0  0.992895  0
H  H23  1  0.17788327  0.69867032  0.19041261  1  0.107294  0  0.106939  0.115299  0  1.010227  0
H  H24  1  0.84567873  0.17419240  0.03104829  1  0.108169  0  0.107116  0.115434  0  1.009383  0
H  H25  1  0.65582359  0.74034845  0.91913715  1  0.112929  0  0.106376  0.115697  0  0.997393  0
H  H26  1  0.19040137  0.85697783  0.03139277  1  0.060794  0  0.106919  0.115166  0  1.010317  0
H  H27  1  0.71366501  0.58533483  0.07360290  1  0.109557  0  0.10619  0.115554  0  0.997503  0
H  H28  1  0.37930725  0.17928651  0.91965080  1  0.103651  0  0.106271  0.115197  0  0.997408  0
H  H29  1  0.85714568  0.49212215  0.19021556  1  0.122704  0  0.106783  0.115457  0  1.009748  0
H  H30  1  0.98122362  0.26762611  0.01021856  1  0.098805  0  0.104968  0.114228  0  0.993586  0
H  H31  1  0.31347923  0.67800284  0.07619978  1  0.073775  0  0.10481  0.114013  0  0.992259  0
H  H32  1  0.84709854  0.56339357  0.95943805  1  0.10156  0  0.093443  0.106176  0  1.04069  0
H  H33  1  0.05485555  0.74273187  0.01068008  1  0.078498  0  0.104546  0.113554  0  0.99315  0
H  H34  1  0.32240641  0.48800481  0.07360807  1  0.117613  0  0.106351  0.11543  0  0.997565  0
H  H35  1  0.18923232  0.39572616  0.95944876  1  0.102821  0  0.093738  0.106352  0  1.040983  0
H  H36  1  0.52248996  0.62619373  0.89720604  1  0.103689  0  0.093599  0.106133  0  1.041009  0
H  H37  1  0.51272020  0.27140800  0.89760793  1  0.101747  0  0.093775  0.106023  0  1.040621  0
H  H38  1  0.38852060  0.67749950  0.60155621  1  0.085265  0  0.10493  0.114307  0  0.992927  0
H  H39  1  0.84456782  0.49174226  0.30132311  1  0.105348  0  0.106957  0.115282  0  1.010083  0
H  H40  1  0.51235342  0.85685777  0.82581519  1  0.110199  0  0.107124  0.115448  0  1.009417  0
H  H41  1  0.32247317  0.17878880  0.25965456  1  0.110887  0  0.106428  0.115793  0  0.997309  0
H  H42  1  0.85705589  0.17440947  0.14301801  1  0.106217  0  0.106946  0.115281  0  1.010248  0
H  H43  1  0.38032447  0.48827169  0.41465783  1  0.13041  0  0.106188  0.115576  0  0.9974  0
H  H44  1  0.04597573  0.74035954  0.82071408  1  0.111562  0  0.106259  0.115214  0  0.997488  0
H  H45  1  0.52381306  0.69809399  0.50788555  1  0.118716  0  0.106773  0.115397  0  1.009696  0
H  H46  1  0.64789490  0.74259269  0.73237932  1  0.075195  0  0.10494  0.11422  0  0.993539  0
H  H47  1  0.98013397  0.39819480  0.32199174  1  0.091891  0  0.104857  0.114093  0  0.992414  0
H  H48  1  0.51375473  0.39604451  0.43659531  1  0.104314  0  0.093482  0.106164  0  1.040762  0
H  H49  1  0.72150713  0.26794409  0.25725945  1  0.087577  0  0.104554  0.113565  0  0.99307  0
H  H50  1  0.98907836  0.58561075  0.51199795  1  0.11832  0  0.106355  0.115459  0  0.997535  0
H  H51  1  0.85590600  0.56372472  0.60427256  1  0.099331  0  0.093746  0.106293  0  1.040998  0
H  H52  1  0.18912341  0.27101620  0.37380691  1  0.101879  0  0.093591  0.106015  0  1.04104  0
H  H53  1  0.17938131  0.62619460  0.72859218  1  0.072927  0  0.093821  0.106052  0  1.040665  0
C  C54  1  0.18432084  0.79266422  0.44870577  1  1.544446  0  0.226609  0.60329  0  4.163333  0
C  C55  1  0.85123511  0.01074367  0.88471640  1  1.54997  0  0.227275  0.605066  0  4.161915  0
C  C56  1  0.51778460  0.79278481  0.34418722  1  1.539614  0  0.226846  0.60327  0  4.163968  0
C  C57  1  0.85105624  0.01062096  0.12605486  1  1.554327  0  0.227205  0.60552  0  4.16105  0
C  C58  1  0.43300781  0.86085334  0.35612825  1  -0.05497  0  -0.019201  -0.046634  0  3.984953  0
C  C59  1  0.76635338  0.02272023  0.82862431  1  0.016954  0  -0.019635  -0.048244  0  3.98634  0
C  C60  1  0.26920781  0.86075352  0.50479212  1  0.081687  0  -0.019307  -0.046174  0  3.983179  0
C  C61  1  0.93587370  0.02261136  0.19413605  1  -0.013851  0  -0.019597  -0.047861  0  3.984708  0
C  C62  1  0.18724323  0.92491263  0.34267636  1  -0.097315  0  -0.089394  -0.126477  0  3.962  0
C  C63  1  0.43884427  0.86032535  0.53021034  1  -0.016914  0  -0.078962  -0.072456  0  3.946459  0
C  C64  1  0.10611108  0.99733472  0.19379364  1  -0.069818  0  -0.079295  -0.071982  0  3.946945  0
C  C65  1  0.85767658  0.06063459  0.80103253  1  -0.017779  0  -0.078869  -0.06872  0  3.949155  0
C  C66  1  0.59639592  0.99717195  0.80345162  1  0.014078  0  -0.079164  -0.072273  0  3.948098  0
C  C67  1  0.17815721  0.92629707  0.53214470  1  -0.114408  0  -0.078781  -0.06934  0  3.949506  0
C  C68  1  0.84432354  0.06029524  0.25961020  1  -0.105083  0  -0.078486  -0.068387  0  3.949007  0
C  C69  1  0.26315565  0.86048369  0.33050071  1  0.046494  0  -0.078779  -0.072294  0  3.946633  0
C  C70  1  0.61196447  0.04706295  0.72306770  1  -0.068091  0  -0.013296  0.088161  0  3.943607  0
C  C71  1  0.18221246  0.00966369  0.25824016  1  0.026937  0  -0.089748  -0.1276  0  3.962512  0
C  C72  1  0.51490232  0.92474190  0.58241119  1  -0.024052  0  -0.089371  -0.126262  0  3.960523  0
C  C73  1  0.09045317  0.04715017  0.32408051  1  -0.086932  0  -0.012533  0.08955  0  3.943933  0
C  C74  1  0.25443884  0.99068990  0.58444148  1  -0.064669  0  -0.096514  -0.138671  0  3.981482  0
C  C75  1  0.51784218  0.06008932  0.66667412  1  0.059138  0  -0.009543  -0.270242  0  3.83824  0
C  C76  1  0.52032693  0.00942474  0.75127888  1  -0.040423  0  -0.088797  -0.125199  0  3.960889  0
C  C77  1  0.18479398  0.06021720  0.39347164  1  0.050794  0  -0.009358  -0.272349  0  3.842309  0
C  C78  1  0.52438950  0.92633891  0.39406405  1  0.025392  0  -0.07859  -0.068679  0  3.949353  0
C  C79  1  0.44823903  0.99074628  0.40615155  1  -0.055648  0  -0.097164  -0.139099  0  3.980823  0
C  C80  1  0.78142117  0.07273591  0.74873641  1  -0.040005  0  -0.096541  -0.138593  0  3.980029  0
C  C81  1  0.64751262  0.08147331  0.62346951  1  1.71565  0  0.302842  0.674805  0  3.970863  0
C  C82  1  0.92065804  0.07251996  0.32403524  1  0.038526  0  -0.097066  -0.138263  0  3.980045  0
C  C83  1  0.38833752  0.12475956  0.70981775  1  1.722411  0  0.302713  0.677255  0  3.969447  0
C  C84  1  0.27888008  0.99076579  0.38039180  1  -0.02293  0  -0.012946  0.088805  0  3.944625  0
C  C85  1  0.42358999  0.99064721  0.61036320  1  -0.06328  0  -0.01304  0.088057  0  3.944885  0
C  C86  1  0.31447847  0.12481779  0.41488028  1  1.720658  0  0.30242  0.677066  0  3.970941  0
C  C87  1  0.05537243  0.08177279  0.45818247  1  1.715546  0  0.30264  0.676453  0  3.971054  0
C  C88  1  0.85097317  0.65604248  0.20733385  1  1.549476  0  0.226695  0.603371  0  4.16306  0
C  C89  1  0.51790889  0.87397624  0.98925950  1  1.557491  0  0.227237  0.605074  0  4.16189  0
C  C90  1  0.18442240  0.55140474  0.20722457  1  1.570108  0  0.2269  0.603191  0  4.163922  0
C  C91  1  0.51773095  0.11543549  0.98938170  1  1.552908  0  0.227087  0.605121  0  4.161315  0
C  C92  1  0.09967261  0.49527578  0.13914876  1  -0.01632  0  -0.019165  -0.046491  0  3.98485  0
C  C93  1  0.43302247  0.80590279  0.97727939  1  0.054123  0  -0.019578  -0.048164  0  3.986167  0
C  C94  1  0.93586231  0.64403623  0.13924499  1  0.022436  0  -0.019427  -0.046274  0  3.98341  0
C  C95  1  0.60254788  0.17152337  0.97739129  1  -0.06195  0  -0.019657  -0.047871  0  3.98466  0
C  C96  1  0.85390188  0.41776356  0.07508420  1  -0.014625  0  -0.089508  -0.126617  0  3.96204  0
C  C97  1  0.10549912  0.66988158  0.13967090  1  -0.075648  0  -0.078988  -0.072578  0  3.94665  0
C  C98  1  0.77278997  0.19646085  0.00266377  1  -0.046708  0  -0.079245  -0.071927  0  3.946772  0
C  C99  1  0.52434023  0.74039609  0.93936090  1  -0.026685  0  -0.078925  -0.068815  0  3.949196  0
C  C100  1  0.26306576  0.80628006  0.00282925  1  0.015019  0  -0.079174  -0.072266  0  3.948239  0
C  C101  1  0.84481560  0.60584632  0.07370116  1  0.009419  0  -0.078685  -0.069241  0  3.949647  0
C  C102  1  0.51099014  0.19931267  0.93970584  1  -0.033826  0  -0.078477  -0.068342  0  3.948843  0
C  C103  1  0.92981222  0.47001620  0.13951652  1  -0.025971  0  -0.078715  -0.072309  0  3.946629  0
C  C104  1  0.27862441  0.67600409  0.95293466  1  -0.032144  0  -0.013328  0.088129  0  3.943384  0
C  C105  1  0.84888949  0.24857762  0.99033256  1  -0.012393  0  -0.089715  -0.127578  0  3.962377  0
C  C106  1  0.18155269  0.65766920  0.07525505  1  0.018666  0  -0.089341  -0.126157  0  3.960472  0
C  C107  1  0.75712526  0.27692949  0.95284693  1  -0.052647  0  -0.012485  0.089538  0  3.944124  0
C  C108  1  0.92109539  0.59374962  0.00930841  1  -0.094037  0  -0.096495  -0.138643  0  3.981269  0
C  C109  1  0.18448293  0.60658700  0.93990599  1  0.050555  0  -0.009441  -0.270004  0  3.837764  0
C  C110  1  0.18699758  0.74185391  0.99057474  1  -0.102376  0  -0.088833  -0.125293  0  3.960985  0
C  C111  1  0.85145900  0.33325444  0.93978014  1  0.056455  0  -0.009342  -0.272323  0  3.842304  0
C  C112  1  0.19105591  0.46772582  0.07366273  1  -0.026459  0  -0.078579  -0.068678  0  3.949294  0
C  C113  1  0.11490357  0.41540660  0.00925478  1  -0.051279  0  -0.097241  -0.139317  0  3.980743  0
C  C114  1  0.44808421  0.67599520  0.92725759  1  -0.023267  0  -0.096512  -0.138499  0  3.979835  0
C  C115  1  0.31414766  0.54199352  0.91851454  1  1.714231  0  0.30276  0.674833  0  3.971019  0
C  C116  1  0.58732925  0.25151351  0.92748014  1  0.028797  0  -0.096998  -0.138175  0  3.980133  0
C  C117  1  0.05496824  0.58506673  0.87524152  1  1.719373  0  0.302813  0.677208  0  3.969419  0
C  C118  1  0.94553769  0.38962845  0.00923337  1  -0.058616  0  -0.012896  0.088976  0  3.944639  0
C  C119  1  0.09024295  0.61971773  0.00935087  1  -0.04554  0  -0.013007  0.088009  0  3.944805  0
C  C120  1  0.98115112  0.29006568  0.87518028  1  1.724303  0  0.302559  0.677225  0  3.970412  0
C  C121  1  0.72203534  0.37640940  0.91822708  1  1.717651  0  0.302542  0.676289  0  3.971252  0
C  C122  1  0.51764394  0.55129664  0.34395712  1  1.537323  0  0.22681  0.60361  0  4.163404  0
C  C123  1  0.18455093  0.11528229  0.12602377  1  1.545112  0  0.227337  0.60515  0  4.161934  0
C  C124  1  0.85110708  0.65581915  0.44860115  1  1.543444  0  0.22684  0.603222  0  4.164075  0
C  C125  1  0.18440666  0.87394877  0.88456666  1  1.561936  0  0.227125  0.605193  0  4.161104  0
C  C126  1  0.76633612  0.64387432  0.50472815  1  -0.022451  0  -0.019204  -0.046583  0  3.985016  0
C  C127  1  0.09967170  0.17137388  0.19409574  1  0.035391  0  -0.01971  -0.048151  0  3.98624  0
C  C128  1  0.60253625  0.49520974  0.35595775  1  -0.053577  0  -0.019414  -0.046352  0  3.983229  0
C  C129  1  0.26921841  0.80586574  0.82847961  1  -0.065192  0  -0.019595  -0.047796  0  3.984654  0
C  C130  1  0.52056915  0.65732094  0.58224239  1  -0.063685  0  -0.089562  -0.126688  0  3.962126  0
C  C131  1  0.77216530  0.46978912  0.33011161  1  -0.059168  0  -0.078962  -0.072408  0  3.946658  0
C  C132  1  0.43946075  0.80620259  0.80354458  1  -0.041702  0  -0.07922  -0.071894  0  3.946847  0
C  C133  1  0.19098655  0.19896376  0.25960275  1  -0.04355  0  -0.078882  -0.06902  0  3.949103  0
C  C134  1  0.92971744  0.19654569  0.19371768  1  -0.078987  0  -0.079251  -0.072394  0  3.94797  0
C  C135  1  0.51147739  0.46785718  0.39414708  1  0.046392  0  -0.078667  -0.069207  0  3.949453  0
C  C136  1  0.17765636  0.74039080  0.80068995  1  -0.011931  0  -0.078505  -0.068424  0  3.949081  0
C  C137  1  0.59647824  0.66949933  0.52998824  1  0.024849  0  -0.078698  -0.072202  0  3.946663  0
C  C138  1  0.94527002  0.27693197  0.32399384  1  0.010732  0  -0.013269  0.088405  0  3.943349  0
C  C139  1  0.51555667  0.74175488  0.75143016  1  -0.017509  0  -0.089786  -0.127629  0  3.962595  0
C  C140  1  0.84821690  0.41758365  0.34232033  1  -0.000712  0  -0.089407  -0.126427  0  3.960805  0
C  C141  1  0.42379472  0.67591731  0.72307756  1  -0.05715  0  -0.012471  0.089499  0  3.944436  0
C  C142  1  0.58775258  0.41556435  0.40624624  1  -0.088415  0  -0.096594  -0.138679  0  3.981414  0
C  C143  1  0.85113966  0.33332694  0.39341194  1  0.051796  0  -0.009431  -0.270148  0  3.837775  0
C  C144  1  0.85364347  0.24871853  0.25814264  1  -0.111588  0  -0.088732  -0.125341  0  3.960701  0
C  C145  1  0.51813112  0.60652482  0.66675081  1  0.043728  0  -0.009314  -0.272511  0  3.842486  0
C  C146  1  0.85772290  0.60594034  0.53227759  1  -0.011349  0  -0.078602  -0.068758  0  3.949391  0
C  C147  1  0.78157313  0.59385251  0.58459685  1  -0.045842  0  -0.097188  -0.139105  0  3.980881  0
C  C148  1  0.11472713  0.25126311  0.32400155  1  0.023214  0  -0.096536  -0.138313  0  3.979872  0
C  C149  1  0.98081516  0.37653695  0.45800361  1  1.726665  0  0.30272  0.674769  0  3.970934  0
C  C150  1  0.25399691  0.67596406  0.74848985  1  0.03902  0  -0.097071  -0.138211  0  3.980288  0
C  C151  1  0.72163496  0.29018490  0.41494186  1  1.725679  0  0.302696  0.676961  0  3.969764  0
C  C152  1  0.61221239  0.61960740  0.61037879  1  -0.048473  0  -0.012832  0.088999  0  3.94467  0
C  C153  1  0.75689895  0.38963658  0.38027896  1  -0.042201  0  -0.013032  0.088123  0  3.944837  0
C  C154  1  0.64782173  0.58511868  0.70994280  1  1.728509  0  0.302451  0.677146  0  3.970782  0
C  C155  1  0.38871136  0.54181544  0.62359858  1  1.719526  0  0.302484  0.676617  0  3.970516  0
O  O156  1  0.70301526  0.04080225  0.13236042  1  -1.177791  0  -0.309472  -0.535435  0  2.380887  0
O  O157  1  0.03638785  0.79898481  0.42474424  1  -1.176677  0  -0.309324  -0.53492  0  2.381588  0
O  O158  1  0.76840985  0.97142718  0.90476596  1  -1.157926  0  -0.312596  -0.554623  0  2.398329  0
O  O159  1  0.66570059  0.79911050  0.37446935  1  -1.177715  0  -0.309488  -0.534665  0  2.381195  0
O  O160  1  0.43508203  0.73340883  0.30475272  1  -1.161566  0  -0.312544  -0.554362  0  2.398368  0
O  O161  1  0.93391577  0.97127782  0.06671483  1  -1.162556  0  -0.31242  -0.554747  0  2.397855  0
O  O162  1  0.26690810  0.73327709  0.42881007  1  -1.162043  0  -0.312295  -0.554103  0  2.398458  0
O  O163  1  0.99932732  0.04090265  0.90856356  1  -1.179346  0  -0.309543  -0.535444  0  2.380812  0
O  O164  1  0.36969368  0.09155659  0.95920133  1  -1.181197  0  -0.309334  -0.53517  0  2.380911  0
O  O165  1  0.70301298  0.62576321  0.20100913  1  -1.177926  0  -0.309269  -0.534907  0  2.381268  0
O  O166  1  0.43509398  0.93333792  0.02857818  1  -1.169143  0  -0.312564  -0.554582  0  2.398525  0
O  O167  1  0.33235903  0.57536827  0.20089810  1  -1.177542  0  -0.309573  -0.534718  0  2.38089  0
O  O168  1  0.10173781  0.57134327  0.26659339  1  -1.166944  0  -0.312498  -0.554277  0  2.398625  0
O  O169  1  0.60059292  0.09543679  0.02872734  1  -1.160617  0  -0.31244  -0.554644  0  2.39777  0
O  O170  1  0.93355144  0.69552628  0.26672250  1  -1.162536  0  -0.312418  -0.554156  0  2.398419  0
O  O171  1  0.66599406  0.86766064  0.95909379  1  -1.181726  0  -0.309559  -0.535502  0  2.380747  0
O  O172  1  0.03635295  0.86764830  0.90844252  1  -1.176739  0  -0.309399  -0.535255  0  2.380636  0
O  O173  1  0.36971555  0.57524969  0.37423037  1  -1.176553  0  -0.309436  -0.535136  0  2.382  0
O  O174  1  0.10173886  0.09523768  0.06665980  1  -1.161454  0  -0.312618  -0.554683  0  2.398578  0
O  O175  1  0.99902210  0.62553235  0.42464011  1  -1.180636  0  -0.309501  -0.534674  0  2.381172  0
O  O176  1  0.76841628  0.69525710  0.42866642  1  -1.163166  0  -0.312535  -0.55435  0  2.398421  0
O  O177  1  0.26727002  0.93329020  0.90456615  1  -1.163061  0  -0.312446  -0.554679  0  2.397922  0
O  O178  1  0.60025386  0.57119776  0.30447099  1  -1.157877  0  -0.312343  -0.554141  0  2.398311  0
O  O179  1  0.33264177  0.09142888  0.13233661  1  -1.18245  0  -0.309556  -0.535472  0  2.380643  0
F  F180  1  0.98196315  0.14837385  0.48385827  1  -0.606304  0  -0.096641  -0.199493  0  1.318931  0
F  F181  1  0.44958931  0.10470918  0.36628559  1  -0.622281  0  -0.09355  -0.202054  0  1.323606  0
F  F182  1  0.38770008  0.15071102  0.48154005  1  -0.611151  0  -0.096445  -0.199795  0  1.319859  0
F  F183  1  0.25321323  0.10473389  0.73836019  1  -0.621322  0  -0.093884  -0.202325  0  1.322986  0
F  F184  1  0.92043448  0.03313271  0.43832542  1  -0.626263  0  -0.093894  -0.202164  0  1.323207  0
F  F185  1  0.72091026  0.14810621  0.66426405  1  -0.609355  0  -0.096593  -0.199325  0  1.319089  0
F  F186  1  0.31520178  0.15058054  0.66896363  1  -0.609214  0  -0.09655  -0.199888  0  1.319056  0
F  F187  1  0.78249113  0.03282996  0.59491646  1  -0.621557  0  -0.094086  -0.20172  0  1.323332  0
F  F188  1  0.13760029  0.08224525  0.51493899  1  -0.616998  0  -0.093814  -0.199021  0  1.367957  0
F  F189  1  0.56553597  0.08174719  0.56703380  1  -0.615488  0  -0.093832  -0.198581  0  1.367567  0
F  F190  1  0.23251885  0.18147056  0.41505686  1  -0.613732  0  -0.093941  -0.199167  0  1.368016  0
F  F191  1  0.47035191  0.18145136  0.76624464  1  -0.612749  0  -0.093956  -0.1993  0  1.367267  0
F  F192  1  0.64860437  0.33548629  0.85162888  1  -0.607718  0  -0.096548  -0.199466  0  1.318943  0
F  F193  1  0.11625487  0.26157543  0.89528462  1  -0.624178  0  -0.093522  -0.202046  0  1.323495  0
F  F194  1  0.05438196  0.33083138  0.84928745  1  -0.612392  0  -0.096433  -0.19978  0  1.319777  0
F  F195  1  0.91983782  0.63363145  0.89526994  1  -0.619742  0  -0.093899  -0.202372  0  1.323092  0
F  F196  1  0.58710877  0.40519628  0.96687017  1  -0.623817  0  -0.093879  -0.202112  0  1.323323  0
F  F197  1  0.38752989  0.51615947  0.85187994  1  -0.607072  0  -0.0966  -0.199402  0  1.319142  0
F  F198  1  0.98183915  0.51838874  0.84941790  1  -0.606898  0  -0.096651  -0.199897  0  1.31895  0
F  F199  1  0.44912463  0.56208110  0.96715455  1  -0.619705  0  -0.094054  -0.20177  0  1.323593  0
F  F200  1  0.80427956  0.43269165  0.91775386  1  -0.618487  0  -0.093831  -0.19897  0  1.367964  0
F  F201  1  0.23217045  0.48528530  0.91823967  1  -0.615516  0  -0.093826  -0.198536  0  1.367567  0
F  F202  1  0.89917488  0.23359425  0.81852927  1  -0.627272  0  -0.094096  -0.199293  0  1.367776  0
F  F203  1  0.13697446  0.58480467  0.81854930  1  -0.613376  0  -0.09394  -0.199245  0  1.367222  0
F  F204  1  0.31528272  0.51614766  0.66452836  1  -0.609489  0  -0.096523  -0.199576  0  1.319034  0
F  F205  1  0.78291524  0.63371918  0.73843545  1  -0.623691  0  -0.093556  -0.202027  0  1.32358  0
F  F206  1  0.72105423  0.51846207  0.66917285  1  -0.615004  0  -0.096436  -0.199791  0  1.319887  0
F  F207  1  0.58651319  0.26163751  0.36637446  1  -0.622126  0  -0.093855  -0.202271  0  1.323194  0
F  F208  1  0.25378862  0.56166955  0.59480956  1  -0.619053  0  -0.093877  -0.202167  0  1.322858  0
F  F209  1  0.05421476  0.33574446  0.48384038  1  -0.607517  0  -0.096556  -0.199315  0  1.319052  0
F  F210  1  0.64849497  0.33104077  0.48161673  1  -0.609453  0  -0.096568  -0.199787  0  1.319128  0
F  F211  1  0.11578637  0.40508668  0.43790694  1  -0.62336  0  -0.094106  -0.20182  0  1.323329  0
F  F212  1  0.47093762  0.48505094  0.56731561  1  -0.614368  0  -0.093853  -0.199046  0  1.367616  0
F  F213  1  0.89883615  0.43297066  0.51470833  1  -0.625667  0  -0.093747  -0.198474  0  1.367762  0
F  F214  1  0.56585364  0.58493428  0.76641380  1  -0.617769  0  -0.093922  -0.199147  0  1.368058  0
F  F215  1  0.80365113  0.23375917  0.41520779  1  -0.614426  0  -0.093976  -0.199268  0  1.367272  0
