# generated using pymatgen
data_ZnH24C28(NO4)2
_symmetry_space_group_name_H-M   'P 1'
_cell_length_a   14.01672509
_cell_length_b   15.19614232
_cell_length_c   15.85758284
_cell_angle_alpha   90.38366607
_cell_angle_beta   117.95182284
_cell_angle_gamma   92.58673679
_symmetry_Int_Tables_number   1
_chemical_formula_structural   ZnH24C28(NO4)2
_chemical_formula_sum   'Zn2 H48 C56 N4 O16'
_cell_volume   2979.11065421
_cell_formula_units_Z   2
loop_
 _symmetry_equiv_pos_site_id
 _symmetry_equiv_pos_as_xyz
  1  'x, y, z'
loop_
 _atom_site_type_symbol
 _atom_site_label
 _atom_site_symmetry_multiplicity
 _atom_site_fract_x
 _atom_site_fract_y
 _atom_site_fract_z
 _atom_site_occupancy
 _atom_site_pbe_bader_charge
 _atom_site_pbe_bader_spin_density
 _atom_site_pbe_cm5_charge
 _atom_site_pbe_ddec_charge
 _atom_site_pbe_ddec_spin_density
 _atom_site_pbe_ddec_sum_bond_order
 _atom_site_pbe_magmom
Zn  Zn0  1  0.38930616  0.49479833  0.47579805  1  1.293405  0  0.667252  0.830536  0  2.393234  0
Zn  Zn1  1  0.60301728  0.50806318  0.51039503  1  1.299151  0  0.669779  0.832116  0  2.434126  0
H  H2  1  0.23104640  0.60271854  0.87388697  1  0.082674  0  0.097074  0.097423  0  1.004134  0
H  H3  1  0.80140996  0.52575755  0.13126256  1  0.054132  0  0.097058  0.095786  0  1.004091  0
H  H4  1  0.45583886  0.53344079  0.76407710  1  0.088823  0  0.098718  0.100761  0  1.035149  0
H  H5  1  0.55705165  0.51860611  0.23132160  1  0.085897  0  0.09788  0.096835  0  1.046151  0
H  H6  1  0.78297539  0.50417840  0.82281716  1  0.117407  0  0.102315  0.112609  0  1.006358  0
H  H7  1  0.23377641  0.56255844  0.17441231  1  0.083909  0  0.106106  0.114028  0  0.99458  0
H  H8  1  0.18306012  0.59418625  0.00426191  1  0.038569  0  0.101884  0.104618  0  0.994113  0
H  H9  1  0.84342548  0.51142972  0.99822039  1  0.086202  0  0.100989  0.101402  0  0.99576  0
H  H10  1  0.36156575  0.58294300  0.81361806  1  0.055388  0  0.096099  0.094102  0  1.024137  0
H  H11  1  0.66916477  0.53842971  0.19064739  1  0.05821  0  0.095174  0.093329  0  1.027819  0
H  H12  1  0.33262114  0.21064818  0.43872819  1  0.121073  0  0.103274  0.12549  0  1.03447  0
H  H13  1  0.60755354  0.78482626  0.45912672  1  0.120285  0  0.11011  0.133276  0  0.995299  0
H  H14  1  0.68052505  0.23769365  0.60021137  1  0.10984  0  0.106278  0.130591  0  0.996937  0
H  H15  1  0.39556112  0.77157555  0.58683508  1  0.08031  0  0.103312  0.12131  0  1.005393  0
H  H16  1  0.84785034  0.41792056  0.37487784  1  0.091964  0  0.122582  0.130565  0  0.978446  0
H  H17  1  0.12255553  0.61368263  0.57259903  1  0.101548  0  0.122677  0.130661  0  0.976975  0
H  H18  1  0.68003658  0.43380663  0.39142787  1  0.180133  0  0.137907  0.122686  0  0.983174  0
H  H19  1  0.28803224  0.60397895  0.55103967  1  0.180892  0  0.135715  0.121148  0  0.999158  0
H  H20  1  0.02335664  0.56558363  0.64403863  1  0.123912  0  0.12732  0.144633  0  0.980642  0
H  H21  1  0.01264287  0.35833704  0.42532543  1  0.143262  0  0.129241  0.147571  0  0.977097  0
H  H22  1  0.21628608  0.95545167  0.34349332  1  0.073957  0  0.105489  0.076268  0  0.952909  0
H  H23  1  0.35183607  0.95608499  0.36254168  1  0.024138  0  0.09031  0.046247  0  1.022734  0
H  H24  1  0.20078210  0.10827573  0.27766832  1  0.021694  0  0.092574  0.091424  0  0.972687  0
H  H25  1  0.33264027  0.10464598  0.29089775  1  0.023297  0  0.086959  0.078297  0  0.996833  0
H  H26  1  0.27270651  0.96869876  0.17879444  1  0.014001  0  0.083596  0.108081  0  1.021848  0
H  H27  1  0.19771684  0.06133979  0.12260420  1  0.033456  0  0.087281  0.115004  0  1.000327  0
H  H28  1  0.13957532  0.97623280  0.16301133  1  0.03253  0  0.084286  0.106986  0  1.007617  0
H  H29  1  0.64490988  0.03876985  0.37446431  1  0.053347  0  0.105213  0.075572  0  0.95391  0
H  H30  1  0.51596522  0.03382565  0.37041453  1  0.041429  0  0.092867  0.050328  0  1.020483  0
H  H31  1  0.60754363  0.88179123  0.30671415  1  0.022799  0  0.092156  0.087839  0  0.969158  0
H  H32  1  0.47545140  0.88313216  0.29363669  1  0.031051  0  0.087614  0.078583  0  0.993588  0
H  H33  1  0.43967662  0.01473620  0.18468059  1  0.024341  0  0.084583  0.109455  0  1.020523  0
H  H34  1  0.47215999  0.92031932  0.13876880  1  0.030204  0  0.088268  0.116408  0  1.000633  0
H  H35  1  0.57095956  0.00790204  0.19562172  1  0.017676  0  0.084097  0.106759  0  1.007422  0
H  H36  1  0.67420926  0.97020594  0.70471945  1  0.046699  0  0.091798  0.048289  0  1.02566  0
H  H37  1  0.70678864  0.07539472  0.76580127  1  0.017059  0  0.09166  0.047768  0  0.981794  0
H  H38  1  0.86216838  0.96175401  0.73198273  1  0.041502  0  0.095377  0.092284  0  0.961465  0
H  H39  1  0.89631991  0.06839246  0.78690305  1  0.026802  0  0.091775  0.083685  0  0.971807  0
H  H40  1  0.85489536  0.01445409  0.91764355  1  0.016706  0  0.082929  0.104616  0  1.008989  0
H  H41  1  0.95547468  0.95190364  0.91132954  1  0.062381  0  0.087017  0.113639  0  1.004184  0
H  H42  1  0.82047754  0.90722067  0.86279777  1  0.011785  0  0.085917  0.111475  0  1.003173  0
H  H43  1  0.51839024  0.02746823  0.72009951  1  0.031294  0  0.091632  0.047402  0  1.011442  0
H  H44  1  0.52533542  0.91539036  0.75566475  1  0.040049  0  0.092179  0.049186  0  0.980638  0
H  H45  1  0.34304203  0.03700008  0.72343784  1  0.029825  0  0.096166  0.093573  0  0.960331  0
H  H46  1  0.34778749  0.92565283  0.75651288  1  0.021949  0  0.090017  0.080274  0  0.974649  0
H  H47  1  0.51960865  0.96301053  0.91003218  1  -0.002163  0  0.083821  0.106469  0  1.00812  0
H  H48  1  0.41300401  0.02745081  0.90096480  1  0.030621  0  0.087683  0.115073  0  1.00104  0
H  H49  1  0.51547228  0.07492808  0.87708327  1  0.023141  0  0.085233  0.10965  0  1.005109  0
C  C50  1  0.50303443  0.33160768  0.50168282  1  1.553657  0  0.216831  0.605177  0  4.139265  0
C  C51  1  0.48752793  0.67043600  0.50425726  1  1.586048  0  0.217151  0.60264  0  4.146855  0
C  C52  1  0.43025052  0.51548197  0.31225162  1  1.568264  0  0.215623  0.600524  0  4.154839  0
C  C53  1  0.57660798  0.50836810  0.67947707  1  1.583255  0  0.213767  0.597517  0  4.161201  0
C  C54  1  0.39913169  0.53795453  0.21127233  1  0.047003  0  -0.018578  -0.027658  0  3.981199  0
C  C55  1  0.61479912  0.51791419  0.78455400  1  -0.070069  0  -0.017785  -0.025189  0  3.98285  0
C  C56  1  0.26538479  0.57788746  0.05426883  1  -0.03519  0  -0.091647  -0.13939  0  4.002139  0
C  C57  1  0.75854975  0.51783545  0.94680852  1  -0.000579  0  -0.091616  -0.136926  0  4.004944  0
C  C58  1  0.29267066  0.56044520  0.14789101  1  -0.063563  0  -0.085442  -0.092674  0  3.995901  0
C  C59  1  0.72563052  0.51302896  0.85011931  1  -0.101106  0  -0.086074  -0.092748  0  3.992688  0
C  C60  1  0.47628938  0.53617091  0.17994545  1  -0.022376  0  -0.084273  -0.135876  0  3.95345  0
C  C61  1  0.54040519  0.53140077  0.81725053  1  -0.025218  0  -0.083289  -0.13734  0  3.947871  0
C  C62  1  0.45110210  0.55358193  0.08485469  1  -0.046771  0  -0.004558  0.033594  0  3.953456  0
C  C63  1  0.57207607  0.53964910  0.91556940  1  -0.012838  0  -0.00418  0.034592  0  3.94972  0
C  C64  1  0.34229511  0.57321495  0.02022927  1  -0.029947  0  -0.00743  0.080642  0  4.020822  0
C  C65  1  0.68347115  0.52997028  0.98163842  1  -0.009932  0  -0.008615  0.077475  0  4.023218  0
C  C66  1  0.52991249  0.54857179  0.05044240  1  -0.051806  0  -0.004094  0.034431  0  3.961019  0
C  C67  1  0.49581331  0.55401280  0.95128326  1  -0.006728  0  -0.004805  0.033371  0  3.958801  0
C  C68  1  0.38666225  0.57441439  0.88916193  1  -0.046027  0  -0.095613  -0.132572  0  4.037556  0
C  C69  1  0.64175991  0.53847031  0.11401098  1  -0.054223  0  -0.097564  -0.135865  0  4.041713  0
C  C70  1  0.31354645  0.58553540  0.92238359  1  -0.027137  0  -0.095512  -0.140965  0  4.038694  0
C  C71  1  0.71586957  0.53146161  0.08126979  1  -0.07331  0  -0.096012  -0.139589  0  4.043206  0
C  C72  1  0.41422577  0.09093401  0.48895258  1  0.455327  0  0.082514  0.224759  0  4.040191  0
C  C73  1  0.56982182  0.90921489  0.49880553  1  0.472383  0  0.083786  0.221505  0  4.039882  0
C  C74  1  0.41049316  0.18182932  0.47849434  1  0.02309  0  -0.102275  -0.222251  0  3.976701  0
C  C75  1  0.56344225  0.81762717  0.49020506  1  0.022893  0  -0.097298  -0.215589  0  3.971773  0
C  C76  1  0.50650548  0.23456693  0.51641523  1  -0.045746  0  -0.022191  -0.000233  0  4.021945  0
C  C77  1  0.49840309  0.76800746  0.51927929  1  -0.071727  0  -0.019711  0.004507  0  4.020519  0
C  C78  1  0.60571454  0.19658349  0.56877739  1  -0.035874  0  -0.102996  -0.224328  0  3.979933  0
C  C79  1  0.44454840  0.80990223  0.56204878  1  -0.032225  0  -0.103192  -0.224296  0  3.992115  0
C  C80  1  0.60951799  0.10599263  0.58261080  1  0.508764  0  0.081912  0.219339  0  4.058119  0
C  C81  1  0.45449930  0.90129449  0.57477199  1  0.542993  0  0.081856  0.216712  0  4.058475  0
C  C82  1  0.51380239  0.05062862  0.54032950  1  0.012964  0  -0.019378  -0.11534  0  3.985126  0
C  C83  1  0.51451078  0.95333775  0.54045465  1  -0.008732  0  -0.015413  -0.106173  0  3.984225  0
C  C84  1  0.85244711  0.45340813  0.43671324  1  -0.016637  0  -0.065467  -0.162087  0  3.904391  0
C  C85  1  0.13193620  0.55596217  0.53659622  1  0.035466  0  -0.064792  -0.161351  0  3.906176  0
C  C86  1  0.75841625  0.46273314  0.44403838  1  0.477965  0  0.075699  0.131406  0  3.861966  0
C  C87  1  0.22330444  0.55233462  0.52394756  1  0.4458  0  0.074434  0.12988  0  3.860345  0
C  C88  1  0.85119132  0.54543693  0.58267938  1  0.765899  0  0.227071  0.23644  0  3.93762  0
C  C89  1  0.16033369  0.42066817  0.44070081  1  0.75158  0  0.226014  0.236082  0  3.931823  0
C  C90  1  0.95000456  0.53722859  0.58415574  1  0.051591  0  -0.064306  -0.213315  0  3.902284  0
C  C91  1  0.06840605  0.41610695  0.45262413  1  0.039087  0  -0.062642  -0.211479  0  3.896246  0
C  C92  1  0.95093558  0.49174552  0.50739879  1  0.015173  0  0.023913  0.123599  0  3.973274  0
C  C93  1  0.05154678  0.48728915  0.49986812  1  -0.002708  0  0.023051  0.123055  0  3.974365  0
C  C94  1  0.28744198  0.99866419  0.35717412  1  0.40509  0  -0.067385  0.037833  0  3.900707  0
C  C95  1  0.25987311  0.06327193  0.27701810  1  -0.00196  0  -0.173414  -0.144002  0  3.990924  0
C  C96  1  0.21508739  0.01482507  0.18009324  1  -0.088147  0  -0.243373  -0.351693  0  3.989988  0
C  C97  1  0.58222152  0.99356375  0.37597083  1  0.414094  0  -0.066832  0.037682  0  3.898998  0
C  C98  1  0.54168141  0.92531444  0.29403004  1  -0.030345  0  -0.172112  -0.142572  0  3.993922  0
C  C99  1  0.50393242  0.96940720  0.19801269  1  -0.065232  0  -0.24395  -0.353463  0  3.990202  0
C  C100  1  0.72737731  0.03059277  0.72214085  1  0.411079  0  -0.069346  0.039695  0  3.905945  0
C  C101  1  0.84496729  0.00805126  0.77620555  1  0.007184  0  -0.16598  -0.125793  0  3.982994  0
C  C102  1  0.87030359  0.96819522  0.87225260  1  -0.092531  0  -0.242191  -0.351885  0  3.989558  0
C  C103  1  0.46948098  0.96746211  0.71750334  1  0.397645  0  -0.067802  0.041719  0  3.901915  0
C  C104  1  0.39829958  0.98568174  0.76341875  1  0.003033  0  -0.166583  -0.126431  0  3.986142  0
C  C105  1  0.46535920  0.01436026  0.86859527  1  -0.037809  0  -0.242179  -0.352916  0  3.990453  0
N  N106  1  0.75703324  0.51051202  0.51546322  1  -1.219141  0  -0.291166  -0.221157  0  3.441682  0
N  N107  1  0.23652672  0.48596695  0.47411047  1  -1.199973  0  -0.289141  -0.219198  0  3.438341  0
N  N108  1  0.85035854  0.60072245  0.66024283  1  0.422962  0  0.067094  0.481238  0  4.227993  0
N  N109  1  0.17149623  0.34931587  0.38154668  1  0.439296  0  0.065386  0.475398  0  4.228387  0
O  O110  1  0.41080915  0.36492064  0.47010359  1  -1.169442  0  -0.32427  -0.553648  0  2.359589  0
O  O111  1  0.55855173  0.63490842  0.48870618  1  -1.167688  0  -0.317093  -0.548555  0  2.366894  0
O  O112  1  0.59188655  0.37404805  0.52146578  1  -1.165512  0  -0.322224  -0.551273  0  2.318506  0
O  O113  1  0.40757989  0.62937264  0.50699671  1  -1.17557  0  -0.319229  -0.555838  0  2.337129  0
O  O114  1  0.35917797  0.52208866  0.34018471  1  -1.154182  0  -0.312743  -0.534971  0  2.329852  0
O  O115  1  0.64813154  0.52108243  0.65173484  1  -1.155751  0  -0.323074  -0.548433  0  2.336322  0
O  O116  1  0.52647135  0.49154839  0.36352643  1  -1.187372  0  -0.325257  -0.571609  0  2.359976  0
O  O117  1  0.47655211  0.48881822  0.62592557  1  -1.177446  0  -0.322679  -0.561158  0  2.316794  0
O  O118  1  0.79078736  0.66276465  0.63521099  1  -0.39012  0  -0.084712  -0.256831  0  1.921876  0
O  O119  1  0.91378226  0.58080565  0.74274327  1  -0.420254  0  -0.123504  -0.318185  0  1.872743  0
O  O120  1  0.19291606  0.37274975  0.31798402  1  -0.39473  0  -0.090533  -0.264468  0  1.922195  0
O  O121  1  0.15346797  0.27309032  0.39954052  1  -0.438622  0  -0.111368  -0.303338  0  1.887824  0
O  O122  1  0.31787579  0.04071717  0.44872433  1  -1.063659  0  -0.208623  -0.240199  0  2.512631  0
O  O123  1  0.63482180  0.95571504  0.46894183  1  -1.07335  0  -0.20958  -0.244608  0  2.52172  0
O  O124  1  0.71043544  0.07413678  0.63619024  1  -1.071913  0  -0.202949  -0.234646  0  2.527473  0
O  O125  1  0.40130207  0.93856460  0.61953261  1  -1.066925  0  -0.207305  -0.242819  0  2.520975  0
