# generated using pymatgen
data_MgH7C11SN2O3
_symmetry_space_group_name_H-M   'P 1'
_cell_length_a   6.77225469
_cell_length_b   36.79902945
_cell_length_c   36.78540180
_cell_angle_alpha   119.64180006
_cell_angle_beta   93.50517981
_cell_angle_gamma   93.53784766
_symmetry_Int_Tables_number   1
_chemical_formula_structural   MgH7C11SN2O3
_chemical_formula_sum   'Mg6 H42 C66 S6 N12 O18'
_cell_volume   7907.98305273
_cell_formula_units_Z   6
loop_
 _symmetry_equiv_pos_site_id
 _symmetry_equiv_pos_as_xyz
  1  'x, y, z'
loop_
 _atom_site_type_symbol
 _atom_site_label
 _atom_site_symmetry_multiplicity
 _atom_site_fract_x
 _atom_site_fract_y
 _atom_site_fract_z
 _atom_site_occupancy
 _atom_site_pbe_bader_charge
 _atom_site_pbe_bader_spin_density
 _atom_site_pbe_cm5_charge
 _atom_site_pbe_ddec_charge
 _atom_site_pbe_ddec_spin_density
 _atom_site_pbe_ddec_sum_bond_order
 _atom_site_pbe_magmom
Mg  Mg0  1  0.32898706  0.69022885  0.32491634  1  1.683101  0  0.901869  1.404811  0  1.334703  0
Mg  Mg1  1  0.63872275  0.63462544  0.30979067  1  1.682336  0  0.902333  1.405828  0  1.33243  0
Mg  Mg2  1  0.00393051  0.67518484  0.36544804  1  1.682353  0  0.902492  1.405637  0  1.33338  0
Mg  Mg3  1  0.32096117  0.30892248  0.67389105  1  1.682915  0  0.90748  1.409016  0  1.333123  0
Mg  Mg4  1  0.01214066  0.36498516  0.69105170  1  1.683282  0  0.907516  1.40817  0  1.334133  0
Mg  Mg5  1  0.64708489  0.32604600  0.63496335  1  1.68261  0  0.907242  1.408505  0  1.333792  0
H  H6  1  0.72150948  0.50274014  0.09197694  1  0.435183  0  0.318606  0.268693  0  0.939761  0
H  H7  1  0.21835518  0.58924957  0.49724739  1  0.430027  0  0.318692  0.268449  0  0.939728  0
H  H8  1  0.62989493  0.90802406  0.41082520  1  0.454235  0  0.318632  0.268501  0  0.940724  0
H  H9  1  0.40600036  0.48951998  0.00300197  1  0.119381  0  0.096297  0.130772  0  1.044612  0
H  H10  1  0.91587892  0.51348466  0.51046758  1  0.144538  0  0.09604  0.130372  0  1.045248  0
H  H11  1  0.40282759  0.99698306  0.48654778  1  0.117016  0  0.096208  0.130286  0  1.044685  0
H  H12  1  0.51085431  0.41997469  0.89383848  1  0.435194  0  0.31109  0.254688  0  0.974479  0
H  H13  1  0.09115708  0.47399811  0.58007783  1  0.433489  0  0.311852  0.256031  0  0.97461  0
H  H14  1  0.61682677  0.10612620  0.52605215  1  0.455786  0  0.311162  0.253684  0  0.974275  0
H  H15  1  0.06727016  0.44219630  0.86817728  1  0.445914  0  0.314114  0.273523  0  0.945665  0
H  H16  1  0.62517719  0.42608526  0.55793507  1  0.458778  0  0.313891  0.272679  0  0.945779  0
H  H17  1  0.19848882  0.13175171  0.57380392  1  0.457277  0  0.31363  0.272991  0  0.945601  0
H  H18  1  0.06892713  0.38874962  0.79603611  1  0.08027  0  0.108951  0.135431  0  1.003259  0
H  H19  1  0.68032554  0.40737705  0.61138291  1  0.06778  0  0.108977  0.135714  0  1.002407  0
H  H20  1  0.27237420  0.20398047  0.59271093  1  0.084904  0  0.108844  0.135358  0  1.003139  0
H  H21  1  0.78651969  0.43403709  0.80984171  1  0.097363  0  0.104582  0.106527  0  1.004478  0
H  H22  1  0.35244619  0.37576779  0.56585225  1  0.100952  0  0.104596  0.106585  0  1.004428  0
H  H23  1  0.97600355  0.19011886  0.62430475  1  0.098951  0  0.104719  0.106168  0  1.003846  0
H  H24  1  0.60943750  0.46245415  0.87399620  1  0.102149  0  0.108434  0.123787  0  1.005944  0
H  H25  1  0.14690404  0.41162758  0.53761192  1  0.090161  0  0.108268  0.123788  0  1.006455  0
H  H26  1  0.73441356  0.12603382  0.58847666  1  0.091147  0  0.108314  0.123662  0  1.006036  0
H  H27  1  0.69414755  0.38395181  0.91546618  1  0.036371  0  0.098907  0.102832  0  1.004315  0
H  H28  1  0.31027805  0.53168534  0.61606166  1  0.062173  0  0.098577  0.102579  0  1.004304  0
H  H29  1  0.77854489  0.08440212  0.46835510  1  0.042227  0  0.098613  0.102294  0  1.00486  0
H  H30  1  0.88298056  0.38313549  0.97509686  1  0.072402  0  0.106458  0.105428  0  0.978934  0
H  H31  1  0.50012605  0.59205919  0.61678543  1  0.102274  0  0.106216  0.105097  0  0.978882  0
H  H32  1  0.90816077  0.02478002  0.40795473  1  0.059577  0  0.106228  0.105357  0  0.979369  0
H  H33  1  0.82463829  0.43372060  0.04872201  1  0.05739  0  0.099365  0.112191  0  1.004702  0
H  H34  1  0.39090577  0.61498400  0.56616277  1  0.082649  0  0.099227  0.112029  0  1.004287  0
H  H35  1  0.77628473  0.95117401  0.38502122  1  0.04068  0  0.099236  0.1119  0  1.004106  0
H  H36  1  0.60317084  0.55310314  0.14011320  1  0.433572  0  0.323681  0.268877  0  0.928676  0
H  H37  1  0.04954752  0.58707787  0.44691135  1  0.430903  0  0.324012  0.269349  0  0.927603  0
H  H38  1  0.46305640  0.85982223  0.41286045  1  0.427986  0  0.323901  0.268402  0  0.928664  0
H  H39  1  0.58759445  0.60271291  0.20506793  1  0.069812  0  0.107329  0.131284  0  1.009802  0
H  H40  1  0.98447939  0.60246551  0.39738903  1  0.084522  0  0.107272  0.1312  0  1.008998  0
H  H41  1  0.38253056  0.79491915  0.39760689  1  0.098166  0  0.1072  0.131309  0  1.009329  0
H  H42  1  0.88113429  0.55299206  0.19559611  1  0.079976  0  0.100084  0.10086  0  1.009972  0
H  H43  1  0.32759351  0.64254573  0.44703822  1  0.086717  0  0.099809  0.100225  0  1.010592  0
H  H44  1  0.68543307  0.80443534  0.35750025  1  0.098209  0  0.100081  0.101031  0  1.00987  0
H  H45  1  0.06906320  0.51626812  0.13286232  1  0.097391  0  0.078757  0.092288  0  1.113902  0
H  H46  1  0.55217031  0.61655865  0.48376538  1  0.118468  0  0.078809  0.09239  0  1.113906  0
H  H47  1  0.93636203  0.86708632  0.38335229  1  0.083523  0  0.078964  0.092334  0  1.11343  0
C  C48  1  0.41954244  0.50718563  0.09035283  1  0.69855  0  0.226074  0.375927  0  4.123667  0
C  C49  1  0.91192398  0.58316899  0.49280580  1  0.707883  0  0.226167  0.374688  0  4.126423  0
C  C50  1  0.32931670  0.90957105  0.41677685  1  0.715272  0  0.225819  0.374025  0  4.126296  0
C  C51  1  0.61157784  0.46440976  0.03009487  1  0.343483  0  0.088431  0.248679  0  4.048676  0
C  C52  1  0.14688978  0.56567838  0.53553848  1  0.382829  0  0.08872  0.248959  0  4.047253  0
C  C53  1  0.58169883  0.96984720  0.43434817  1  0.3271  0  0.088948  0.248084  0  4.048536  0
C  C54  1  0.50697638  0.46584014  0.99691844  1  0.040902  0  -0.097295  -0.252071  0  3.911667  0
C  C55  1  0.04086299  0.53106378  0.53410532  1  -0.017212  0  -0.09706  -0.251481  0  3.911006  0
C  C56  1  0.51024624  0.00302699  0.46896727  1  0.066062  0  -0.097586  -0.251399  0  3.910779  0
C  C57  1  0.53482546  0.43619780  0.95567621  1  0.31354  0  0.091472  0.250414  0  4.030187  0
C  C58  1  0.09865308  0.51951773  0.56376161  1  0.332651  0  0.091418  0.250196  0  4.030131  0
C  C59  1  0.57934730  0.04423646  0.48051153  1  0.3265  0  0.091505  0.249813  0  4.028999  0
C  C60  1  0.26097794  0.44783817  0.91422861  1  0.73637  0  0.221501  0.367771  0  4.156173  0
C  C61  1  0.81318416  0.46647267  0.55226776  1  0.730999  0  0.222352  0.369502  0  4.15478  0
C  C62  1  0.34655690  0.08572049  0.53349447  1  0.725629  0  0.222183  0.367808  0  4.155678  0
C  C63  1  0.32631222  0.42639240  0.83944433  1  0.338559  0  0.099312  0.275367  0  4.06452  0
C  C64  1  0.90004888  0.41315703  0.57371575  1  0.301301  0  0.099005  0.27451  0  4.06545  0
C  C65  1  0.48633997  0.16054651  0.58685060  1  0.328461  0  0.099472  0.275158  0  4.062691  0
C  C66  1  0.22698879  0.39894847  0.79951340  1  -0.018407  0  -0.116128  -0.324095  0  3.91606  0
C  C67  1  0.82817443  0.40068148  0.60115935  1  0.012286  0  -0.116265  -0.324295  0  3.915647  0
C  C68  1  0.42697793  0.20046331  0.59935128  1  -0.02203  0  -0.116357  -0.324146  0  3.914428  0
C  C69  1  0.32565658  0.38251385  0.76301551  1  0.606638  0  0.096254  0.388816  0  4.097392  0
C  C70  1  0.94323824  0.38054869  0.61749056  1  0.635085  0  0.096916  0.389556  0  4.09593  0
C  C71  1  0.56224944  0.23693295  0.61942245  1  0.630105  0  0.096652  0.389404  0  4.094593  0
C  C72  1  0.53429985  0.39519247  0.76727873  1  -0.021357  0  -0.049347  -0.227991  0  3.976355  0
C  C73  1  0.13914243  0.37207870  0.60475858  1  -0.050349  0  -0.048892  -0.227189  0  3.976816  0
C  C74  1  0.76665895  0.23270068  0.62787520  1  -0.031138  0  -0.049155  -0.228021  0  3.976571  0
C  C75  1  0.62976385  0.42364497  0.80773892  1  -0.031824  0  -0.085548  -0.047822  0  4.041217  0
C  C76  1  0.20617989  0.38407407  0.57630586  1  -0.049762  0  -0.084961  -0.047105  0  4.040977  0
C  C77  1  0.82152958  0.19227082  0.61594527  1  -0.028115  0  -0.084292  -0.045809  0  4.040779  0
C  C78  1  0.53172512  0.43923625  0.84357413  1  -0.054046  0  -0.115926  -0.239281  0  4.01886  0
C  C79  1  0.09255033  0.40439734  0.56082405  1  -0.036208  0  -0.116209  -0.240232  0  4.019886  0
C  C80  1  0.68758875  0.15645382  0.59562370  1  -0.053205  0  -0.11708  -0.240644  0  4.020123  0
C  C81  1  0.65302592  0.38047018  0.73149285  1  1.486672  0  0.232122  0.671333  0  4.138805  0
C  C82  1  0.27246678  0.35100853  0.61947312  1  1.497784  0  0.232197  0.672399  0  4.139858  0
C  C83  1  0.92117131  0.26849997  0.64898232  1  1.463846  0  0.232147  0.672205  0  4.137723  0
C  C84  1  0.67032024  0.40636227  0.94781019  1  -0.005143  0  -0.10615  -0.20077  0  4.014796  0
C  C85  1  0.26406036  0.54154349  0.59360566  1  -0.035809  0  -0.106171  -0.200929  0  4.015582  0
C  C86  1  0.72262998  0.05206928  0.45847733  1  -0.049614  0  -0.106265  -0.200705  0  4.015359  0
C  C87  1  0.77558048  0.40584707  0.98118024  1  0.06779  0  -0.091102  -0.043719  0  4.052349  0
C  C88  1  0.36980402  0.57542280  0.59411362  1  -0.030506  0  -0.0906  -0.042655  0  4.0527  0
C  C89  1  0.79453930  0.01870505  0.42457873  1  0.068396  0  -0.090647  -0.043285  0  4.052655  0
C  C90  1  0.74475647  0.43441262  0.02246700  1  -0.063975  0  -0.103036  -0.186424  0  3.978393  0
C  C91  1  0.31016078  0.58808798  0.56553251  1  -0.067258  0  -0.103145  -0.186894  0  3.97845  0
C  C92  1  0.72241059  0.97744216  0.41191805  1  -0.032914  0  -0.103039  -0.185996  0  3.977332  0
C  C93  1  0.33947585  0.55769150  0.16434103  1  0.322211  0  0.105318  0.29368  0  4.033984  0
C  C94  1  0.78122926  0.60668330  0.44236652  1  0.323931  0  0.105882  0.294359  0  4.033193  0
C  C95  1  0.17513247  0.83561043  0.39330536  1  0.308573  0  0.105651  0.293178  0  4.033277  0
C  C96  1  0.43072739  0.59182227  0.20213451  1  0.014431  0  -0.119384  -0.33844  0  3.927487  0
C  C97  1  0.83842097  0.61037641  0.40826387  1  0.012043  0  -0.119196  -0.338256  0  3.926074  0
C  C98  1  0.22855703  0.79785218  0.38967658  1  -0.00542  0  -0.119147  -0.337976  0  3.925511  0
C  C99  1  0.32926676  0.61260461  0.23794506  1  0.588403  0  0.093776  0.386127  0  4.096325  0
C  C100  1  0.71626693  0.62538738  0.38747986  1  0.55654  0  0.094162  0.386204  0  4.095342  0
C  C101  1  0.09115391  0.76206792  0.37471353  1  0.578362  0  0.093898  0.386036  0  4.095546  0
C  C102  1  0.12312908  0.59871284  0.23485846  1  -0.058771  0  -0.050812  -0.22754  0  3.984587  0
C  C103  1  0.52401040  0.63616298  0.40135599  1  -0.00406  0  -0.050984  -0.227567  0  3.982637  0
C  C104  1  0.88815219  0.76516552  0.36390984  1  0.022071  0  -0.050466  -0.227874  0  3.983942  0
C  C105  1  0.03594588  0.56398097  0.19663221  1  0.013047  0  -0.09194  -0.055694  0  4.053696  0
C  C106  1  0.47143179  0.63262800  0.43605858  1  -0.078045  0  -0.09142  -0.053804  0  4.05122  0
C  C107  1  0.83924048  0.80337690  0.36739871  1  -0.092836  0  -0.091544  -0.054367  0  4.051112  0
C  C108  1  0.13826735  0.54325928  0.16184529  1  -0.019274  0  -0.125003  -0.229154  0  4.029029  0
C  C109  1  0.59436959  0.61856052  0.45678035  1  0.00017  0  -0.125785  -0.231038  0  4.030921  0
C  C110  1  0.97642403  0.83813128  0.38141123  1  0.008307  0  -0.125496  -0.230157  0  4.030041  0
C  C111  1  0.99885792  0.61755241  0.26953060  1  1.494835  0  0.231363  0.672064  0  4.137554  0
C  C112  1  0.38108300  0.65197991  0.38250093  1  1.479022  0  0.23116  0.671381  0  4.138909  0
C  C113  1  0.72928595  0.73049426  0.34810415  1  1.473937  0  0.230989  0.672312  0  4.138224  0
S  S114  1  0.19616895  0.48586993  0.06434044  1  -0.03476  0  -0.189581  -0.394802  0  2.170487  0
S  S115  1  0.70987334  0.57845605  0.51412392  1  -0.03312  0  -0.189792  -0.394601  0  2.171011  0
S  S116  1  0.13210080  0.93558497  0.42144743  1  -0.030191  0  -0.189682  -0.394393  0  2.171547  0
S  S117  1  0.09209531  0.46631755  0.94812590  1  -0.059292  0  -0.210366  -0.410125  0  2.069811  0
S  S118  1  0.62562571  0.48185920  0.53383057  1  -0.041786  0  -0.210752  -0.410859  0  2.069261  0
S  S119  1  0.14386109  0.05180377  0.51807565  1  -0.042293  0  -0.210463  -0.410202  0  2.07017  0
N  N120  1  0.59355498  0.49466039  0.07241014  1  -1.215301  0  -0.399787  -0.35704  0  3.579402  0
N  N121  1  0.09847394  0.57773575  0.50530014  1  -1.203772  0  -0.399708  -0.355792  0  3.579946  0
N  N122  1  0.52136130  0.92754347  0.42230064  1  -1.232522  0  -0.39975  -0.355733  0  3.579322  0
N  N123  1  0.44031971  0.43571112  0.92017846  1  -1.24723  0  -0.393312  -0.321755  0  3.598244  0
N  N124  1  0.00473788  0.48454091  0.56432015  1  -1.249216  0  -0.393995  -0.324031  0  3.600647  0
N  N125  1  0.52012501  0.07977064  0.51546863  1  -1.28028  0  -0.393505  -0.320062  0  3.597536  0
N  N126  1  0.21510886  0.44134752  0.87385295  1  -1.201666  0  -0.405774  -0.364036  0  3.587415  0
N  N127  1  0.77389132  0.43262241  0.55879655  1  -1.20932  0  -0.405448  -0.362655  0  3.587191  0
N  N128  1  0.34076360  0.12611959  0.56733100  1  -1.210261  0  -0.405052  -0.362903  0  3.585015  0
N  N129  1  0.46007314  0.53939739  0.13170510  1  -1.23476  0  -0.391511  -0.335928  0  3.57406  0
N  N130  1  0.92021508  0.59236196  0.46064182  1  -1.225222  0  -0.392264  -0.336311  0  3.573301  0
N  N131  1  0.32839693  0.86822313  0.40757885  1  -1.225679  0  -0.391815  -0.334346  0  3.573404  0
O  O132  1  0.81886037  0.60248129  0.26547405  1  -1.241268  0  -0.360829  -0.648822  0  2.160026  0
O  O133  1  0.21616346  0.66300566  0.39755425  1  -1.242756  0  -0.360791  -0.64864  0  2.160808  0
O  O134  1  0.55337907  0.73453181  0.33708055  1  -1.233369  0  -0.361109  -0.6492  0  2.160043  0
O  O135  1  0.07330381  0.65038932  0.30468399  1  -1.311667  0  -0.406379  -0.776478  0  2.407872  0
O  O136  1  0.42308897  0.65431348  0.34969627  1  -1.305083  0  -0.407041  -0.776629  0  2.408468  0
O  O137  1  0.76866229  0.69535477  0.34576311  1  -1.301955  0  -0.406592  -0.77638  0  2.408251  0
O  O138  1  0.43172043  0.64379618  0.27327910  1  -1.308694  0  -0.448529  -0.773267  0  2.288931  0
O  O139  1  0.78780583  0.62951461  0.35630195  1  -1.295716  0  -0.448579  -0.773103  0  2.289439  0
O  O140  1  0.15831687  0.72676062  0.37059052  1  -1.303654  0  -0.448521  -0.773155  0  2.289223  0
O  O141  1  0.83349301  0.39551823  0.73621209  1  -1.244699  0  -0.361376  -0.648589  0  2.150494  0
O  O142  1  0.43782603  0.34063672  0.60441815  1  -1.243195  0  -0.361424  -0.649263  0  2.150359  0
O  O143  1  0.09682082  0.26384522  0.65940909  1  -1.235484  0  -0.361405  -0.648992  0  2.149114  0
O  O144  1  0.57177507  0.35115014  0.69480710  1  -1.30636  0  -0.404346  -0.771764  0  2.414385  0
O  O145  1  0.22053547  0.34368063  0.64881101  1  -1.294648  0  -0.404437  -0.772776  0  2.415049  0
O  O146  1  0.87666661  0.30515187  0.65629143  1  -1.296485  0  -0.404263  -0.77211  0  2.414306  0
O  O147  1  0.22066922  0.35538714  0.72614089  1  -1.317258  0  -0.44863  -0.775795  0  2.311228  0
O  O148  1  0.86539340  0.37077630  0.64460222  1  -1.315966  0  -0.449129  -0.776413  0  2.310153  0
O  O149  1  0.49420061  0.27379793  0.62916980  1  -1.310456  0  -0.449062  -0.777089  0  2.309611  0
