# generated using pymatgen
data_AgH4C6NO2
_symmetry_space_group_name_H-M   'P 1'
_cell_length_a   3.58454085
_cell_length_b   7.78652596
_cell_length_c   20.15703189
_cell_angle_alpha   90.00058451
_cell_angle_beta   89.99878013
_cell_angle_gamma   89.99989960
_symmetry_Int_Tables_number   1
_chemical_formula_structural   AgH4C6NO2
_chemical_formula_sum   'Ag4 H16 C24 N4 O8'
_cell_volume   562.60534361
_cell_formula_units_Z   4
loop_
 _symmetry_equiv_pos_site_id
 _symmetry_equiv_pos_as_xyz
  1  'x, y, z'
loop_
 _atom_site_type_symbol
 _atom_site_label
 _atom_site_symmetry_multiplicity
 _atom_site_fract_x
 _atom_site_fract_y
 _atom_site_fract_z
 _atom_site_occupancy
 _atom_site_hle17_bader_spin_density
 _atom_site_hle17_ddec_charge
 _atom_site_hle17_ddec_spin_density
 _atom_site_hle17_ddec_sum_bond_order
 _atom_site_hle17_magmom
 _atom_site_hse06_10hf_bader_spin_density
 _atom_site_hse06_10hf_ddec_charge
 _atom_site_hse06_10hf_ddec_spin_density
 _atom_site_hse06_10hf_ddec_sum_bond_order
 _atom_site_hse06_10hf_magmom
 _atom_site_hse06_bader_spin_density
 _atom_site_hse06_ddec_charge
 _atom_site_hse06_ddec_spin_density
 _atom_site_hse06_ddec_sum_bond_order
 _atom_site_hse06_magmom
 _atom_site_pbe_bader_spin_density
 _atom_site_pbe_cm5_charge
 _atom_site_pbe_ddec_charge
 _atom_site_pbe_ddec_spin_density
 _atom_site_pbe_ddec_sum_bond_order
 _atom_site_pbe_magmom
Ag  Ag0  1  0.12571337  0.81176442  0.05114779  1  0  0.508768  0  1.535312  0  0  0.384165  0  2.013058  0  0  0.421139  0  1.94735  0  0  0.402509  0.359022  0  2.058119  0
Ag  Ag1  1  0.37425467  0.18824633  0.55114827  1  0  0.508731  0  1.535303  0  0  0.38409  0  2.013067  0  0  0.421072  0  1.947346  0  0  0.402509  0.358964  0  2.058099  0
Ag  Ag2  1  0.62572684  0.68823563  0.94885366  1  0  0.508692  0  1.535265  0  0  0.384063  0  2.013053  0  0  0.421048  0  1.947337  0  0  0.402494  0.358914  0  2.058116  0
Ag  Ag3  1  0.87426604  0.31176709  0.44885324  1  0  0.50875  0  1.535176  0  0  0.384163  0  2.012917  0  0  0.421142  0  1.947203  0  0  0.402516  0.359014  0  2.057979  0
H  H4  1  0.94896733  0.31674780  0.96399492  1  0  0.098231  0  0.958671  0  0  0.103304  0  1.027311  0  0  0.106611  0  1.024051  0  0  0.117683  0.100795  0  1.029888  0
H  H5  1  0.55102374  0.68325790  0.46399471  1  0  0.098371  0  0.958703  0  0  0.103499  0  1.027253  0  0  0.106805  0  1.023994  0  0  0.117762  0.100991  0  1.029832  0
H  H6  1  0.44895047  0.18325271  0.03600481  1  0  0.098311  0  0.958719  0  0  0.10345  0  1.027272  0  0  0.106758  0  1.02401  0  0  0.117734  0.100942  0  1.029849  0
H  H7  1  0.05103889  0.81675765  0.53600603  1  0  0.098277  0  0.958697  0  0  0.103346  0  1.027333  0  0  0.106653  0  1.024073  0  0  0.117678  0.100834  0  1.029918  0
H  H8  1  0.39769162  0.10740073  0.78369768  1  0  0.086226  0  0.984407  0  0  0.096739  0  1.051391  0  0  0.098997  0  1.049605  0  0  0.104528  0.09509  0  1.052641  0
H  H9  1  0.10230726  0.89258145  0.28370009  1  0  0.086311  0  0.984404  0  0  0.096749  0  1.051441  0  0  0.099007  0  1.049658  0  0  0.104556  0.095101  0  1.052685  0
H  H10  1  0.89767191  0.39258698  0.21630076  1  0  0.086369  0  0.984373  0  0  0.096823  0  1.051377  0  0  0.09908  0  1.049589  0  0  0.104592  0.095176  0  1.052626  0
H  H11  1  0.60233755  0.60740964  0.71630294  1  0  0.086316  0  0.984357  0  0  0.096758  0  1.051396  0  0  0.099013  0  1.04961  0  0  0.104564  0.095111  0  1.052642  0
H  H12  1  0.30750985  0.39586634  0.73069607  1  0  0.113664  0  0.962791  0  0  0.12239  0  1.024514  0  0  0.126325  0  1.022503  0  0  0.106317  0.119539  0  1.026185  0
H  H13  1  0.19250371  0.60411574  0.23069948  1  0  0.113625  0  0.962891  0  0  0.122373  0  1.024598  0  0  0.126305  0  1.022596  0  0  0.106335  0.119521  0  1.026265  0
H  H14  1  0.80749585  0.10411632  0.26929626  1  0  0.113713  0  0.962822  0  0  0.122449  0  1.024534  0  0  0.126377  0  1.022538  0  0  0.106384  0.119598  0  1.026199  0
H  H15  1  0.69250729  0.89587783  0.76930420  1  0  0.113658  0  0.962941  0  0  0.122397  0  1.024656  0  0  0.126327  0  1.022655  0  0  0.106332  0.119547  0  1.026321  0
H  H16  1  0.07177348  0.63883069  0.80257316  1  0  0.076511  0  0.947693  0  0  0.087526  0  1.010497  0  0  0.089576  0  1.008975  0  0  0.113153  0.086027  0  1.011619  0
H  H17  1  0.42826778  0.36115969  0.30257520  1  0  0.076461  0  0.947744  0  0  0.087502  0  1.01052  0  0  0.08955  0  1.009005  0  0  0.113113  0.086005  0  1.011635  0
H  H18  1  0.57173380  0.86116171  0.19742106  1  0  0.076445  0  0.947858  0  0  0.087518  0  1.010585  0  0  0.089566  0  1.009068  0  0  0.11315  0.086021  0  1.011701  0
H  H19  1  0.92823328  0.13884212  0.69742808  1  0  0.076491  0  0.947809  0  0  0.087493  0  1.010637  0  0  0.089543  0  1.009116  0  0  0.113152  0.085995  0  1.011761  0
C  C20  1  0.03701536  0.33013094  0.91263098  1  0  0.136337  0  3.638096  0  0  0.096453  0  3.887075  0  0  0.105454  0  3.903947  0  0  0.052042  0.090588  0  3.875886  0
C  C21  1  0.46299324  0.66987260  0.41263461  1  0  0.136228  0  3.637579  0  0  0.096304  0  3.88659  0  0  0.105304  0  3.903455  0  0  0.051938  0.090451  0  3.875424  0
C  C22  1  0.53697265  0.16986740  0.08736585  1  0  0.136192  0  3.637562  0  0  0.096253  0  3.886529  0  0  0.105258  0  3.903399  0  0  0.051925  0.09038  0  3.875342  0
C  C23  1  0.96301035  0.83013868  0.58736953  1  0  0.13613  0  3.637755  0  0  0.096297  0  3.886733  0  0  0.105275  0  3.903582  0  0  0.051975  0.090453  0  3.87557  0
C  C24  1  0.18512586  0.18996778  0.87808714  1  0  -0.104  0  3.71572  0  0  -0.075301  0  3.948662  0  0  -0.088557  0  3.97177  0  0  -0.010256  -0.067016  0  3.933563  0
C  C25  1  0.31488128  0.81003101  0.37808296  1  0  -0.10387  0  3.715698  0  0  -0.075143  0  3.948638  0  0  -0.088398  0  3.971727  0  0  -0.01015  -0.066913  0  3.933611  0
C  C26  1  0.68509256  0.31003041  0.12191508  1  0  -0.10387  0  3.715791  0  0  -0.075119  0  3.94869  0  0  -0.088396  0  3.971825  0  0  -0.010147  -0.066811  0  3.933567  0
C  C27  1  0.81488911  0.68997015  0.62191628  1  0  -0.103732  0  3.715628  0  0  -0.075138  0  3.948649  0  0  -0.088317  0  3.971655  0  0  -0.010153  -0.066923  0  3.933647  0
C  C28  1  0.23739570  0.02115866  0.91332255  1  0  0.650843  0  3.908829  0  0  0.595042  0  4.197162  0  0  0.632346  0  4.192279  0  0  0.203977  0.569733  0  4.199638  0
C  C29  1  0.26261839  0.97884362  0.41332122  1  0  0.650987  0  3.90875  0  0  0.595062  0  4.197294  0  0  0.632395  0  4.192369  0  0  0.2039  0.569762  0  4.199783  0
C  C30  1  0.73734378  0.47882921  0.08667253  1  0  0.650924  0  3.908762  0  0  0.595064  0  4.197234  0  0  0.632393  0  4.19232  0  0  0.20393  0.569742  0  4.199717  0
C  C31  1  0.76263652  0.52116786  0.58667822  1  0  0.650677  0  3.909028  0  0  0.594878  0  4.197452  0  0  0.632179  0  4.192539  0  0  0.203829  0.569584  0  4.199939  0
C  C32  1  0.28484966  0.21431790  0.81186148  1  0  -0.013066  0  3.71428  0  0  -0.044471  0  3.961913  0  0  -0.03865  0  3.980622  0  0  -0.066227  -0.047947  0  3.949139  0
C  C33  1  0.21516817  0.78568171  0.31186452  1  0  -0.013258  0  3.714551  0  0  -0.04458  0  3.962182  0  0  -0.038771  0  3.980904  0  0  -0.066282  -0.048034  0  3.949411  0
C  C34  1  0.78482806  0.28567506  0.18813243  1  0  -0.01341  0  3.714711  0  0  -0.044782  0  3.962406  0  0  -0.038961  0  3.981128  0  0  -0.066402  -0.048265  0  3.949623  0
C  C35  1  0.71517361  0.71432724  0.68813708  1  0  -0.013343  0  3.714556  0  0  -0.044644  0  3.962269  0  0  -0.03885  0  3.980963  0  0  -0.066334  -0.048095  0  3.949505  0
C  C36  1  0.23678084  0.37512353  0.78280850  1  0  -0.140587  0  3.739237  0  0  -0.14899  0  3.992666  0  0  -0.157988  0  4.014294  0  0  -0.090934  -0.143328  0  3.978342  0
C  C37  1  0.26323488  0.62486633  0.28280626  1  0  -0.140482  0  3.738578  0  0  -0.148945  0  3.992042  0  0  -0.157937  0  4.013664  0  0  -0.09099  -0.143281  0  3.977706  0
C  C38  1  0.73674230  0.12487204  0.21719154  1  0  -0.140524  0  3.738603  0  0  -0.14894  0  3.992034  0  0  -0.157932  0  4.013656  0  0  -0.090971  -0.143277  0  3.977706  0
C  C39  1  0.76323358  0.87513616  0.71719566  1  0  -0.14053  0  3.738755  0  0  -0.148949  0  3.992182  0  0  -0.15795  0  4.013827  0  0  -0.090943  -0.143278  0  3.97783  0
C  C40  1  0.09949992  0.50865478  0.82185247  1  0  0.121952  0  3.713353  0  0  0.090168  0  3.968011  0  0  0.098019  0  3.986433  0  0  0.040123  0.085129  0  3.955601  0
C  C41  1  0.40053904  0.49133996  0.32185762  1  0  0.121866  0  3.713413  0  0  0.090093  0  3.968059  0  0  0.097941  0  3.986483  0  0  0.040219  0.085059  0  3.955641  0
C  C42  1  0.59945379  0.99133631  0.17814064  1  0  0.122034  0  3.713374  0  0  0.090228  0  3.967992  0  0  0.098078  0  3.98641  0  0  0.040258  0.085191  0  3.95558  0
C  C43  1  0.90052118  0.00866573  0.67814478  1  0  0.12196  0  3.713267  0  0  0.09017  0  3.96796  0  0  0.098017  0  3.986382  0  0  0.040199  0.085134  0  3.955552  0
N  N44  1  0.99757212  0.48674168  0.88558927  1  0  -0.32038  0  3.251903  0  0  -0.243164  0  3.530518  0  0  -0.263268  0  3.546766  0  0  -0.334529  -0.229766  0  3.519486  0
N  N45  1  0.50243389  0.51325296  0.38558858  1  0  -0.320404  0  3.25214  0  0  -0.243203  0  3.530784  0  0  -0.263305  0  3.54703  0  0  -0.334583  -0.229807  0  3.519752  0
N  N46  1  0.49754642  0.01324465  0.11441126  1  0  -0.320418  0  3.252018  0  0  -0.243208  0  3.530677  0  0  -0.263308  0  3.546919  0  0  -0.334607  -0.229813  0  3.519652  0
N  N47  1  0.00243080  0.98675749  0.61441285  1  0  -0.320349  0  3.252085  0  0  -0.243108  0  3.53067  0  0  -0.263209  0  3.546921  0  0  -0.334565  -0.229714  0  3.519642  0
O  O48  1  0.09754450  0.01399840  0.97118350  1  0  -0.614626  0  2.130239  0  0  -0.536661  0  2.399742  0  0  -0.570468  0  2.389629  0  0  -0.315313  -0.513176  0  2.405824  0
O  O49  1  0.40245432  0.98601439  0.47118217  1  0  -0.614723  0  2.130291  0  0  -0.536712  0  2.399887  0  0  -0.570532  0  2.389758  0  0  -0.315341  -0.513225  0  2.405975  0
O  O50  1  0.59754410  0.48600245  0.02882054  1  0  -0.614472  0  2.13058  0  0  -0.536559  0  2.400205  0  0  -0.570362  0  2.390072  0  0  -0.31524  -0.513079  0  2.4063  0
O  O51  1  0.90246542  0.51399695  0.52882022  1  0  -0.614441  0  2.130421  0  0  -0.536546  0  2.400027  0  0  -0.570361  0  2.389912  0  0  -0.315227  -0.51306  0  2.406106  0
O  O52  1  0.41784048  0.90352601  0.88332301  1  0  -0.599855  0  2.029267  0  0  -0.52715  0  2.290396  0  0  -0.559488  0  2.280135  0  0  -0.323085  -0.504645  0  2.296664  0
O  O53  1  0.08217720  0.09647035  0.38332135  1  0  -0.599866  0  2.029258  0  0  -0.527134  0  2.290463  0  0  -0.559476  0  2.28017  0  0  -0.322983  -0.504624  0  2.296723  0
O  O54  1  0.91781402  0.59647762  0.11667783  1  0  -0.599987  0  2.028847  0  0  -0.52726  0  2.290004  0  0  -0.559615  0  2.279739  0  0  -0.323091  -0.504743  0  2.296268  0
O  O55  1  0.58217386  0.40353180  0.61667828  1  0  -0.599858  0  2.029203  0  0  -0.527103  0  2.290301  0  0  -0.559453  0  2.280039  0  0  -0.323022  -0.504592  0  2.296562  0
