# generated using pymatgen
data_CuH12C10SO5
_symmetry_space_group_name_H-M   'P 1'
_cell_length_a   7.28301671
_cell_length_b   12.03520685
_cell_length_c   13.65497134
_cell_angle_alpha   103.35230864
_cell_angle_beta   89.99994155
_cell_angle_gamma   90.00013267
_symmetry_Int_Tables_number   1
_chemical_formula_structural   CuH12C10SO5
_chemical_formula_sum   'Cu4 H48 C40 S4 O20'
_cell_volume   1164.54000493
_cell_formula_units_Z   4
loop_
 _symmetry_equiv_pos_site_id
 _symmetry_equiv_pos_as_xyz
  1  'x, y, z'
loop_
 _atom_site_type_symbol
 _atom_site_label
 _atom_site_symmetry_multiplicity
 _atom_site_fract_x
 _atom_site_fract_y
 _atom_site_fract_z
 _atom_site_occupancy
 _atom_site_hle17_ddec_charge
 _atom_site_hle17_ddec_spin_density
 _atom_site_hle17_ddec_sum_bond_order
 _atom_site_hle17_magmom
 _atom_site_hse06_10hf_ddec_charge
 _atom_site_hse06_10hf_ddec_spin_density
 _atom_site_hse06_10hf_ddec_sum_bond_order
 _atom_site_hse06_10hf_magmom
 _atom_site_hse06_ddec_charge
 _atom_site_hse06_ddec_spin_density
 _atom_site_hse06_ddec_sum_bond_order
 _atom_site_hse06_magmom
 _atom_site_pbe_cm5_charge
 _atom_site_pbe_ddec_charge
 _atom_site_pbe_ddec_spin_density
 _atom_site_pbe_ddec_sum_bond_order
 _atom_site_pbe_magmom
Cu  Cu0  1  0.96409883  0.85274087  0.45196410  1  0.993478  0.708037  1.692001  0.511  0.999387  0.805088  2.083324  0.637  1.09139  0.882842  2.014801  0.729  0.698594  0.931402  0.743336  2.146349  0.574
Cu  Cu1  1  0.46410366  0.64725717  0.54803518  1  0.993466  -0.708027  1.691928  -0.511  0.999411  -0.805098  2.083276  -0.637  1.091356  -0.882829  2.014743  -0.729  0.698553  0.931351  -0.743362  2.146327  -0.574
Cu  Cu2  1  0.03590800  0.14725928  0.54803582  1  0.993526  0.708027  1.691859  0.511  0.999497  0.805095  2.08318  0.637  1.091424  0.882829  2.014714  0.729  0.698587  0.931416  0.743328  2.146262  0.574
Cu  Cu3  1  0.53589629  0.35273700  0.45196277  1  0.993495  -0.708031  1.692039  -0.511  0.999391  -0.805085  2.083376  -0.637  1.09136  -0.882822  2.014848  -0.729  0.698618  0.931382  -0.743357  2.146382  -0.574
H  H4  1  0.37532868  0.52509878  0.23983432  1  0.101808  3.2e-05  0.961419  0.0  0.112822  -5.1e-05  1.020659  0.0  0.115609  -5.3e-05  1.018303  0.0  0.103377  0.110746  -3.5e-05  1.022397  0.0
H  H5  1  0.87533611  0.97489912  0.76016645  1  0.101794  -3.3e-05  0.961392  0.0  0.112831  5.1e-05  1.020608  0.0  0.115615  5.3e-05  1.018272  0.0  0.103367  0.110757  3.3e-05  1.022337  0.0
H  H6  1  0.62465892  0.47489710  0.76016398  1  0.101773  3e-05  0.961442  0.0  0.112805  -5.1e-05  1.020668  0.0  0.115583  -5.3e-05  1.01834  0.0  0.103355  0.110729  -3.5e-05  1.022397  0.0
H  H7  1  0.12466522  0.02509762  0.23982984  1  0.101797  -2.9e-05  0.961435  0.0  0.112839  5.2e-05  1.020648  0.0  0.11562  5.3e-05  1.018301  0.0  0.103365  0.110769  3.2e-05  1.022381  0.0
H  H8  1  0.31532343  0.49636272  0.05506595  1  0.107755  2.9e-05  0.951674  0.0  0.118237  -3e-06  1.012975  0.0  0.122426  -6e-06  1.010775  0.0  0.099547  0.115201  2e-06  1.014791  0.0
H  H9  1  0.81531384  0.00363396  0.94493620  1  0.107795  -2.8e-05  0.95169  0.0  0.118275  3e-06  1.012982  0.0  0.122479  6e-06  1.010764  0.0  0.09954  0.115236  -3e-06  1.014805  0.0
H  H10  1  0.68467927  0.50363658  0.94493232  1  0.107743  3.1e-05  0.951701  0.0  0.118199  -3e-06  1.013024  0.0  0.1224  -6e-06  1.01081  0.0  0.099526  0.115164  3e-06  1.014841  0.0
H  H11  1  0.18468062  0.99637132  0.05506111  1  0.107784  -2.8e-05  0.951725  0.0  0.11825  3e-06  1.013035  0.0  0.122459  6e-06  1.01081  0.0  0.099547  0.115216  -3e-06  1.014854  0.0
H  H12  1  0.94526064  0.78496247  0.12068053  1  0.124564  -0.000222  0.965819  0.0  0.13571  6e-06  1.024806  0.0  0.139944  1e-06  1.022706  0.0  0.101786  0.132675  1.9e-05  1.026562  0.0
H  H13  1  0.44525417  0.71503895  0.87932165  1  0.124681  0.000222  0.965824  0.0  0.13587  -6e-06  1.024742  0.0  0.140105  -1e-06  1.022643  0.0  0.101814  0.132834  -2.1e-05  1.026498  0.0
H  H14  1  0.05474481  0.21504281  0.87931825  1  0.124531  -0.000222  0.965859  0.0  0.135692  6e-06  1.024827  0.0  0.139925  1e-06  1.022728  0.0  0.10178  0.132653  1.9e-05  1.026587  0.0
H  H15  1  0.55474578  0.28495694  0.12067592  1  0.124566  0.000223  0.965878  0.0  0.135757  -6e-06  1.024803  0.0  0.139991  -1e-06  1.022705  0.0  0.101797  0.132724  -2.1e-05  1.026556  0.0
H  H16  1  0.84831780  0.69026483  0.96754322  1  0.076959  -3e-06  0.966275  0.0  0.090614  -9e-06  1.039556  0.0  0.090792  -6e-06  1.039976  0.0  0.095089  0.090434  -1e-05  1.039315  0.0
H  H17  1  0.34831306  0.80973728  0.03246210  1  0.076989  1.8e-05  0.966335  0.0  0.090629  9e-06  1.039641  0.0  0.090807  6e-06  1.040062  0.0  0.095086  0.09045  1e-05  1.039398  0.0
H  H18  1  0.15168490  0.30973703  0.03245631  1  0.076965  -1.7e-05  0.966312  0.0  0.090633  -9e-06  1.039582  0.0  0.090813  -6e-06  1.039998  0.0  0.095094  0.090453  -1.3e-05  1.039339  0.0
H  H19  1  0.65168415  0.19026460  0.96753232  1  0.077001  7e-06  0.966244  0.0  0.090642  9e-06  1.039556  0.0  0.09082  6e-06  1.039977  0.0  0.095084  0.090463  9e-06  1.039315  0.0
H  H20  1  0.98493157  0.66474501  0.85611565  1  0.090269  1e-05  0.957791  0.0  0.110783  -6e-06  1.019126  0.0  0.110113  -7e-06  1.021133  0.0  0.102701  0.11113  -5e-06  1.017857  0.0
H  H21  1  0.48492673  0.83525817  0.14388614  1  0.090245  1e-05  0.957779  0.0  0.110773  6e-06  1.019105  0.0  0.110104  7e-06  1.021109  0.0  0.102691  0.111119  2e-06  1.017838  0.0
H  H22  1  0.01506976  0.33525770  0.14388260  1  0.090284  -2e-06  0.957828  0.0  0.110759  -6e-06  1.019185  0.0  0.110089  -7e-06  1.021192  0.0  0.102694  0.111105  -4e-06  1.017918  0.0
H  H23  1  0.51506773  0.16474114  0.85610921  1  0.090196  -7e-06  0.957784  0.0  0.110755  6e-06  1.019089  0.0  0.110087  7e-06  1.02109  0.0  0.102644  0.111102  3e-06  1.017822  0.0
H  H24  1  0.03387250  0.78480402  0.95764507  1  0.074318  -2e-05  0.944562  0.0  0.090354  -2e-05  1.014028  0.0  0.091029  -1.1e-05  1.013193  0.0  0.093468  0.089831  -3e-05  1.014674  0.0
H  H25  1  0.53386650  0.71519508  0.04235835  1  0.074348  3e-05  0.944532  0.0  0.090418  2e-05  1.013975  0.0  0.091094  1.1e-05  1.013139  0.0  0.093475  0.089895  2.7e-05  1.014622  0.0
H  H26  1  0.96613295  0.21519869  0.04235610  1  0.074301  -2.9e-05  0.944562  0.0  0.090324  -2e-05  1.014037  0.0  0.090999  -1.1e-05  1.013198  0.0  0.093461  0.0898  -3.1e-05  1.014685  0.0
H  H27  1  0.46612797  0.28480423  0.95763846  1  0.074301  2.1e-05  0.944609  0.0  0.09039  2e-05  1.014034  0.0  0.091064  1.1e-05  1.0132  0.0  0.093479  0.089867  2.7e-05  1.01468  0.0
H  H28  1  0.40430764  0.89964453  0.30818861  1  0.154214  -0.000367  0.931491  0.0  0.175356  -0.000181  0.985318  0.0  0.177206  -0.000154  0.985379  0.0  0.10771  0.173881  -0.000187  0.985544  0.0
H  H29  1  0.90431116  0.60036025  0.69181284  1  0.154171  0.000367  0.931438  0.0  0.175315  0.000181  0.985276  0.0  0.177164  0.000154  0.985336  0.0  0.1077  0.173843  0.000185  0.985499  0.0
H  H30  1  0.59569231  0.10035390  0.69181242  1  0.15419  -0.000369  0.931533  0.0  0.175338  -0.000181  0.985366  0.0  0.177188  -0.000154  0.985426  0.0  0.107685  0.173864  -0.000186  0.98559  0.0
H  H31  1  0.09569841  0.39964759  0.30818794  1  0.154198  0.000364  0.931474  0.0  0.175335  0.000181  0.985338  0.0  0.177184  0.000154  0.985399  0.0  0.1077  0.173864  0.000185  0.985561  0.0
H  H32  1  0.48992172  0.85043563  0.41417201  1  0.159399  -0.000169  0.965445  0.0  0.172474  -6.3e-05  1.029823  0.0  0.174297  -5e-05  1.030229  0.0  0.103903  0.170989  -6.3e-05  1.029822  0.0
H  H33  1  0.98992558  0.64957183  0.58583067  1  0.159409  0.000162  0.965434  0.0  0.172497  6.3e-05  1.029797  0.0  0.174322  5e-05  1.0302  0.0  0.103916  0.171013  6.2e-05  1.029795  0.0
H  H34  1  0.51007824  0.14956365  0.58583066  1  0.159468  -0.000166  0.965373  0.0  0.172534  -6.3e-05  1.029753  0.0  0.174359  -5e-05  1.030157  0.0  0.103915  0.171047  -6.2e-05  1.029753  0.0
H  H35  1  0.01008536  0.35043685  0.41417102  1  0.159389  0.000167  0.96542  0.0  0.172475  6.3e-05  1.029795  0.0  0.174299  5e-05  1.030199  0.0  0.10389  0.170989  6.1e-05  1.029796  0.0
H  H36  1  0.62294769  0.82380312  0.30015991  1  0.153372  0.000526  0.938753  0.0  0.172279  0.000466  0.995276  0.0  0.174801  0.000282  0.994044  0.0  0.106626  0.17048  0.000643  0.996093  0.001
H  H37  1  0.12295512  0.67620208  0.69984399  1  0.153333  -0.00053  0.938755  -0.001  0.172236  -0.000466  0.995289  0.0  0.174758  -0.000282  0.994057  0.0  0.1066  0.170438  -0.000644  0.996103  -0.001
H  H38  1  0.37704952  0.17619872  0.69984328  1  0.153377  0.000525  0.938732  0.0  0.172284  0.000466  0.995259  0.0  0.174806  0.000282  0.994026  0.0  0.106616  0.170484  0.000645  0.996076  0.001
H  H39  1  0.87706269  0.32380148  0.30015663  1  0.15339  -0.000532  0.938647  -0.001  0.172315  -0.000466  0.99516  0.0  0.174839  -0.000281  0.993923  0.0  0.10661  0.170517  -0.000646  0.995978  -0.001
H  H40  1  0.62929269  0.04273040  0.23009703  1  0.1483  -0.00018  0.958178  0.0  0.165737  -7.7e-05  1.0191  0.0  0.167103  -6.2e-05  1.020471  0.0  0.102575  0.16468  -7.4e-05  1.018311  0.0
H  H41  1  0.12928997  0.45727028  0.76990461  1  0.148233  0.000186  0.958242  0.0  0.165679  7.7e-05  1.019162  0.0  0.167044  6.2e-05  1.020533  0.0  0.102544  0.16462  7.2e-05  1.018372  0.0
H  H42  1  0.37070315  0.95727229  0.76990781  1  0.148312  -0.000187  0.958195  0.0  0.165743  -7.7e-05  1.019132  0.0  0.167108  -6.2e-05  1.020504  0.0  0.102585  0.164685  -7.4e-05  1.018342  0.0
H  H43  1  0.87070586  0.54272901  0.23009513  1  0.148286  0.000192  0.958199  0.0  0.165739  7.7e-05  1.019105  0.0  0.167105  6.2e-05  1.020476  0.0  0.102577  0.164681  7.3e-05  1.018314  0.0
H  H44  1  0.83240925  0.96396561  0.25283864  1  0.163767  0.000999  0.957122  0.0  0.181667  0.000772  1.011769  0.0  0.185393  0.000485  1.009305  0.0  0.105902  0.178883  0.001019  1.013696  0.0
H  H45  1  0.33240376  0.53603479  0.74716413  1  0.163789  -0.000996  0.957101  0.0  0.181689  -0.000773  1.011755  0.0  0.185415  -0.000485  1.009285  0.0  0.105931  0.178902  -0.001021  1.013688  0.0
H  H46  1  0.16759071  0.03603708  0.74716619  1  0.163841  0.000997  0.956973  0.0  0.181714  0.000773  1.011673  0.0  0.185443  0.000485  1.009205  0.0  0.105916  0.178926  0.001018  1.013607  0.0
H  H47  1  0.66759345  0.46396280  0.25283452  1  0.163806  -0.000993  0.95704  0.0  0.181693  -0.000773  1.011713  0.0  0.18542  -0.000485  1.009246  0.0  0.105911  0.178906  -0.001019  1.013641  0.0
H  H48  1  0.81910833  0.11661162  0.30194938  1  0.161987  -8.8e-05  0.936623  0.0  0.179743  -5.8e-05  0.992494  0.0  0.182222  -3.8e-05  0.9912  0.0  0.107335  0.177852  -8.1e-05  0.993544  0.0
H  H49  1  0.31911097  0.38338764  0.69805038  1  0.162023  8.9e-05  0.936565  0.0  0.179754  5.9e-05  0.992475  0.0  0.182235  3.8e-05  0.991175  0.0  0.107332  0.177862  8e-05  0.993527  0.0
H  H50  1  0.18089026  0.88338850  0.69805639  1  0.162022  -8.7e-05  0.936623  0.0  0.179779  -5.8e-05  0.992494  0.0  0.18226  -3.8e-05  0.991194  0.0  0.107378  0.177871  -8.1e-05  0.993562  0.0
H  H51  1  0.68088212  0.61660910  0.30194664  1  0.162087  9e-05  0.936482  0.0  0.179816  5.9e-05  0.992374  0.0  0.182297  3.8e-05  0.991075  0.0  0.107372  0.177901  8.1e-05  0.993452  0.0
C  C52  1  0.25346999  0.68614677  0.38945931  1  0.636092  -0.002072  3.918648  -0.002  0.596454  -0.000933  4.217926  -0.001  0.639843  -0.000695  4.209124  -0.001  0.193454  0.566803  -0.001042  4.221837  -0.001
C  C53  1  0.75347712  0.81384582  0.61054263  1  0.6361  0.002079  3.918595  0.002  0.596417  0.000933  4.217914  0.001  0.639803  0.000695  4.209123  0.001  0.19342  0.566768  0.001046  4.221828  0.001
C  C54  1  0.74652310  0.31385081  0.61054008  1  0.636143  -0.002078  3.918455  -0.002  0.596565  -0.000933  4.217626  -0.001  0.639955  -0.000695  4.20882  -0.001  0.193454  0.566913  -0.001047  4.221539  -0.001
C  C55  1  0.24652833  0.18614665  0.38945569  1  0.635981  0.002082  3.918817  0.002  0.596336  0.000932  4.218104  0.001  0.639722  0.000694  4.209303  0.001  0.193375  0.566692  0.001044  4.222016  0.001
C  C56  1  0.19732299  0.67005018  0.28394135  1  -0.269524  -0.003774  3.806974  -0.002  -0.257186  -0.002209  4.051274  -0.001  -0.278771  -0.002075  4.076722  -0.001  -0.065901  -0.243171  -0.002299  4.034259  -0.001
C  C57  1  0.69732587  0.82993974  0.71606374  1  -0.269557  0.003748  3.807073  0.002  -0.257208  0.00222  4.051363  0.001  -0.278794  0.002078  4.076814  0.001  -0.065919  -0.243192  0.002285  4.034346  0.001
C  C58  1  0.80266873  0.32994483  0.71605970  1  -0.269606  -0.003778  3.806801  -0.002  -0.257313  -0.002217  4.051127  -0.001  -0.278902  -0.002077  4.076585  -0.001  -0.065912  -0.2433  -0.002288  4.034108  -0.001
C  C59  1  0.30267820  0.17005356  0.28393623  1  -0.269568  0.003744  3.807131  0.002  -0.257199  0.002221  4.051374  0.001  -0.278787  0.002078  4.076827  0.001  -0.065887  -0.243192  0.002284  4.034367  0.001
C  C60  1  0.28201308  0.58144790  0.21188595  1  -0.029825  -0.000383  3.799727  0.0  -0.050451  -0.000431  4.048114  0.0  -0.042302  -0.000267  4.066696  0.0  -0.093511  -0.055618  -0.000493  4.035581  0.0
C  C61  1  0.78202301  0.91854644  0.78811560  1  -0.029755  0.000388  3.799681  0.0  -0.050408  0.000429  4.048058  0.0  -0.042269  0.000267  4.066645  0.0  -0.093528  -0.055574  0.000503  4.035532  0.001
C  C62  1  0.71798002  0.41855138  0.78811525  1  -0.029701  -0.000356  3.799693  0.0  -0.050342  -0.00043  4.048074  0.0  -0.042195  -0.000267  4.066657  0.0  -0.093513  -0.055511  -0.000497  4.035549  0.0
C  C63  1  0.21797969  0.08145029  0.21188288  1  -0.029791  0.000373  3.799842  0.0  -0.050446  0.000428  4.048205  0.0  -0.042294  0.000267  4.066787  0.0  -0.093534  -0.055622  0.000498  4.035692  0.0
C  C64  1  0.25000579  0.56500109  0.11003417  1  -0.23443  -0.001116  3.796712  -0.001  -0.25793  -0.000415  4.061275  0.0  -0.268512  -0.000418  4.08021  0.0  -0.128162  -0.251045  -0.000406  4.048597  0.0
C  C65  1  0.74999502  0.93500090  0.88996679  1  -0.234544  0.001116  3.79678  0.001  -0.258028  0.000411  4.061361  0.0  -0.268619  0.000414  4.080289  0.0  -0.128156  -0.251133  0.000401  4.048685  0.0
C  C66  1  0.74999554  0.43499906  0.88996502  1  -0.234449  -0.001143  3.796807  -0.001  -0.257931  -0.000412  4.061349  0.0  -0.268516  -0.000416  4.080265  0.0  -0.128147  -0.251034  -0.000408  4.048671  0.0
C  C67  1  0.25000357  0.06499925  0.11003166  1  -0.234506  0.001125  3.796972  0.001  -0.257991  0.000412  4.061578  0.0  -0.268585  0.000415  4.080506  0.0  -0.12814  -0.251096  0.000411  4.048903  0.0
C  C68  1  0.12931969  0.64021275  0.07641485  1  0.307931  -6.6e-05  3.846808  0.0  0.296585  0.000305  4.105321  0.001  0.313963  0.000267  4.118339  0.001  0.082377  0.284897  0.000297  4.096382  0.001
C  C69  1  0.62931822  0.85978563  0.92358983  1  0.307958  6e-05  3.847024  0.0  0.296547  -0.000304  4.105617  -0.001  0.313926  -0.000263  4.118638  -0.001  0.082318  0.28485  -0.000292  4.096679  -0.001
C  C70  1  0.87067889  0.35978910  0.92358542  1  0.307814  -4.6e-05  3.847069  0.0  0.296545  0.000303  4.105547  0.001  0.313956  0.000266  4.118563  0.001  0.082356  0.28485  0.000303  4.096613  0.001
C  C71  1  0.37068723  0.14021024  0.07641067  1  0.307934  6.8e-05  3.847112  0.0  0.29649  -0.000304  4.105724  -0.001  0.313862  -0.000263  4.118751  -0.001  0.0823  0.284796  -0.000293  4.096785  -0.001
C  C72  1  0.04000240  0.72676436  0.14498288  1  -0.357673  0.007743  3.70803  0.009  -0.376834  0.004466  3.951822  0.005  -0.390681  0.002943  3.968325  0.004  -0.1391  -0.368011  0.005536  3.941142  0.006
C  C73  1  0.54000075  0.77323559  0.85502291  1  -0.3579  -0.007742  3.708291  -0.009  -0.377101  -0.004464  3.952095  -0.005  -0.390949  -0.002945  3.968594  -0.004  -0.13915  -0.368276  -0.005535  3.94142  -0.006
C  C74  1  0.96000030  0.27323920  0.85501701  1  -0.357577  0.007729  3.708028  0.009  -0.376752  0.004466  3.951803  0.005  -0.390595  0.002944  3.968299  0.004  -0.139065  -0.367921  0.005532  3.941112  0.006
C  C75  1  0.45999784  0.22676285  0.14497665  1  -0.357735  -0.007756  3.708223  -0.009  -0.376931  -0.004463  3.95204  -0.005  -0.390779  -0.002945  3.968543  -0.004  -0.139068  -0.3681  -0.005531  3.941346  -0.006
C  C76  1  0.06983339  0.74341291  0.25034840  1  0.375327  -0.001868  3.895061  -0.006  0.368713  0.000475  4.153286  -0.002  0.39242  0.000337  4.167806  -0.002  0.081038  0.353056  0.000591  4.142129  -0.002
C  C77  1  0.56982498  0.75658197  0.74965413  1  0.375242  0.001888  3.895342  0.006  0.368657  -0.000481  4.153518  0.002  0.392366  -0.000339  4.16803  0.002  0.081015  0.352997  -0.000576  4.142366  0.002
C  C78  1  0.93017069  0.25658639  0.74964987  1  0.375167  -0.00187  3.895029  -0.006  0.368546  0.000478  4.153279  -0.002  0.392253  0.000338  4.167798  -0.002  0.080999  0.352889  0.000592  4.142112  -0.002
C  C79  1  0.43016811  0.24341562  0.25034526  1  0.375367  0.001908  3.895013  0.006  0.368768  -0.000482  4.153203  0.002  0.392477  -0.000339  4.167718  0.002  0.081004  0.353109  -0.000582  4.142051  0.002
C  C80  1  0.98730557  0.69535933  0.93781922  1  -0.074762  -9.3e-05  3.661987  0.0  -0.174466  -4.1e-05  3.930688  0.0  -0.167849  -3.2e-05  3.936405  0.0  -0.143974  -0.178764  -5.1e-05  3.926628  0.0
C  C81  1  0.48729802  0.80464043  0.06218406  1  -0.07486  2.1e-05  3.662133  0.0  -0.17462  4e-05  3.930852  0.0  -0.168003  3.3e-05  3.93657  0.0  -0.143976  -0.178918  5.9e-05  3.926788  0.0
C  C82  1  0.01269713  0.30464424  0.06217920  1  -0.074776  -3.8e-05  3.662041  0.0  -0.174382  -4.1e-05  3.930713  0.0  -0.167732  -3.2e-05  3.936434  0.0  -0.143941  -0.178687  -4.8e-05  3.926656  0.0
C  C83  1  0.51269645  0.19535973  0.93781220  1  -0.074786  7.9e-05  3.66206  0.0  -0.174597  4e-05  3.930727  0.0  -0.167984  3.2e-05  3.936445  0.0  -0.143953  -0.178901  6.1e-05  3.926668  0.0
C  C84  1  0.52791982  0.88289187  0.34837443  1  -0.436786  0.00343  3.552936  0.004  -0.51034  0.002018  3.799371  0.003  -0.514036  0.001137  3.803454  0.002  -0.23278  -0.507457  0.002907  3.796803  0.003
C  C85  1  0.02792301  0.61711406  0.65162749  1  -0.436639  -0.003407  3.552796  -0.004  -0.510208  -0.002018  3.799205  -0.003  -0.513901  -0.001138  3.803285  -0.002  -0.232696  -0.507327  -0.0029  3.79665  -0.003
C  C86  1  0.47208151  0.11710911  0.65162932  1  -0.436805  0.003429  3.552894  0.004  -0.510381  0.002017  3.79935  0.003  -0.514077  0.001137  3.803431  0.002  -0.232744  -0.507503  0.002901  3.796806  0.003
C  C87  1  0.97208656  0.38289292  0.34837311  1  -0.436771  -0.00341  3.552748  -0.004  -0.510369  -0.002018  3.799185  -0.003  -0.514066  -0.001137  3.803267  -0.002  -0.232757  -0.507488  -0.002896  3.796623  -0.003
C  C88  1  0.74171308  0.03662745  0.28210185  1  -0.438587  -0.00022  3.53451  0.0  -0.508599  -5.8e-05  3.772578  0.0  -0.511928  -0.00019  3.77548  0.0  -0.23485  -0.506037  0.000133  3.770943  0.0
C  C89  1  0.24170910  0.46337083  0.71789995  1  -0.438559  0.000206  3.534464  0.0  -0.508558  5.9e-05  3.772536  0.0  -0.511884  0.000191  3.775438  0.0  -0.234842  -0.506001  -0.000136  3.770914  0.0
C  C90  1  0.25828550  0.96337353  0.71790263  1  -0.438678  -0.000209  3.534367  0.0  -0.508703  -5.9e-05  3.772467  0.0  -0.512034  -0.00019  3.77537  0.0  -0.234918  -0.50613  0.000139  3.770854  0.0
C  C91  1  0.75828536  0.53662590  0.28209999  1  -0.438703  0.000186  3.534349  0.0  -0.508698  5.9e-05  3.772396  0.0  -0.51203  0.000191  3.775303  0.0  -0.234901  -0.506118  -0.000132  3.770789  0.0
S  S92  1  0.64149761  0.01627825  0.39683738  1  0.740084  0.014228  3.548629  0.009  0.721543  0.011734  4.003093  0.008  0.738014  0.00751  3.999961  0.005  0.305808  0.709382  0.015712  4.004015  0.01
S  S93  1  0.14149801  0.48372586  0.60316642  1  0.740051  -0.014232  3.548511  -0.009  0.721493  -0.011737  4.002968  -0.008  0.737961  -0.007513  3.999832  -0.005  0.305781  0.709328  -0.015715  4.00389  -0.01
S  S94  1  0.35850235  0.98372272  0.60316930  1  0.740183  0.014229  3.548591  0.009  0.72167  0.011736  4.003017  0.008  0.738138  0.007512  3.99988  0.005  0.305856  0.709511  0.015718  4.003934  0.01
S  S95  1  0.85849920  0.51627599  0.39683385  1  0.740185  -0.014226  3.548596  -0.009  0.721655  -0.011735  4.003043  -0.008  0.738121  -0.007512  3.999916  -0.005  0.305845  0.709498  -0.015713  4.00396  -0.01
O  O96  1  0.16544607  0.75013202  0.46334847  1  -0.643535  0.089836  2.150484  0.119  -0.636222  0.060485  2.47607  0.087  -0.678281  0.045974  2.459484  0.07  -0.334485  -0.605759  0.069428  2.486648  0.096
O  O97  1  0.66546409  0.74985532  0.53665025  1  -0.643616  -0.089833  2.150573  -0.119  -0.636295  -0.060478  2.476183  -0.087  -0.678343  -0.045972  2.45959  -0.07  -0.334476  -0.605794  -0.069424  2.486689  -0.096
O  O98  1  0.83455251  0.24987069  0.53665125  1  -0.643504  0.089832  2.150451  0.119  -0.636226  0.060479  2.476  0.087  -0.678266  0.045971  2.459403  0.07  -0.334395  -0.605736  0.06942  2.486559  0.096
O  O99  1  0.33453724  0.25013971  0.46334641  1  -0.643505  -0.089838  2.150626  -0.119  -0.636168  -0.06048  2.476196  -0.087  -0.678227  -0.045973  2.459634  -0.07  -0.334453  -0.605659  -0.069426  2.486655  -0.096
O  O100  1  0.40030602  0.63505337  0.40669781  1  -0.578021  -0.048334  2.093233  -0.064  -0.53911  -0.033814  2.367154  -0.049  -0.581253  -0.028696  2.358411  -0.043  -0.319666  -0.508728  -0.03532  2.372393  -0.049
O  O101  1  0.90030511  0.86494374  0.59329839  1  -0.577989  0.048328  2.093169  0.064  -0.539004  0.033811  2.367041  0.049  -0.581155  0.028691  2.358318  0.043  -0.319632  -0.50864  0.035309  2.372295  0.049
O  O102  1  0.59968707  0.36493825  0.59329888  1  -0.578095  -0.048325  2.0933  -0.064  -0.539128  -0.03381  2.367135  -0.049  -0.581273  -0.028693  2.358395  -0.043  -0.319704  -0.508759  -0.035316  2.372386  -0.049
O  O103  1  0.09970034  0.13504788  0.40669683  1  -0.577921  0.048327  2.09317  0.064  -0.539049  0.033809  2.367142  0.049  -0.581184  0.028691  2.358404  0.043  -0.319617  -0.50867  0.035308  2.372392  0.049
O  O104  1  0.97892518  0.82738849  0.30947094  1  -0.603297  0.097735  2.112165  0.129  -0.581563  0.058873  2.407887  0.085  -0.625459  0.044195  2.400343  0.067  -0.354424  -0.550454  0.06716  2.412605  0.092
O  O105  1  0.47891339  0.67260526  0.69053623  1  -0.603197  -0.097727  2.112111  -0.128  -0.581467  -0.058874  2.407805  -0.085  -0.625343  -0.044196  2.400234  -0.067  -0.354336  -0.550343  -0.067152  2.412511  -0.092
O  O106  1  0.02109126  0.17261336  0.69053153  1  -0.603267  0.097743  2.112161  0.129  -0.581529  0.058877  2.407886  0.085  -0.625404  0.044199  2.400324  0.067  -0.35443  -0.550387  0.067166  2.41256  0.092
O  O107  1  0.52108245  0.32739231  0.30946681  1  -0.603308  -0.097744  2.112022  -0.129  -0.581577  -0.058878  2.407749  -0.085  -0.625462  -0.0442  2.400182  -0.067  -0.354406  -0.550473  -0.067162  2.412464  -0.092
O  O108  1  0.11091309  0.62204145  0.97447342  1  -0.258523  0.000481  2.330481  0.001  -0.180717  0.000318  2.566177  0.0  -0.199093  0.000221  2.56813  0.0  -0.189457  -0.167739  0.000381  2.564254  0.0
O  O109  1  0.61090492  0.87796032  0.02552978  1  -0.258315  -0.000474  2.330705  -0.001  -0.18047  -0.000317  2.566411  0.0  -0.198853  -0.000222  2.568375  0.0  -0.189356  -0.16749  -0.000376  2.564484  0.0
O  O110  1  0.88909099  0.37796469  0.02552481  1  -0.258385  0.000476  2.33056  0.001  -0.180714  0.000318  2.566299  0.0  -0.199169  0.000221  2.568299  0.0  -0.189471  -0.167734  0.000386  2.564377  0.0
O  O111  1  0.38909504  0.12203726  0.97446960  1  -0.258388  -0.000479  2.330668  -0.001  -0.180492  -0.000317  2.566364  0.0  -0.198865  -0.000222  2.568322  0.0  -0.189385  -0.167514  -0.000377  2.564437  0.0
O  O112  1  0.79598877  0.98869168  0.46425018  1  -0.644659  0.054814  2.057386  0.074  -0.615086  0.037879  2.380879  0.055  -0.64842  0.029051  2.365623  0.045  -0.354971  -0.589565  0.043731  2.390866  0.061
O  O113  1  0.29599316  0.51131378  0.53575366  1  -0.644695  -0.054825  2.057388  -0.074  -0.615078  -0.037881  2.380835  -0.055  -0.648403  -0.029054  2.365565  -0.045  -0.355019  -0.589544  -0.043724  2.390815  -0.061
O  O114  1  0.20401256  0.01130930  0.53575576  1  -0.644796  0.054821  2.057519  0.074  -0.615185  0.037882  2.380925  0.055  -0.648513  0.029053  2.365663  0.045  -0.355023  -0.589656  0.043724  2.39092  0.061
O  O115  1  0.70400680  0.48868806  0.46424807  1  -0.644783  -0.05482  2.057418  -0.074  -0.615177  -0.037881  2.380879  -0.055  -0.648505  -0.029054  2.365613  -0.045  -0.355017  -0.589653  -0.04372  2.390862  -0.061
