# generated using pymatgen
data_BaH6C7N2O9
_symmetry_space_group_name_H-M   'P 1'
_cell_length_a   4.36425278
_cell_length_b   11.00914514
_cell_length_c   23.63840884
_cell_angle_alpha   93.64292485
_cell_angle_beta   89.99786438
_cell_angle_gamma   89.99845208
_symmetry_Int_Tables_number   1
_chemical_formula_structural   BaH6C7N2O9
_chemical_formula_sum   'Ba4 H24 C28 N8 O36'
_cell_volume   1133.45247027
_cell_formula_units_Z   4
loop_
 _symmetry_equiv_pos_site_id
 _symmetry_equiv_pos_as_xyz
  1  'x, y, z'
loop_
 _atom_site_type_symbol
 _atom_site_label
 _atom_site_symmetry_multiplicity
 _atom_site_fract_x
 _atom_site_fract_y
 _atom_site_fract_z
 _atom_site_occupancy
 _atom_site_hle17_bader_spin_density
 _atom_site_hle17_ddec_charge
 _atom_site_hle17_ddec_spin_density
 _atom_site_hle17_ddec_sum_bond_order
 _atom_site_hle17_magmom
 _atom_site_hse06_10hf_bader_charge
 _atom_site_hse06_10hf_bader_spin_density
 _atom_site_hse06_10hf_ddec_charge
 _atom_site_hse06_10hf_ddec_spin_density
 _atom_site_hse06_10hf_ddec_sum_bond_order
 _atom_site_hse06_10hf_magmom
 _atom_site_hse06_bader_spin_density
 _atom_site_hse06_ddec_charge
 _atom_site_hse06_ddec_spin_density
 _atom_site_hse06_ddec_sum_bond_order
 _atom_site_hse06_magmom
 _atom_site_pbe_bader_spin_density
 _atom_site_pbe_cm5_charge
 _atom_site_pbe_ddec_charge
 _atom_site_pbe_ddec_spin_density
 _atom_site_pbe_ddec_sum_bond_order
 _atom_site_pbe_magmom
Ba  Ba0  1  0.61404142  0.70719757  0.98843717  1  0  1.632092  0  1.182094  0  1.71023  0  1.485293  0  1.58269  0  0  1.526468  0  1.53788  0  0  0.974936  1.454896  0  1.614573  0
Ba  Ba1  1  0.11406848  0.79280329  0.51155835  1  0  1.632062  0  1.182108  0  1.71031  0  1.485293  0  1.58266  0  0  1.526465  0  1.537853  0  0  0.974949  1.454898  0  1.614546  0
Ba  Ba2  1  0.38594888  0.29280797  0.01155190  1  0  1.63211  0  1.182149  0  1.710138  0  1.485368  0  1.582568  0  0  1.526538  0  1.537761  0  0  0.975026  1.45498  0  1.614449  0
Ba  Ba3  1  0.88594244  0.20719511  0.48845156  1  0  1.632027  0  1.182221  0  1.710082  0  1.485216  0  1.582784  0  0  1.526395  0  1.537971  0  0  0.974994  1.454824  0  1.614669  0
H  H4  1  0.89118030  0.31197981  0.80759487  1  0  0.1257  0  0.955919  0  0.160084  0  0.125658  0  1.029917  0  0  0.129345  0  1.025926  0  0  0.114307  0.122856  0  1.03296  0
H  H5  1  0.39115922  0.18801037  0.69240552  1  0  0.125529  0  0.955969  0  0.160072  0  0.125448  0  1.030046  0  0  0.129154  0  1.026033  0  0  0.114222  0.122681  0  1.03305  0
H  H6  1  0.10885582  0.68801340  0.19238855  1  0  0.125643  0  0.955736  0  0.16013  0  0.12561  0  1.029731  0  0  0.129272  0  1.025766  0  0  0.114251  0.122798  0  1.032787  0
H  H7  1  0.60886774  0.81199680  0.30760903  1  0  0.125613  0  0.955873  0  0.16018  0  0.125586  0  1.029858  0  0  0.129244  0  1.025896  0  0  0.114227  0.122772  0  1.032916  0
H  H8  1  0.35292603  0.61736794  0.73980935  1  0  0.139568  0  0.95881  0  0.187659  0  0.1351  0  1.038839  0  0  0.139771  0  1.033012  0  0  0.120083  0.131794  0  1.042799  0
H  H9  1  0.85293805  0.88262504  0.76018169  1  0  0.139574  0  0.958803  0  0.188612  0  0.135043  0  1.038883  0  0  0.139707  0  1.033073  0  0  0.120087  0.131743  0  1.042827  0
H  H10  1  0.64714676  0.38262466  0.26018165  1  0  0.139472  0  0.958894  0  0.187411  0  0.135133  0  1.03877  0  0  0.139797  0  1.032961  0  0  0.120106  0.131828  0  1.042728  0
H  H11  1  0.14712328  0.11738796  0.23982847  1  0  0.139473  0  0.958983  0  0.187544  0  0.135038  0  1.03894  0  0  0.139703  0  1.033129  0  0  0.120095  0.131736  0  1.042893  0
H  H12  1  0.22953282  0.96247608  0.94936093  1  0  0.433652  0  0.862762  0  0.668413  0  0.40406  0  0.923603  0  0  0.414994  0  0.90741  0  0  0.30065  0.396313  0  0.93507  0
H  H13  1  0.72955821  0.53752049  0.55063744  1  0  0.433864  0  0.862473  0  0.668425  0  0.404179  0  0.923468  0  0  0.415134  0  0.907244  0  0  0.300716  0.396407  0  0.934957  0
H  H14  1  0.77032917  0.03751309  0.05062737  1  0  0.43374  0  0.862664  0  0.668669  0  0.404062  0  0.923651  0  0  0.415009  0  0.907445  0  0  0.300664  0.396308  0  0.935124  0
H  H15  1  0.27040230  0.46248691  0.44937416  1  0  0.433657  0  0.862771  0  0.668772  0  0.403886  0  0.923882  0  0  0.414866  0  0.907637  0  0  0.300614  0.396113  0  0.935374  0
H  H16  1  0.19562433  0.94668635  0.01380280  1  0  0.413003  0  0.850627  0  0.620989  0  0.395671  0  0.907492  0  0  0.403915  0  0.898362  0  0  0.325382  0.389728  0  0.914158  0
H  H17  1  0.69567075  0.55329918  0.48619390  1  0  0.412895  0  0.850574  0  0.620991  0  0.395577  0  0.907422  0  0  0.40382  0  0.89829  0  0  0.325347  0.38963  0  0.914096  0
H  H18  1  0.80415287  0.05329038  0.98618111  1  0  0.413129  0  0.850436  0  0.620722  0  0.395805  0  0.907256  0  0  0.404048  0  0.898128  0  0  0.325413  0.389862  0  0.913923  0
H  H19  1  0.30416373  0.44670607  0.51382182  1  0  0.413024  0  0.85051  0  0.620657  0  0.395681  0  0.907373  0  0  0.403928  0  0.898231  0  0  0.325331  0.389735  0  0.914046  0
H  H20  1  0.83414323  0.84966530  0.09685771  1  0  0.436441  0  0.84351  0  0.65278  0  0.405808  0  0.912215  0  0  0.416234  0  0.896786  0  0  0.308518  0.398383  0  0.923192  0
H  H21  1  0.33426001  0.65033212  0.40314160  1  0  0.436571  0  0.84324  0  0.652348  0  0.405966  0  0.911946  0  0  0.416388  0  0.896524  0  0  0.308554  0.398539  0  0.922929  0
H  H22  1  0.16582645  0.15032950  0.90314017  1  0  0.436577  0  0.843388  0  0.652648  0  0.405932  0  0.912071  0  0  0.416356  0  0.896644  0  0  0.308542  0.398501  0  0.923061  0
H  H23  1  0.66577383  0.34967848  0.59686421  1  0  0.436516  0  0.843461  0  0.652404  0  0.405843  0  0.912202  0  0  0.41627  0  0.896772  0  0  0.308477  0.398412  0  0.923191  0
H  H24  1  0.52464741  0.91640350  0.11327991  1  0  0.421797  0  0.877873  0  0.659168  0  0.385527  0  0.950592  0  0  0.396632  0  0.934016  0  0  0.298702  0.377621  0  0.962381  0
H  H25  1  0.02475409  0.58359816  0.38672247  1  0  0.421846  0  0.877834  0  0.660196  0  0.385642  0  0.950468  0  0  0.396733  0  0.933889  0  0  0.298718  0.377748  0  0.962243  0
H  H26  1  0.47534060  0.08359086  0.88672345  1  0  0.421914  0  0.877734  0  0.659203  0  0.385643  0  0.950456  0  0  0.396744  0  0.933886  0  0  0.298752  0.377749  0  0.962227  0
H  H27  1  0.97529578  0.41640661  0.61327630  1  0  0.421898  0  0.877807  0  0.660244  0  0.38559  0  0.950577  0  0  0.396695  0  0.934002  0  0  0.298688  0.377691  0  0.962358  0
C  C28  1  0.84143218  0.40216520  0.91639603  1  0  0.704882  0  3.889099  0  1.635937  0  0.657269  0  4.177425  0  0  0.693407  0  4.167035  0  0  0.228314  0.632717  0  4.183726  0
C  C29  1  0.34141036  0.09782808  0.58360694  1  0  0.704893  0  3.888869  0  1.636237  0  0.657271  0  4.177142  0  0  0.693404  0  4.16675  0  0  0.228332  0.63272  0  4.183451  0
C  C30  1  0.15856499  0.59782939  0.08359295  1  0  0.704877  0  3.888726  0  1.635529  0  0.657324  0  4.176865  0  0  0.693444  0  4.166491  0  0  0.228404  0.632772  0  4.18317  0
C  C31  1  0.65859598  0.90217922  0.41640592  1  0  0.704944  0  3.888939  0  1.635447  0  0.657316  0  4.177109  0  0  0.693431  0  4.166742  0  0  0.228456  0.632778  0  4.183396  0
C  C32  1  0.99086274  0.46037823  0.86778469  1  0  -0.171153  0  3.674475  0  -0.047385  0  -0.15521  0  3.923009  0  0  -0.171361  0  3.943399  0  0  -0.012157  -0.145051  0  3.909506  0
C  C33  1  0.49083966  0.03961368  0.63221385  1  0  -0.171781  0  3.674895  0  -0.047594  0  -0.155674  0  3.923279  0  0  -0.171829  0  3.943674  0  0  -0.012359  -0.145519  0  3.909795  0
C  C34  1  0.00915505  0.53960649  0.13220213  1  0  -0.171521  0  3.674663  0  -0.047419  0  -0.155335  0  3.922836  0  0  -0.171482  0  3.943222  0  0  -0.012411  -0.145178  0  3.909335  0
C  C35  1  0.50918042  0.96039908  0.36779926  1  0  -0.171479  0  3.674573  0  -0.047415  0  -0.155162  0  3.922625  0  0  -0.171312  0  3.943008  0  0  -0.012369  -0.145006  0  3.909118  0
C  C36  1  0.99252931  0.40185450  0.81450746  1  0  -0.044563  0  3.685282  0  -0.006987  0  -0.084757  0  3.949585  0  0  -0.075524  0  3.965437  0  0  -0.062596  -0.090215  0  3.938716  0
C  C37  1  0.49250013  0.09813638  0.68549230  1  0  -0.044216  0  3.685134  0  -0.006924  0  -0.084362  0  3.949471  0  0  -0.075147  0  3.965317  0  0  -0.062463  -0.089845  0  3.938584  0
C  C38  1  0.00750682  0.59813295  0.18547950  1  0  -0.04427  0  3.684788  0  -0.006917  0  -0.084595  0  3.949084  0  0  -0.075335  0  3.964942  0  0  -0.062492  -0.090046  0  3.938217  0
C  C39  1  0.50750850  0.90187075  0.31452267  1  0  -0.044171  0  3.684858  0  -0.006565  0  -0.084548  0  3.949103  0  0  -0.075284  0  3.964963  0  0  -0.062421  -0.09  0  3.938237  0
C  C40  1  0.11948450  0.45907946  0.76830904  1  0  0.059307  0  3.724017  0  0.355618  0  0.040259  0  3.987077  0  0  0.027904  0  4.012216  0  0  0.069675  0.047927  0  3.970123  0
C  C41  1  0.61948824  0.04091063  0.73168592  1  0  0.059469  0  3.724241  0  0.355661  0  0.040075  0  3.987552  0  0  0.027716  0  4.012702  0  0  0.069573  0.047742  0  3.970607  0
C  C42  1  0.88055162  0.54090886  0.23167838  1  0  0.059105  0  3.72432  0  0.356322  0  0.040041  0  3.987472  0  0  0.027688  0  4.012608  0  0  0.069649  0.04771  0  3.970515  0
C  C43  1  0.38054331  0.95909859  0.26832576  1  0  0.059258  0  3.724548  0  0.356462  0  0.04017  0  3.987655  0  0  0.027817  0  4.012789  0  0  0.069696  0.047839  0  3.970697  0
C  C44  1  0.25327570  0.57387715  0.77547223  1  0  -0.07778  0  3.713342  0  -0.052889  0  -0.12298  0  3.995938  0  0  -0.112684  0  4.010638  0  0  -0.06428  -0.128989  0  3.985582  0
C  C45  1  0.75325758  0.92611117  0.72452306  1  0  -0.077932  0  3.713319  0  -0.053624  0  -0.123021  0  3.99599  0  0  -0.112737  0  4.010696  0  0  -0.064333  -0.129023  0  3.985635  0
C  C46  1  0.74679479  0.42611017  0.22451641  1  0  -0.077885  0  3.713444  0  -0.052457  0  -0.123138  0  3.995975  0  0  -0.112858  0  4.010699  0  0  -0.064393  -0.12914  0  3.985617  0
C  C47  1  0.24678771  0.07389983  0.27548913  1  0  -0.077875  0  3.713709  0  -0.052263  0  -0.123022  0  3.996073  0  0  -0.112741  0  4.01079  0  0  -0.064366  -0.129027  0  3.985722  0
C  C48  1  0.25800198  0.63106061  0.82931380  1  0  -0.05154  0  3.642343  0  0.272713  0  -0.073388  0  3.906079  0  0  -0.087349  0  3.927475  0  0  0.069386  -0.064823  0  3.892198  0
C  C49  1  0.75799226  0.86893497  0.67068137  1  0  -0.051291  0  3.641665  0  0.271939  0  -0.073049  0  3.905297  0  0  -0.08698  0  3.926644  0  0  0.069557  -0.064497  0  3.891431  0
C  C50  1  0.74205019  0.36892927  0.17067707  1  0  -0.051175  0  3.641746  0  0.271131  0  -0.073054  0  3.905488  0  0  -0.087  0  3.926862  0  0  0.069594  -0.064498  0  3.891617  0
C  C51  1  0.24204616  0.13107981  0.32932930  1  0  -0.051381  0  3.642049  0  0.270895  0  -0.073044  0  3.905585  0  0  -0.086984  0  3.926937  0  0  0.069637  -0.064492  0  3.89173  0
C  C52  1  0.12295387  0.58011279  0.87832531  1  0  0.380843  0  3.853354  0  0.919102  0  0.350387  0  4.131255  0  0  0.374765  0  4.139932  0  0  0.132787  0.334264  0  4.124764  0
C  C53  1  0.62293685  0.91987824  0.62166629  1  0  0.381048  0  3.852981  0  0.919495  0  0.350399  0  4.131038  0  0  0.374773  0  4.139714  0  0  0.132787  0.334278  0  4.124557  0
C  C54  1  0.87707997  0.41987230  0.12165687  1  0  0.380735  0  3.853269  0  0.919061  0  0.350224  0  4.131075  0  0  0.374601  0  4.139748  0  0  0.132676  0.334095  0  4.124602  0
C  C55  1  0.37708323  0.08013095  0.37834581  1  0  0.380525  0  3.853325  0  0.918653  0  0.349958  0  4.131039  0  0  0.374347  0  4.139693  0  0  0.13262  0.333827  0  4.124571  0
N  N56  1  0.09501851  0.40193494  0.71252882  1  0  0.473819  0  3.936736  0  0.286643  0  0.527571  0  4.193523  0  0  0.550082  0  4.203653  0  0  0.041785  0.51259  0  4.186681  0
N  N57  1  0.59504551  0.09805804  0.78746771  1  0  0.473412  0  3.937729  0  0.286495  0  0.527626  0  4.193961  0  0  0.550141  0  4.204089  0  0  0.041919  0.512644  0  4.187118  0
N  N58  1  0.90501074  0.59806244  0.28745945  1  0  0.474137  0  3.937641  0  0.287203  0  0.527882  0  4.194384  0  0  0.550397  0  4.204516  0  0  0.042049  0.512897  0  4.187537  0
N  N59  1  0.40496541  0.90194451  0.21254747  1  0  0.473732  0  3.937541  0  0.285737  0  0.527451  0  4.194338  0  0  0.549964  0  4.204469  0  0  0.041824  0.512469  0  4.187488  0
N  N60  1  0.38071902  0.75313986  0.83477493  1  0  0.511477  0  3.918352  0  0.343746  0  0.577225  0  4.158504  0  0  0.601763  0  4.164344  0  0  0.06395  0.5607  0  4.15466  0
N  N61  1  0.88071929  0.74683998  0.66521659  1  0  0.511289  0  3.918782  0  0.345219  0  0.577131  0  4.158815  0  0  0.601665  0  4.164664  0  0  0.063824  0.560611  0  4.154968  0
N  N62  1  0.61927357  0.24684914  0.16521549  1  0  0.511323  0  3.918582  0  0.34501  0  0.577149  0  4.158714  0  0  0.601681  0  4.16456  0  0  0.063852  0.560628  0  4.154867  0
N  N63  1  0.11928705  0.25316661  0.33479369  1  0  0.511993  0  3.918204  0  0.344862  0  0.577492  0  4.15862  0  0  0.602026  0  4.16446  0  0  0.064043  0.560971  0  4.154776  0
O  O64  1  0.11411133  0.63782347  0.92700876  1  0  -0.687846  0  2.109123  0  -1.237191  0  -0.635478  0  2.373674  0  0  -0.662827  0  2.368367  0  0  -0.423744  -0.615786  0  2.376449  0
O  O65  1  0.61409939  0.86217089  0.57298814  1  0  -0.687739  0  2.109131  0  -1.237603  0  -0.635328  0  2.373764  0  0  -0.662675  0  2.368456  0  0  -0.423688  -0.615642  0  2.376545  0
O  O66  1  0.88589960  0.36216206  0.07297937  1  0  -0.687585  0  2.109287  0  -1.236904  0  -0.635245  0  2.373825  0  0  -0.662591  0  2.368518  0  0  -0.42363  -0.615555  0  2.376606  0
O  O67  1  0.38591381  0.13785073  0.42702835  1  0  -0.687568  0  2.10907  0  -1.23646  0  -0.635197  0  2.373596  0  0  -0.66255  0  2.368279  0  0  -0.423693  -0.615506  0  2.376382  0
O  O68  1  0.64121863  0.46403482  0.94466889  1  0  -0.709465  0  1.996135  0  -1.240937  0  -0.648851  0  2.239051  0  0  -0.676735  0  2.230902  0  0  -0.381876  -0.629091  0  2.24403  0
O  O69  1  0.14119339  0.03596332  0.55533647  1  0  -0.709376  0  1.995811  0  -1.240994  0  -0.64879  0  2.238762  0  0  -0.676678  0  2.230619  0  0  -0.381873  -0.629007  0  2.243694  0
O  O70  1  0.35880375  0.53596347  0.05531942  1  0  -0.709554  0  1.995674  0  -1.241131  0  -0.648984  0  2.238611  0  0  -0.676868  0  2.230468  0  0  -0.381941  -0.629207  0  2.243562  0
O  O71  1  0.85880607  0.96404031  0.44467664  1  0  -0.709404  0  1.995912  0  -1.241192  0  -0.648835  0  2.238881  0  0  -0.676708  0  2.230733  0  0  -0.381856  -0.629081  0  2.243859  0
O  O72  1  0.91887999  0.29439886  0.92794472  1  0  -0.732518  0  1.943645  0  -1.2525  0  -0.670092  0  2.177123  0  0  -0.698306  0  2.166699  0  0  -0.366135  -0.650044  0  2.183684  0
O  O73  1  0.41884816  0.20559367  0.57205644  1  0  -0.732523  0  1.94368  0  -1.252777  0  -0.670063  0  2.17713  0  0  -0.698273  0  2.166704  0  0  -0.366135  -0.650017  0  2.183693  0
O  O74  1  0.08111718  0.70559138  0.07204152  1  0  -0.732464  0  1.943725  0  -1.252579  0  -0.670148  0  2.177291  0  0  -0.698354  0  2.166869  0  0  -0.366144  -0.650106  0  2.183852  0
O  O75  1  0.58116963  0.79440400  0.42795131  1  0  -0.732605  0  1.943598  0  -1.252332  0  -0.670282  0  2.177189  0  0  -0.69849  0  2.166772  0  0  -0.366254  -0.650238  0  2.183744  0
O  O76  1  0.93610367  0.30794422  0.70504842  1  0  -0.376488  0  1.774276  0  -0.50403  0  -0.363933  0  1.979051  0  0  -0.376395  0  1.975732  0  0  -0.138752  -0.355478  0  1.981325  0
O  O77  1  0.43611378  0.19205297  0.79494904  1  0  -0.376411  0  1.774786  0  -0.503846  0  -0.364005  0  1.979398  0  0  -0.376477  0  1.976087  0  0  -0.138812  -0.355538  0  1.981655  0
O  O78  1  0.06393704  0.69205892  0.29493631  1  0  -0.376792  0  1.774573  0  -0.504294  0  -0.364175  0  1.979289  0  0  -0.376657  0  1.975991  0  0  -0.138924  -0.355705  0  1.981538  0
O  O79  1  0.56389255  0.80794897  0.20506230  1  0  -0.376641  0  1.774597  0  -0.503784  0  -0.363935  0  1.97925  0  0  -0.376396  0  1.975927  0  0  -0.138835  -0.355469  0  1.981497  0
O  O80  1  0.22870248  0.44984316  0.67217337  1  0  -0.398921  0  1.788777  0  -0.521988  0  -0.382873  0  1.990076  0  0  -0.395385  0  1.982546  0  0  -0.147441  -0.374419  0  1.995328  0
O  O81  1  0.72874065  0.05015502  0.82781871  1  0  -0.398702  0  1.788984  0  -0.52171  0  -0.382816  0  1.990098  0  0  -0.395318  0  1.982557  0  0  -0.147467  -0.374367  0  1.99535  0
O  O82  1  0.77133365  0.55016267  0.32781190  1  0  -0.398859  0  1.789439  0  -0.521822  0  -0.382947  0  1.990831  0  0  -0.395471  0  1.983316  0  0  -0.147536  -0.374494  0  1.996076  0
O  O83  1  0.27126569  0.94984591  0.17219385  1  0  -0.398675  0  1.789059  0  -0.521623  0  -0.382784  0  1.990454  0  0  -0.39531  0  1.98296  0  0  -0.147418  -0.374326  0  1.995698  0
O  O84  1  0.31565306  0.82348728  0.79758206  1  0  -0.335824  0  1.790523  0  -0.474537  0  -0.327474  0  1.987158  0  0  -0.341139  0  1.98382  0  0  -0.111725  -0.318347  0  1.989621  0
O  O85  1  0.81562781  0.67649685  0.70241093  1  0  -0.335737  0  1.790475  0  -0.47467  0  -0.327448  0  1.98717  0  0  -0.341113  0  1.983822  0  0  -0.111674  -0.318322  0  1.989635  0
O  O86  1  0.68433724  0.17650405  0.20241354  1  0  -0.335732  0  1.790105  0  -0.474693  0  -0.32744  0  1.986778  0  0  -0.341091  0  1.983421  0  0  -0.11169  -0.318307  0  1.989237  0
O  O87  1  0.18439457  0.32351476  0.29759366  1  0  -0.335952  0  1.789836  0  -0.474711  0  -0.327606  0  1.986722  0  0  -0.341247  0  1.983351  0  0  -0.111775  -0.318477  0  1.989185  0
O  O88  1  0.54593318  0.78342630  0.87663372  1  0  -0.400858  0  1.785128  0  -0.524379  0  -0.388537  0  1.984631  0  0  -0.402039  0  1.97834  0  0  -0.159263  -0.379383  0  1.9891  0
O  O89  1  0.04592431  0.71655105  0.62335732  1  0  -0.400825  0  1.785743  0  -0.525055  0  -0.388604  0  1.985311  0  0  -0.402107  0  1.97902  0  0  -0.159207  -0.379455  0  1.989787  0
O  O90  1  0.45404108  0.21657671  0.12336412  1  0  -0.400806  0  1.785825  0  -0.524925  0  -0.388563  0  1.985358  0  0  -0.402062  0  1.979067  0  0  -0.159178  -0.379416  0  1.989832  0
O  O91  1  0.95405224  0.28345968  0.37664681  1  0  -0.401013  0  1.785757  0  -0.524581  0  -0.388756  0  1.985546  0  0  -0.402276  0  1.979281  0  0  -0.159314  -0.379606  0  1.990019  0
O  O92  1  0.18688571  0.90006325  0.97736680  1  0  -0.875553  0  1.820292  0  -1.30288  0  -0.825673  0  1.998021  0  0  -0.845197  0  1.971967  0  0  -0.597141  -0.811691  0  2.016292  0
O  O93  1  0.68695132  0.59993132  0.52262837  1  0  -0.875677  0  1.819912  0  -1.302819  0  -0.825755  0  1.997716  0  0  -0.845292  0  1.971624  0  0  -0.597219  -0.811741  0  2.016064  0
O  O94  1  0.81295108  0.09991719  0.02261644  1  0  -0.875808  0  1.820128  0  -1.302615  0  -0.8258  0  1.997754  0  0  -0.845337  0  1.971672  0  0  -0.59723  -0.81181  0  2.016049  0
O  O95  1  0.31299544  0.40008228  0.47738563  1  0  -0.875574  0  1.820115  0  -1.302678  0  -0.825451  0  1.997895  0  0  -0.845025  0  1.971741  0  0  -0.597064  -0.811441  0  2.016234  0
O  O96  1  0.67669774  0.90361137  0.08212084  1  0  -0.870114  0  1.843866  0  -1.307645  0  -0.810505  0  2.015514  0  0  -0.830255  0  1.982638  0  0  -0.583359  -0.796415  0  2.038614  0
O  O97  1  0.17680851  0.59638879  0.41787836  1  0  -0.870223  0  1.843715  0  -1.308108  0  -0.81067  0  2.015331  0  0  -0.830394  0  1.98253  0  0  -0.583381  -0.796584  0  2.03841  0
O  O98  1  0.32326506  0.09637969  0.91787813  1  0  -0.870328  0  1.843688  0  -1.307559  0  -0.810813  0  2.015317  0  0  -0.830558  0  1.982441  0  0  -0.583424  -0.796724  0  2.038415  0
O  O99  1  0.82322761  0.40361760  0.58212303  1  0  -0.870283  0  1.843782  0  -1.30821  0  -0.810678  0  2.01552  0  0  -0.830437  0  1.982637  0  0  -0.583302  -0.796581  0  2.038611  0
