# generated using pymatgen
data_CoH14C23S2(N2O3)2
_symmetry_space_group_name_H-M   'P 1'
_cell_length_a   9.29301416
_cell_length_b   9.98125275
_cell_length_c   12.69546616
_cell_angle_alpha   84.70347227
_cell_angle_beta   80.34677760
_cell_angle_gamma   71.38311847
_symmetry_Int_Tables_number   1
_chemical_formula_structural   CoH14C23S2(N2O3)2
_chemical_formula_sum   'Co2 H28 C46 S4 N8 O12'
_cell_volume   1099.21272880
_cell_formula_units_Z   2
loop_
 _symmetry_equiv_pos_site_id
 _symmetry_equiv_pos_as_xyz
  1  'x, y, z'
loop_
 _atom_site_type_symbol
 _atom_site_label
 _atom_site_symmetry_multiplicity
 _atom_site_fract_x
 _atom_site_fract_y
 _atom_site_fract_z
 _atom_site_occupancy
 _atom_site_hle17_ddec_charge
 _atom_site_hle17_ddec_spin_density
 _atom_site_hle17_ddec_sum_bond_order
 _atom_site_hle17_magmom
 _atom_site_hse06_10hf_ddec_charge
 _atom_site_hse06_10hf_ddec_spin_density
 _atom_site_hse06_10hf_ddec_sum_bond_order
 _atom_site_hse06_10hf_magmom
 _atom_site_hse06_ddec_charge
 _atom_site_hse06_ddec_spin_density
 _atom_site_hse06_ddec_sum_bond_order
 _atom_site_hse06_magmom
 _atom_site_pbe_cm5_charge
 _atom_site_pbe_ddec_charge
 _atom_site_pbe_ddec_spin_density
 _atom_site_pbe_ddec_sum_bond_order
 _atom_site_pbe_magmom
Co  Co0  1  0.99298293  0.81371432  0.09783622  1  0.996596  -2.919868  1.973425  -2.588  0.960136  -2.872523  2.378195  -2.648  1.037485  -2.914503  2.309048  -2.726  0.667606  0.889351  -2.836479  2.445831  -2.574
Co  Co1  1  0.00701798  0.18628480  0.90216512  1  0.996833  2.919895  1.973358  2.588  0.960226  2.872523  2.378135  2.648  1.037534  2.914513  2.308993  2.726  0.667633  0.889429  2.836478  2.445759  2.574
H  H2  1  0.99907741  0.47553262  0.39844447  1  0.111369  -8e-05  0.983018  0.0  0.117136  -3.8e-05  1.052484  0.0  0.121334  -2.4e-05  1.048328  0.0  0.109231  0.114004  -4.7e-05  1.055544  0.0
H  H3  1  0.00092606  0.52446863  0.60155797  1  0.1114  8.1e-05  0.983059  0.0  0.117168  3.8e-05  1.052513  0.0  0.121366  2.4e-05  1.048355  0.0  0.109254  0.114038  4.7e-05  1.05557  0.0
H  H4  1  0.06197096  0.03934630  0.34896323  1  0.122598  -9.6e-05  0.962716  0.0  0.126811  -3.3e-05  1.034591  0.0  0.131679  -1e-06  1.029342  0.0  0.109022  0.123475  -7.8e-05  1.037927  0.0
H  H5  1  0.93802305  0.96065388  0.65103890  1  0.122587  9.9e-05  0.96264  0.0  0.126748  3.3e-05  1.034575  0.0  0.131613  1e-06  1.029327  0.0  0.108978  0.123412  7.8e-05  1.03791  0.0
H  H6  1  0.08267977  0.33166819  0.07799202  1  0.1215  -0.000403  0.95957  0.0  0.127185  -0.000313  1.027659  0.0  0.131928  -0.000278  1.022987  0.0  0.112373  0.123471  -0.00031  1.031387  0.0
H  H7  1  0.91732078  0.66833199  0.92200929  1  0.121441  0.000403  0.959608  0.0  0.127147  0.000313  1.027678  0.0  0.131892  0.000278  1.023006  0.0  0.112363  0.123432  0.00031  1.031408  0.0
H  H8  1  0.84768010  0.01248201  0.29942540  1  0.107145  -5.6e-05  0.971698  -0.001  0.112143  7.6e-05  1.043318  0.0  0.115011  7.6e-05  1.039132  0.0  0.133885  0.109782  0.000112  1.046728  0.0
H  H9  1  0.15231571  0.98751606  0.70057903  1  0.107157  5.8e-05  0.971687  0.001  0.112161  -7.6e-05  1.043265  0.0  0.115027  -7.6e-05  1.039084  0.0  0.133896  0.109799  -0.000112  1.046679  0.0
H  H10  1  0.62362752  0.82718236  0.12022165  1  0.10693  -9.9e-05  0.933657  0.0  0.118785  -0.00013  0.988001  0.0  0.121322  -8.4e-05  0.986786  0.0  0.120352  0.116831  -0.000171  0.989119  0.0
H  H11  1  0.37636612  0.17281572  0.87978541  1  0.106997  9.7e-05  0.933533  0.0  0.118801  0.000131  0.987935  0.0  0.121334  8.6e-05  0.986727  0.0  0.120346  0.116846  0.000171  0.989054  0.001
H  H12  1  0.40396907  0.00495990  0.26599078  1  0.114826  -0.00022  0.961432  0.0  0.124843  -0.000262  1.023192  0.0  0.126992  -0.000204  1.023053  0.0  0.11902  0.122629  -0.000314  1.024719  0.0
H  H13  1  0.59602602  0.99504027  0.73400964  1  0.114868  0.000216  0.961299  0.0  0.124898  0.000262  1.023042  0.0  0.127047  0.000205  1.022904  0.0  0.119033  0.122683  0.000314  1.02457  0.0
H  H14  1  0.32809819  0.26606645  0.32659098  1  0.112265  2e-06  0.972012  0.0  0.124612  1e-06  1.033325  0.0  0.126109  -1e-06  1.034534  0.0  0.102852  0.123792  1.2e-05  1.032  0.0
H  H15  1  0.67189220  0.73393795  0.67340813  1  0.112294  -3e-06  0.972011  0.0  0.124641  -1e-06  1.033311  0.0  0.12613  1e-06  1.034545  0.0  0.102881  0.123822  -1.2e-05  1.031987  0.0
H  H16  1  0.27218331  0.42733179  0.49004486  1  0.120676  4e-06  0.949776  0.0  0.132263  -7e-06  1.009275  0.0  0.135093  -5e-06  1.007674  0.0  0.103737  0.129996  -1.2e-05  1.010496  0.0
H  H17  1  0.72781218  0.57267367  0.50995433  1  0.120716  -4e-06  0.949693  0.0  0.132289  7e-06  1.009209  0.0  0.135116  6e-06  1.007608  0.0  0.103766  0.130024  1.2e-05  1.010432  0.0
H  H18  1  0.72515401  0.22871314  0.67634695  1  0.120012  -3.6e-05  0.941857  0.0  0.133741  -4.6e-05  0.997094  0.0  0.136665  -4.7e-05  0.995401  0.0  0.107447  0.131653  -2.2e-05  0.998165  0.0
H  H19  1  0.27484615  0.77128491  0.32365063  1  0.119979  3.6e-05  0.941885  0.0  0.133721  4.6e-05  0.997095  0.0  0.136632  4.8e-05  0.995434  0.0  0.107419  0.131629  2.2e-05  0.998165  0.0
H  H20  1  0.66747982  0.37959689  0.84483218  1  0.128739  -0.000181  0.973601  0.0  0.136578  -0.000169  1.036595  0.0  0.139218  -0.000151  1.03567  0.0  0.108379  0.134833  -0.000183  1.037114  0.0
H  H21  1  0.33252108  0.62040222  0.15516524  1  0.128751  0.000179  0.97355  0.0  0.136572  0.000168  1.036571  0.0  0.139216  0.000151  1.035633  0.0  0.108371  0.134821  0.000183  1.037104  0.0
H  H22  1  0.54232042  0.71304259  0.85330889  1  0.112467  -0.000189  0.958854  0.0  0.123001  -0.00023  1.020789  0.0  0.125528  -0.000174  1.020002  0.0  0.119304  0.121272  -0.000294  1.021141  0.0
H  H23  1  0.45768663  0.28695440  0.14668477  1  0.112528  0.000189  0.958739  0.0  0.123066  0.000231  1.020667  0.0  0.125591  0.000174  1.019879  0.0  0.119341  0.121335  0.000294  1.021018  0.0
H  H24  1  0.17315628  0.54297447  0.94033779  1  0.110484  4.5e-05  0.964572  -0.001  0.114339  0.000211  1.03676  0.0  0.118065  0.000124  1.032418  0.0  0.132624  0.11133  0.000296  1.040151  0.0
H  H25  1  0.82684607  0.45702359  0.05966031  1  0.110478  -4.3e-05  0.964628  0.001  0.114286  -0.00021  1.036857  0.0  0.118011  -0.000125  1.032516  0.0  0.132621  0.111282  -0.000296  1.040242  0.0
H  H26  1  0.32368570  0.87936347  0.00617658  1  0.11233  -0.000156  0.958823  0.0  0.122915  -0.000185  1.014769  0.0  0.12567  -0.000152  1.013602  0.0  0.119295  0.120609  -0.000197  1.016111  0.0
H  H27  1  0.67632465  0.12063670  0.99381642  1  0.112327  0.000157  0.958819  0.0  0.122915  0.000185  1.01476  0.0  0.125672  0.000151  1.013587  0.0  0.119305  0.120609  0.000197  1.016105  0.0
H  H28  1  0.94276775  0.33132723  0.63740938  1  0.415159  0.00016  0.867952  0.0  0.384774  0.000151  0.94451  0.0  0.397759  4.8e-05  0.930425  0.0  0.307169  0.375687  0.000268  0.954096  0.0
H  H29  1  0.05723788  0.66867085  0.36259224  1  0.415096  -0.00016  0.867942  0.0  0.384741  -0.000151  0.944451  0.0  0.397727  -4.9e-05  0.930364  0.0  0.307184  0.375654  -0.000268  0.954034  0.0
C  C30  1  0.02168118  0.56704230  0.18942844  1  0.628818  0.005808  3.891028  0.01  0.57656  0.001316  4.195348  0.004  0.613013  0.000917  4.19032  0.003  0.203925  0.550995  0.002275  4.19534  0.006
C  C31  1  0.97833173  0.43295686  0.81057377  1  0.628939  -0.005809  3.890868  -0.01  0.576642  -0.001316  4.19519  -0.004  0.613089  -0.000934  4.190171  -0.003  0.203839  0.551063  -0.002275  4.19519  -0.006
C  C32  1  0.04161798  0.41952657  0.23337635  1  -0.078791  -0.003028  3.798459  -0.004  -0.051653  -0.001126  4.037772  -0.002  -0.061249  -0.000576  4.05828  -0.001  -0.024171  -0.046477  -0.00187  4.025453  -0.003
C  C33  1  0.95838874  0.58047151  0.76662514  1  -0.078923  0.003055  3.798526  0.004  -0.051785  0.001128  4.037886  0.002  -0.061381  0.000576  4.058395  0.001  -0.024163  -0.046554  0.00187  4.0255  0.003
C  C34  1  0.02243796  0.39120944  0.34376413  1  -0.067068  0.002421  3.70532  0.003  -0.108829  -8.4e-05  3.95873  0.0  -0.102659  -0.000323  3.9733  0.0  -0.078392  -0.112299  0.001376  3.948666  0.002
C  C35  1  0.97756404  0.60878968  0.65623629  1  -0.067001  -0.002453  3.705323  -0.003  -0.108806  8.3e-05  3.958721  0.0  -0.102629  0.000321  3.973284  0.0  -0.07839  -0.112293  -0.001377  3.948646  -0.002
C  C36  1  0.03119213  0.25465024  0.38519073  1  -0.079639  -0.001329  3.783725  -0.002  -0.056597  -0.000244  4.028159  0.0  -0.067461  -0.000105  4.051147  0.0  -0.020456  -0.048997  -0.000382  4.01021  -0.001
C  C37  1  0.96880807  0.74535102  0.61481212  1  -0.079664  0.001356  3.783723  0.002  -0.056509  0.000245  4.027973  0.0  -0.06738  0.000113  4.050954  0.0  -0.020391  -0.048909  0.000383  4.010025  0.001
C  C38  1  0.01151679  0.22659791  0.50345480  1  0.647972  -1.5e-05  3.829352  0.0  0.597392  -2.6e-05  4.129933  0.0  0.630357  -2.5e-05  4.121637  0.0  0.227628  0.576443  -5.4e-05  4.132158  0.0
C  C39  1  0.98848554  0.77339384  0.49655244  1  0.64799  1.3e-05  3.828613  0.0  0.597414  2.5e-05  4.129121  0.0  0.630395  1.7e-05  4.120799  0.0  0.227715  0.576468  5.4e-05  4.131341  0.0
C  C40  1  0.05886662  0.14489976  0.31595708  1  -0.060482  0.00204  3.662885  0.003  -0.102529  -7.3e-05  3.918523  0.0  -0.096289  -0.000264  3.933693  0.0  -0.071042  -0.10636  0.001176  3.908043  0.002
C  C41  1  0.94112703  0.85510149  0.68404737  1  -0.060475  -0.002077  3.662807  -0.003  -0.10251  7.3e-05  3.9184  0.0  -0.096264  0.000253  3.933566  0.0  -0.071058  -0.106354  -0.001176  3.907949  -0.002
C  C42  1  0.07652304  0.17295025  0.20500178  1  -0.081205  -0.003291  3.75335  -0.005  -0.053931  -0.001431  3.987776  -0.002  -0.065655  -0.001068  4.010259  -0.002  -0.021183  -0.047456  -0.001747  3.977009  -0.003
C  C43  1  0.92347460  0.82704888  0.79500077  1  -0.081183  0.003319  3.753494  0.005  -0.053914  0.001431  3.987877  0.002  -0.065638  0.001071  4.010358  0.002  -0.021179  -0.04744  0.001748  3.977112  0.003
C  C44  1  0.08860738  0.06198701  0.12890241  1  0.658964  0.005527  3.859824  0.008  0.617577  0.004656  4.153549  0.007  0.658253  0.003654  4.145088  0.006  0.219404  0.586003  0.006188  4.159004  0.008
C  C45  1  0.91138151  0.93800893  0.87110147  1  0.658925  -0.005532  3.859792  -0.008  0.617571  -0.004656  4.153454  -0.007  0.658239  -0.003658  4.145006  -0.006  0.219414  0.585997  -0.006188  4.158909  -0.008
C  C46  1  0.06976636  0.30991874  0.16412227  1  -0.064798  0.002417  3.682379  0.003  -0.103275  0.00079  3.930062  0.001  -0.098023  0.000488  3.945983  0.001  -0.074603  -0.10826  0.001215  3.922323  0.001
C  C47  1  0.93024036  0.69007934  0.83587922  1  -0.064669  -0.002446  3.682394  -0.003  -0.103167  -0.000789  3.930072  -0.001  -0.09791  -0.000491  3.94599  -0.001  -0.074549  -0.108167  -0.001216  3.922319  -0.001
C  C48  1  0.75901639  0.98664050  0.26804950  1  0.179687  0.007289  3.608367  0.01  0.120769  0.001334  3.876497  0.002  0.13729  0.001242  3.885843  0.002  0.142481  0.109223  0.002065  3.87034  0.003
C  C49  1  0.24097868  0.01335650  0.73195195  1  0.179664  -0.007288  3.608506  -0.01  0.120774  -0.001333  3.876594  -0.002  0.137294  -0.001238  3.885945  -0.002  0.142447  0.109229  -0.002065  3.870436  -0.003
C  C50  1  0.63762406  0.89400452  0.17788341  1  0.01953  0.002477  3.732258  0.004  -0.011346  0.000127  4.001635  0.0  -0.007815  0.00025  4.019308  0.0  0.003495  -0.013922  4e-05  3.989636  0.0
C  C51  1  0.36236521  0.10599354  0.82212105  1  0.019322  -0.002468  3.732013  -0.004  -0.011507  -0.000127  4.001374  0.0  -0.007978  -0.000252  4.019051  0.0  0.003442  -0.014082  -4.1e-05  3.989376  0.0
C  C52  1  0.52741584  0.98147043  0.24874231  1  -0.076133  -0.004204  3.672181  -0.005  -0.114771  -0.001617  3.930739  -0.002  -0.113873  -0.001367  3.950116  -0.002  -0.005776  -0.115354  -0.001997  3.918943  -0.002
C  C53  1  0.47257560  0.01852761  0.75125715  1  -0.076075  0.004203  3.672144  0.005  -0.114739  0.001617  3.930715  0.002  -0.113837  0.001365  3.950092  0.002  -0.0058  -0.115318  0.001998  3.918914  0.002
C  C54  1  0.54117116  0.14221974  0.38378732  1  0.076926  -0.001072  3.783046  -0.002  0.062332  -0.00054  4.071424  -0.001  0.069029  -0.000431  4.091914  -0.001  0.08212  0.05838  -0.000565  4.058206  -0.001
C  C55  1  0.45882246  0.85778146  0.61620690  1  0.076837  0.001063  3.783198  0.002  0.062305  0.000541  4.071508  0.001  0.069004  0.000433  4.091997  0.001  0.082066  0.058351  0.000565  4.058294  0.001
C  C56  1  0.40349277  0.24914878  0.38664728  1  -0.16825  0.000398  3.803206  0.001  -0.196954  7.2e-05  4.074734  0.0  -0.200408  6.5e-05  4.095541  0.0  -0.1148  -0.194616  9.6e-05  4.059984  0.0
C  C57  1  0.59650125  0.75085456  0.61335225  1  -0.168207  -0.000391  3.803288  -0.001  -0.196942  -7.3e-05  4.074816  0.0  -0.200401  -6.5e-05  4.095618  0.0  -0.114806  -0.194605  -9.6e-05  4.060075  0.0
C  C58  1  0.37334643  0.33504714  0.47539393  1  -0.111554  -0.000528  3.746837  -0.001  -0.135412  -0.000166  4.004919  0.0  -0.136414  -0.000144  4.023908  0.0  -0.109599  -0.134621  -0.000201  3.991436  0.0
C  C59  1  0.62664941  0.66495726  0.52460529  1  -0.111607  0.000517  3.746872  0.001  -0.135446  0.000166  4.004942  0.0  -0.136455  0.000141  4.023953  0.0  -0.109623  -0.134653  0.000201  3.991453  0.0
C  C60  1  0.48881443  0.29323078  0.53907599  1  -0.027586  0.000463  3.822079  0.001  -0.017818  0.000152  4.089172  0.0  -0.017423  0.000131  4.112221  0.0  -0.024326  -0.018365  0.000192  4.074379  0.0
C  C61  1  0.51118689  0.70677680  0.46092152  1  -0.027551  -0.000453  3.822  -0.001  -0.017758  -0.000153  4.089086  0.0  -0.017358  -0.00013  4.112122  0.0  -0.024305  -0.018289  -0.000192  4.074277  0.0
C  C62  1  0.50057225  0.35447244  0.63461814  1  -0.018643  -0.000493  3.826989  -0.001  -0.008668  -0.000216  4.09298  0.0  -0.007791  -0.000173  4.117072  0.0  -0.021124  -0.009201  -0.000213  4.076986  0.0
C  C63  1  0.49942833  0.64553409  0.36538033  1  -0.018681  0.000475  3.826721  0.001  -0.008747  0.000216  4.092778  0.0  -0.007869  0.000172  4.116869  0.0  -0.021147  -0.0093  0.000214  4.076806  0.0
C  C64  1  0.61920626  0.31472980  0.69576080  1  -0.116782  0.000379  3.747687  0.001  -0.140232  9.7e-05  4.005601  0.0  -0.142035  8.1e-05  4.024118  0.0  -0.107115  -0.13946  0.000109  3.993272  0.0
C  C65  1  0.38079389  0.68526825  0.30423600  1  -0.116725  -0.000365  3.747718  0.0  -0.140159  -9.8e-05  4.005628  0.0  -0.141974  -8e-05  4.024156  0.0  -0.107061  -0.139376  -0.000109  3.993298  0.0
C  C66  1  0.58841319  0.39531011  0.78751602  1  -0.14135  -0.000425  3.77174  -0.001  -0.169078  -0.000263  4.035886  0.0  -0.169781  -0.000237  4.053923  0.0  -0.105805  -0.168762  -0.000298  4.023759  0.0
C  C67  1  0.41159024  0.60468794  0.21248037  1  -0.141336  0.000414  3.771734  0.001  -0.169041  0.000262  4.035833  0.0  -0.169751  0.000237  4.053887  0.0  -0.105783  -0.168723  0.000298  4.023691  0.0
C  C68  1  0.44595950  0.49538838  0.79605773  1  0.065938  -0.000128  3.779178  0.0  0.05663  -0.000179  4.061055  0.0  0.060979  -0.000121  4.083301  0.0  0.076672  0.053729  -0.00023  4.046657  0.0
C  C69  1  0.55404503  0.50460968  0.20394009  1  0.065917  0.000147  3.779185  0.0  0.056612  0.000179  4.061058  0.0  0.060963  0.000122  4.083301  0.0  0.07663  0.053713  0.00023  4.046658  0.0
C  C70  1  0.43422302  0.70411751  0.89539511  1  -0.061486  -0.003509  3.660767  -0.004  -0.102449  -0.001098  3.918815  -0.001  -0.101143  -0.001013  3.93694  -0.001  -0.003766  -0.102895  -0.001244  3.906273  -0.001
C  C71  1  0.56578155  0.29588690  0.10460301  1  -0.061544  0.003503  3.660584  0.004  -0.102512  0.001097  3.918628  0.001  -0.101204  0.001018  3.936755  0.001  -0.003792  -0.102955  0.001244  3.906081  0.001
C  C72  1  0.24064220  0.61431726  0.93906003  1  0.158744  0.007901  3.621391  0.01  0.104523  0.002535  3.88743  0.003  0.119485  0.002297  3.897375  0.003  0.135131  0.094147  0.003189  3.880505  0.004
C  C73  1  0.75936090  0.38568503  0.06093686  1  0.158755  -0.007898  3.621361  -0.01  0.104583  -0.002535  3.88742  -0.003  0.119544  -0.00229  3.897367  -0.003  0.135129  0.094202  -0.003188  3.880502  -0.004
C  C74  1  0.32579628  0.78387064  0.97113136  1  0.013333  0.002449  3.743411  0.004  -0.018593  0.000543  4.017053  0.001  -0.015689  0.000604  4.035038  0.001  -0.001483  -0.020835  0.000505  4.004733  0.001
C  C75  1  0.67421297  0.21612637  0.02886675  1  0.013394  -0.002447  3.743379  -0.004  -0.018521  -0.000544  4.016996  -0.001  -0.015615  -0.000607  4.034981  -0.001  -0.001472  -0.020769  -0.000506  4.004675  -0.001
S  S76  1  0.63468943  0.14470136  0.49016709  1  0.117719  0.000111  2.538177  0.0  0.119292  5.1e-05  2.869332  0.0  0.115657  2.9e-05  2.877596  0.0  0.105942  0.120575  9e-05  2.864141  0.0
S  S77  1  0.36530678  0.85530515  0.50982878  1  0.117786  -0.000111  2.538222  0.0  0.119322  -5.3e-05  2.869354  0.0  0.115689  -3.3e-05  2.877615  0.0  0.105992  0.120604  -9e-05  2.864158  0.0
S  S78  1  0.35030403  0.49403326  0.69056343  1  0.101846  0.000108  2.556188  0.0  0.107966  2.8e-05  2.877171  0.0  0.102384  1.6e-05  2.889915  0.0  0.101172  0.110769  6.7e-05  2.86889  0.0
S  S79  1  0.64969942  0.50596796  0.30943193  1  0.101849  -0.000105  2.556002  0.0  0.10797  -2.9e-05  2.877008  0.0  0.102389  -1.8e-05  2.889753  0.0  0.101186  0.110776  -6.7e-05  2.868733  0.0
N  N80  1  0.78097181  0.89842641  0.19074949  1  -0.353486  -0.03575  3.301181  -0.06  -0.310167  -0.025029  3.598897  -0.037  -0.333341  -0.021824  3.610015  -0.032  -0.349396  -0.292715  -0.027728  3.59268  -0.042
N  N81  1  0.21902142  0.10156635  0.80925330  1  -0.353507  0.035744  3.301309  0.06  -0.310156  0.025029  3.59895  0.037  -0.333331  0.021823  3.610069  0.032  -0.349395  -0.292702  0.027728  3.592732  0.042
N  N82  1  0.60615126  0.04007396  0.30605887  1  -0.078399  -0.000651  3.655873  -0.001  0.011016  -0.000589  3.869333  -0.001  -0.004211  -0.000461  3.894854  -0.001  -0.228724  0.020971  -0.000697  3.852052  -0.001
N  N83  1  0.39384418  0.95992515  0.69394001  1  -0.078346  0.000651  3.65591  0.001  0.011047  0.000588  3.869351  0.001  -0.004175  0.000457  3.894869  0.001  -0.228621  0.021005  0.000697  3.852068  0.001
N  N84  1  0.37882149  0.59660841  0.87490354  1  -0.076793  -0.000331  3.643226  -0.001  0.013034  -0.000253  3.856326  0.0  -0.000913  -0.000253  3.881064  0.0  -0.230296  0.022244  -0.000222  3.839707  0.0
N  N85  1  0.62118233  0.40339177  0.12509421  1  -0.076845  0.00033  3.643203  0.001  0.012981  0.000254  3.856299  0.0  -0.000966  0.000244  3.881037  0.0  -0.230324  0.022192  0.000222  3.839679  0.0
N  N86  1  0.20561567  0.72734095  0.99774642  1  -0.373374  -0.031017  3.29881  -0.055  -0.329859  -0.021034  3.596322  -0.035  -0.352544  -0.018283  3.60863  -0.03  -0.345781  -0.312583  -0.023609  3.58823  -0.039
N  N87  1  0.79438344  0.27266345  0.00225003  1  -0.37343  0.03101  3.299078  0.055  -0.329914  0.021035  3.59658  0.035  -0.352594  0.018286  3.608882  0.03  -0.345791  -0.312635  0.023609  3.588486  0.039
O  O88  1  0.97331956  0.60317201  0.09961824  1  -0.593724  -0.041196  2.001558  -0.068  -0.558631  -0.03095  2.263282  -0.049  -0.594347  -0.023223  2.255124  -0.036  -0.299414  -0.528083  -0.040134  2.26614  -0.064
O  O89  1  0.02669623  0.39682185  0.90038322  1  -0.593925  0.041192  2.001624  0.068  -0.558712  0.030949  2.263297  0.049  -0.594417  0.023229  2.25514  0.036  -0.299397  -0.528159  0.040132  2.266158  0.064
O  O90  1  0.05355992  0.65705207  0.23965101  1  -0.612389  -0.026645  2.047699  -0.045  -0.56422  -0.022185  2.292756  -0.036  -0.597967  -0.016711  2.285389  -0.027  -0.294509  -0.53683  -0.027693  2.295643  -0.045
O  O91  1  0.94645155  0.34294814  0.76035130  1  -0.612389  0.026646  2.04745  0.045  -0.564245  0.022186  2.292631  0.036  -0.597992  0.016719  2.285267  0.027  -0.294466  -0.536853  0.027694  2.295526  0.045
O  O92  1  0.94190722  0.34553294  0.55665549  1  -0.570035  0.000328  2.132131  0.001  -0.516069  0.000312  2.358137  0.001  -0.539153  0.000169  2.343535  0.0  -0.335051  -0.499916  0.000471  2.366189  0.001
O  O93  1  0.05809698  0.65446938  0.44334757  1  -0.569944  -0.000327  2.132149  -0.001  -0.515971  -0.000312  2.358085  -0.001  -0.539056  -0.000169  2.343476  0.0  -0.335074  -0.499819  -0.000471  2.366135  -0.001
O  O94  1  0.05486583  0.10817770  0.54633557  1  -0.542864  -0.000292  1.979141  0.0  -0.507751  -0.000145  2.213404  0.0  -0.527597  -9e-05  2.205682  0.0  -0.285077  -0.494386  -0.000188  2.21728  0.0
O  O95  1  0.94513077  0.89183094  0.45366323  1  -0.542913  0.000295  1.978225  0.0  -0.507906  0.000145  2.212564  0.0  -0.527763  9.9e-05  2.204834  0.0  -0.285197  -0.494542  0.000189  2.216438  0.0
O  O96  1  0.08030290  0.94216781  0.16858787  1  -0.593226  -0.032561  2.062793  -0.051  -0.557493  -0.024335  2.332767  -0.035  -0.593809  -0.019471  2.320822  -0.027  -0.301214  -0.526447  -0.02904  2.341023  -0.042
O  O97  1  0.91969218  0.05782920  0.83141673  1  -0.59323  0.032556  2.062616  0.051  -0.5575  0.024333  2.332557  0.035  -0.593807  0.019471  2.320619  0.027  -0.301219  -0.526453  0.029038  2.340814  0.042
O  O98  1  0.10500293  0.09322453  0.02888582  1  -0.634605  0.044131  2.164172  0.068  -0.610082  0.032958  2.462319  0.046  -0.648728  0.023841  2.449025  0.031  -0.317194  -0.573408  0.045814  2.467858  0.067
O  O99  1  0.89498890  0.90677565  0.97111894  1  -0.634565  -0.044131  2.164049  -0.068  -0.610079  -0.032955  2.462209  -0.046  -0.64875  -0.023837  2.448981  -0.031  -0.317219  -0.573407  -0.04581  2.467752  -0.067
