# generated using pymatgen
data_Ag2H20W5C28(NO4)4
_symmetry_space_group_name_H-M   'P 1'
_cell_length_a   11.08075497
_cell_length_b   13.32338395
_cell_length_c   13.97766906
_cell_angle_alpha   105.06597528
_cell_angle_beta   113.39541869
_cell_angle_gamma   94.33098618
_symmetry_Int_Tables_number   1
_chemical_formula_structural   Ag2H20W5C28(NO4)4
_chemical_formula_sum   'Ag4 H40 W10 C56 N8 O32'
_cell_volume   1791.23821001
_cell_formula_units_Z   2
loop_
 _symmetry_equiv_pos_site_id
 _symmetry_equiv_pos_as_xyz
  1  'x, y, z'
loop_
 _atom_site_type_symbol
 _atom_site_label
 _atom_site_symmetry_multiplicity
 _atom_site_fract_x
 _atom_site_fract_y
 _atom_site_fract_z
 _atom_site_occupancy
 _atom_site_hle17_bader_spin_density
 _atom_site_hle17_ddec_charge
 _atom_site_hle17_ddec_spin_density
 _atom_site_hle17_ddec_sum_bond_order
 _atom_site_hle17_magmom
 _atom_site_hse06_10hf_bader_spin_density
 _atom_site_hse06_10hf_ddec_charge
 _atom_site_hse06_10hf_ddec_spin_density
 _atom_site_hse06_10hf_ddec_sum_bond_order
 _atom_site_hse06_10hf_magmom
 _atom_site_hse06_bader_spin_density
 _atom_site_hse06_ddec_charge
 _atom_site_hse06_ddec_spin_density
 _atom_site_hse06_ddec_sum_bond_order
 _atom_site_hse06_magmom
 _atom_site_pbe_bader_spin_density
 _atom_site_pbe_cm5_charge
 _atom_site_pbe_ddec_charge
 _atom_site_pbe_ddec_spin_density
 _atom_site_pbe_ddec_sum_bond_order
 _atom_site_pbe_magmom
Ag  Ag0  1  0.06037238  0.51857856  0.21717593  1  0  0.724948  0  1.508948  0  0  0.616281  0  1.982359  0  0  0.63524  0  1.936134  0  0  0.563124  0.603771  0  2.013932  0
Ag  Ag1  1  0.93963008  0.48142151  0.78282623  1  0  0.724917  0  1.508955  0  0  0.616252  0  1.982371  0  0  0.635213  0  1.936136  0  0  0.563101  0.603736  0  2.01394  0
Ag  Ag2  1  0.53500327  0.11414723  0.98664991  1  0  0.678761  0  1.575436  0  0  0.566787  0  2.052476  0  0  0.587885  0  2.005657  0  0  0.569331  0.553471  0  2.083242  0
Ag  Ag3  1  0.46499800  0.88585205  0.01335025  1  0  0.678752  0  1.575437  0  0  0.566782  0  2.052468  0  0  0.587875  0  2.005647  0  0  0.569335  0.553466  0  2.083224  0
H  H4  1  0.21749248  0.61913628  0.98367049  1  0  0.122438  0  0.957382  0  0  0.13139  0  1.018877  0  0  0.135242  0  1.0157  0  0  0.107687  0.128355  0  1.021612  0
H  H5  1  0.78250703  0.38086379  0.01633003  1  0  0.122446  0  0.957358  0  0  0.131395  0  1.018863  0  0  0.135248  0  1.015683  0  0  0.107692  0.128359  0  1.021598  0
H  H6  1  0.93036854  0.63774611  0.53945663  1  0  0.100978  0  0.955692  0  0  0.112691  0  1.01543  0  0  0.114927  0  1.015083  0  0  0.108465  0.111101  0  1.015734  0
H  H7  1  0.06962958  0.36225237  0.46054306  1  0  0.10094  0  0.955694  0  0  0.112726  0  1.015369  0  0  0.114961  0  1.015023  0  0  0.108474  0.111135  0  1.015677  0
H  H8  1  0.34810144  0.65925938  0.88487921  1  0  0.089587  0  0.968423  0  0  0.099786  0  1.031744  0  0  0.101886  0  1.031463  0  0  0.098887  0.098221  0  1.032221  0
H  H9  1  0.65189827  0.34074149  0.11512157  1  0  0.089602  0  0.968427  0  0  0.099804  0  1.031744  0  0  0.101903  0  1.031463  0  0  0.098895  0.098239  0  1.032222  0
H  H10  1  0.61605611  0.47774611  0.58598071  1  0  0.09415  0  0.947396  0  0  0.105224  0  1.004184  0  0  0.107712  0  1.003528  0  0  0.103856  0.103284  0  1.005075  0
H  H11  1  0.38394320  0.52225317  0.41401955  1  0  0.09414  0  0.947396  0  0  0.105216  0  1.004184  0  0  0.107705  0  1.003529  0  0  0.103847  0.103277  0  1.005077  0
H  H12  1  0.59581683  0.66229273  0.96308320  1  0  0.108649  0  0.963365  0  0  0.118628  0  1.024147  0  0  0.122217  0  1.021335  0  0  0.103013  0.115866  0  1.026423  0
H  H13  1  0.40418267  0.33770734  0.03691661  1  0  0.108652  0  0.96336  0  0  0.118632  0  1.024139  0  0  0.122221  0  1.021326  0  0  0.103013  0.115869  0  1.026416  0
H  H14  1  0.70960753  0.62604747  0.13882493  1  0  0.104519  0  0.941677  0  0  0.115589  0  0.999244  0  0  0.11843  0  0.998521  0  0  0.104571  0.113591  0  0.999809  0
H  H15  1  0.29039218  0.37395340  0.86117513  1  0  0.104513  0  0.941677  0  0  0.115581  0  0.99925  0  0  0.118422  0  0.998527  0  0  0.104565  0.113583  0  0.999815  0
H  H16  1  0.81189111  0.62461267  0.65508397  1  0  0.108915  0  0.974966  0  0  0.115222  0  1.042449  0  0  0.119337  0  1.038931  0  0  0.103099  0.112246  0  1.045122  0
H  H17  1  0.18810721  0.37538661  0.34491527  1  0  0.108868  0  0.975022  0  0  0.115211  0  1.042463  0  0  0.119325  0  1.038944  0  0  0.103094  0.112233  0  1.045138  0
H  H18  1  0.64574418  0.36266772  0.28016013  1  0  0.109174  0  0.946635  0  0  0.12086  0  1.004651  0  0  0.123502  0  1.003458  0  0  0.11007  0.119017  0  1.005483  0
H  H19  1  0.35425512  0.63733156  0.71983870  1  0  0.109157  0  0.946648  0  0  0.120845  0  1.004668  0  0  0.123486  0  1.003475  0  0  0.110055  0.118999  0  1.0055  0
H  H20  1  0.57771799  0.58408744  0.23792995  1  0  0.091966  0  0.956052  0  0  0.102948  0  1.01597  0  0  0.105205  0  1.016043  0  0  0.102878  0.101297  0  1.015976  0
H  H21  1  0.42228152  0.41591263  0.76207057  1  0  0.091926  0  0.956026  0  0  0.102907  0  1.015948  0  0  0.105164  0  1.016022  0  0  0.102861  0.101256  0  1.015953  0
H  H22  1  0.53130268  0.34825327  0.39585786  1  0  0.107407  0  0.964732  0  0  0.117715  0  1.024432  0  0  0.120794  0  1.022786  0  0  0.103853  0.115546  0  1.025657  0
H  H23  1  0.46869662  0.65174601  0.60414097  1  0  0.107429  0  0.964721  0  0  0.117738  0  1.024421  0  0  0.120817  0  1.022774  0  0  0.103872  0.11557  0  1.025645  0
H  H24  1  0.05085837  0.07974784  0.41017336  1  0  0.096473  0  0.968873  0  0  0.104841  0  1.033489  0  0  0.107489  0  1.032617  0  0  0.101814  0.102871  0  1.034294  0
H  H25  1  0.94914310  0.92025223  0.58982706  1  0  0.096482  0  0.968883  0  0  0.104852  0  1.033498  0  0  0.107504  0  1.032617  0  0  0.101822  0.102882  0  1.034303  0
H  H26  1  0.53645240  0.22703554  0.65642345  1  0  0.103912  0  0.95391  0  0  0.114793  0  1.014063  0  0  0.117438  0  1.012783  0  0  0.106936  0.112906  0  1.014892  0
H  H27  1  0.46354612  0.77296454  0.34357676  1  0  0.10392  0  0.953878  0  0  0.114792  0  1.014046  0  0  0.117436  0  1.012767  0  0  0.106924  0.112919  0  1.014853  0
H  H28  1  0.19420949  0.16921211  0.34559236  1  0  0.108049  0  0.971683  0  0  0.11692  0  1.033169  0  0  0.12052  0  1.030343  0  0  0.103044  0.114179  0  1.035401  0
H  H29  1  0.80579141  0.83078954  0.65440827  1  0  0.108012  0  0.971711  0  0  0.116885  0  1.033206  0  0  0.120477  0  1.030405  0  0  0.103024  0.114151  0  1.03543  0
H  H30  1  0.15051434  0.06571166  0.60041212  1  0  0.118928  0  0.957909  0  0  0.131155  0  1.013336  0  0  0.134341  0  1.011513  0  0  0.108077  0.128812  0  1.014817  0
H  H31  1  0.84948574  0.93428682  0.39958747  1  0  0.118883  0  0.95792  0  0  0.131113  0  1.013349  0  0  0.134299  0  1.011527  0  0  0.108055  0.128771  0  1.014831  0
H  H32  1  0.43582701  0.24367460  0.46787956  1  0  0.091477  0  0.956436  0  0  0.105122  0  1.012427  0  0  0.107119  0  1.012971  0  0  0.103608  0.10371  0  1.01212  0
H  H33  1  0.56417389  0.75632706  0.53212251  1  0  0.091452  0  0.956437  0  0  0.105094  0  1.012436  0  0  0.107092  0  1.012978  0  0  0.103604  0.103683  0  1.01213  0
H  H34  1  0.52682397  0.07815983  0.35407121  1  0  0.118053  0  0.94963  0  0  0.127449  0  1.010601  0  0  0.13059  0  1.008661  0  0  0.109643  0.125071  0  1.012237  0
H  H35  1  0.47317554  0.92184024  0.64592859  1  0  0.117989  0  0.9496  0  0  0.127384  0  1.010586  0  0  0.130524  0  1.008648  0  0  0.109614  0.125007  0  1.012223  0
H  H36  1  0.90334577  0.22355584  0.37778709  1  0  0.104788  0  0.957509  0  0  0.115438  0  1.019258  0  0  0.118332  0  1.017267  0  0  0.106405  0.113278  0  1.020848  0
H  H37  1  0.09665451  0.77644344  0.62221276  1  0  0.104797  0  0.957499  0  0  0.115444  0  1.019253  0  0  0.118337  0  1.017262  0  0  0.106393  0.113282  0  1.020845  0
H  H38  1  0.00819598  0.25634663  0.58217282  1  0  0.089692  0  0.956208  0  0  0.100935  0  1.014002  0  0  0.103215  0  1.014415  0  0  0.100654  0.099354  0  1.013755  0
H  H39  1  0.99180353  0.74365344  0.41782627  1  0  0.089684  0  0.956202  0  0  0.10093  0  1.013998  0  0  0.10321  0  1.014408  0  0  0.100652  0.099348  0  1.01375  0
H  H40  1  0.63258151  0.10894245  0.55660636  1  0  0.104238  0  0.954777  0  0  0.11605  0  1.011143  0  0  0.118606  0  1.010863  0  0  0.105715  0.114204  0  1.011465  0
H  H41  1  0.36741722  0.89105841  0.44339340  1  0  0.104253  0  0.954773  0  0  0.11606  0  1.01114  0  0  0.118617  0  1.010857  0  0  0.105719  0.114213  0  1.011464  0
H  H42  1  0.87077671  0.19954785  0.66955874  1  0  0.106482  0  0.964451  0  0  0.112399  0  1.031505  0  0  0.116858  0  1.027093  0  0  0.103011  0.109142  0  1.034766  0
H  H43  1  0.12922280  0.80045222  0.33044035  1  0  0.106488  0  0.964445  0  0  0.112408  0  1.031492  0  0  0.116865  0  1.027081  0  0  0.103015  0.10915  0  1.034753  0
W  W44  1  0.10490855  0.06859874  0.85192773  1  0  2.449543  0  4.193178  0  0  2.470025  0  4.710578  0  0  2.580072  0  4.651606  0  0  1.635755  2.396395  0  4.748327  0
W  W45  1  0.89509195  0.93140133  0.14807238  1  0  2.449513  0  4.193256  0  0  2.469995  0  4.710666  0  0  2.580036  0  4.651697  0  0  1.635751  2.396362  0  4.748434  0
W  W46  1  0.94650063  0.20337299  0.11311526  1  0  2.449365  0  4.198247  0  0  2.471339  0  4.710816  0  0  2.580793  0  4.653072  0  0  1.62297  2.398074  0  4.747843  0
W  W47  1  0.05349769  0.79662629  0.88688326  1  0  2.449322  0  4.198253  0  0  2.47129  0  4.710832  0  0  2.580739  0  4.653091  0  0  1.622951  2.398026  0  4.747847  0
W  W48  1  0.24527649  0.17751480  0.12192084  1  0  2.448042  0  4.198029  0  0  2.468612  0  4.715372  0  0  2.578475  0  4.656661  0  0  1.627683  2.394988  0  4.753132  0
W  W49  1  0.75472203  0.82248527  0.87807866  1  0  2.448119  0  4.198089  0  0  2.468691  0  4.71543  0  0  2.578555  0  4.656714  0  0  1.627711  2.395069  0  4.753194  0
W  W50  1  0.05728921  0.30472904  0.96241929  1  0  2.396417  0  4.26851  0  0  2.411731  0  4.788464  0  0  2.519524  0  4.734881  0  0  1.602962  2.337703  0  4.826211  0
W  W51  1  0.94271029  0.69527103  0.03758051  1  0  2.39635  0  4.268529  0  0  2.411661  0  4.788492  0  0  2.519453  0  4.73491  0  0  1.602934  2.337625  0  4.82626  0
W  W52  1  0.80633686  0.09500349  0.84273383  1  0  2.450257  0  4.186455  0  0  2.470734  0  4.704697  0  0  2.581085  0  4.645401  0  0  1.633219  2.396892  0  4.74283  0
W  W53  1  0.19366265  0.90499658  0.15726454  1  0  2.45014  0  4.186543  0  0  2.470616  0  4.704793  0  0  2.580957  0  4.645505  0  0  1.633193  2.396771  0  4.742917  0
C  C54  1  0.79547144  0.50139888  0.40266096  1  0  -0.005867  0  3.898117  0  0  0.017329  0  4.128537  0  0  0.013005  0  4.150681  0  0  -0.003349  0.020554  0  4.113504  0
C  C55  1  0.20452807  0.49860119  0.59733956  1  0  -0.005868  0  3.898075  0  0  0.017343  0  4.128488  0  0  0.013021  0  4.150631  0  0  -0.003327  0.02057  0  4.113453  0
C  C56  1  0.86432684  0.51022713  0.33769862  1  0  0.33154  0  3.715959  0  0  0.315384  0  3.969559  0  0  0.329045  0  3.986754  0  0  0.226152  0.305783  0  3.958231  0
C  C57  1  0.13567325  0.48977135  0.66230026  1  0  0.331645  0  3.716065  0  0  0.315482  0  3.969667  0  0  0.329142  0  3.986864  0  0  0.226148  0.305879  0  3.958339  0
C  C58  1  0.39015739  0.59928636  0.11619559  1  0  -0.000476  0  3.864528  0  0  0.023999  0  4.091808  0  0  0.018552  0  4.114593  0  0  0.001354  0.027558  0  4.076487  0
C  C59  1  0.60984310  0.40071371  0.88380452  1  0  -0.000556  0  3.864518  0  0  0.02394  0  4.091778  0  0  0.018495  0  4.114562  0  0  0.001324  0.027502  0  4.076453  0
C  C60  1  0.31239991  0.57574495  0.17018843  1  0  0.36124  0  3.682579  0  0  0.344019  0  3.936443  0  0  0.359463  0  3.951919  0  0  0.231051  0.333285  0  3.926428  0
C  C61  1  0.68760058  0.42425512  0.82981168  1  0  0.361255  0  3.682534  0  0  0.344031  0  3.93639  0  0  0.359475  0  3.951866  0  0  0.231069  0.333295  0  3.92637  0
C  C62  1  0.32477352  0.62070687  0.01664209  1  0  -0.03682  0  3.647093  0  0  -0.060833  0  3.888304  0  0  -0.059669  0  3.906866  0  0  -0.067061  -0.061323  0  3.875979  0
C  C63  1  0.67522558  0.37929161  0.98335719  1  0  -0.036753  0  3.647122  0  0  -0.060781  0  3.888336  0  0  -0.059617  0  3.906896  0  0  -0.067027  -0.06127  0  3.87601  0
C  C64  1  0.84270138  0.57514875  0.50874726  1  0  -0.073498  0  3.7096  0  0  -0.096393  0  3.950838  0  0  -0.097431  0  3.973422  0  0  -0.071998  -0.095619  0  3.93559  0
C  C65  1  0.15729870  0.42484974  0.49125377  1  0  -0.07346  0  3.709376  0  0  -0.096426  0  3.950621  0  0  -0.097468  0  3.973203  0  0  -0.071998  -0.095654  0  3.935375  0
C  C66  1  0.39948029  0.64325749  0.96227161  1  0  -0.103826  0  3.798997  0  0  -0.113896  0  4.054487  0  0  -0.118888  0  4.076631  0  0  -0.096231  -0.110849  0  4.039757  0
C  C67  1  0.60051942  0.35674338  0.03772846  1  0  -0.103901  0  3.799095  0  0  -0.113973  0  4.054587  0  0  -0.118967  0  4.076731  0  0  -0.096265  -0.110925  0  4.039859  0
C  C68  1  0.66574537  0.48469144  0.53389038  1  0  -0.044584  0  3.734347  0  0  -0.059812  0  3.983158  0  0  -0.059208  0  4.002903  0  0  -0.074724  -0.059965  0  3.970074  0
C  C69  1  0.33425295  0.51530783  0.46610886  1  0  -0.04455  0  3.734366  0  0  -0.059783  0  3.983189  0  0  -0.059176  0  4.002934  0  0  -0.074729  -0.059936  0  3.970107  0
C  C70  1  0.53741617  0.64464650  0.00584372  1  0  -0.037935  0  3.710767  0  0  -0.055436  0  3.960909  0  0  -0.053875  0  3.979432  0  0  -0.077786  -0.05618  0  3.948567  0
C  C71  1  0.46258354  0.35535436  0.99415635  1  0  -0.037928  0  3.710779  0  0  -0.05542  0  3.960917  0  0  -0.053856  0  3.979439  0  0  -0.077789  -0.056165  0  3.948577  0
C  C72  1  0.60200543  0.62396277  0.10514839  1  0  -0.05715  0  3.733685  0  0  -0.07056  0  3.98346  0  0  -0.075094  0  4.006568  0  0  -0.083532  -0.067661  0  3.967806  0
C  C73  1  0.39799408  0.37603730  0.89485141  1  0  -0.057146  0  3.733621  0  0  -0.070562  0  3.983404  0  0  -0.075098  0  4.006512  0  0  -0.083516  -0.067662  0  3.967751  0
C  C74  1  0.77702247  0.56653530  0.57373941  1  0  -0.081766  0  3.770887  0  0  -0.094994  0  4.027755  0  0  -0.098661  0  4.048156  0  0  -0.087555  -0.092636  0  4.014117  0
C  C75  1  0.22297663  0.43346318  0.42625988  1  0  -0.081741  0  3.770829  0  0  -0.094992  0  4.027713  0  0  -0.098658  0  4.048114  0  0  -0.087533  -0.092634  0  4.014078  0
C  C76  1  0.68241107  0.41968460  0.36207497  1  0  -0.069486  0  3.693479  0  0  -0.092559  0  3.935866  0  0  -0.093056  0  3.956633  0  0  -0.070292  -0.092234  0  3.921705  0
C  C77  1  0.31758942  0.58031547  0.63792514  1  0  -0.069442  0  3.693449  0  0  -0.092517  0  3.93582  0  0  -0.093014  0  3.956587  0  0  -0.070282  -0.092187  0  3.921653  0
C  C78  1  0.52909619  0.60087243  0.16070258  1  0  -0.084481  0  3.734026  0  0  -0.105422  0  3.976437  0  0  -0.106121  0  3.998718  0  0  -0.074251  -0.104632  0  3.961135  0
C  C79  1  0.47090450  0.39912844  0.83929851  1  0  -0.08439  0  3.733926  0  0  -0.105331  0  3.976334  0  0  -0.106029  0  3.998615  0  0  -0.074224  -0.104541  0  3.961032  0
C  C80  1  0.61838236  0.41196135  0.42843483  1  0  -0.066601  0  3.744299  0  0  -0.079494  0  3.991694  0  0  -0.083726  0  4.014501  0  0  -0.083008  -0.076532  0  3.976283  0
C  C81  1  0.38161695  0.58803793  0.57156472  1  0  -0.066679  0  3.744345  0  0  -0.079581  0  3.991756  0  0  -0.083815  0  4.014563  0  0  -0.083046  -0.076619  0  3.976343  0
C  C82  1  0.15631453  0.11374583  0.46486164  1  0  -0.061794  0  3.74339  0  0  -0.072946  0  3.992148  0  0  -0.077201  0  4.014517  0  0  -0.085097  -0.070401  0  3.977268  0
C  C83  1  0.84368596  0.88625424  0.53513919  1  0  -0.061856  0  3.743416  0  0  -0.073015  0  3.992197  0  0  -0.077267  0  4.014564  0  0  -0.085118  -0.070471  0  3.977319  0
C  C84  1  0.34798482  0.14653162  0.63848397  1  0  -0.001005  0  3.885984  0  0  0.022519  0  4.114711  0  0  0.017482  0  4.137325  0  0  -0.001535  0.025896  0  4.099199  0
C  C85  1  0.65201547  0.85346766  0.36151660  1  0  -0.000972  0  3.885999  0  0  0.022562  0  4.114714  0  0  0.017524  0  4.13733  0  0  -0.001502  0.025939  0  4.099202  0
C  C86  1  0.43002614  0.19725581  0.60251370  1  0  -0.082534  0  3.721734  0  0  -0.105569  0  3.964799  0  0  -0.105405  0  3.9852  0  0  -0.074396  -0.104877  0  3.950353  0
C  C87  1  0.56997358  0.80274506  0.39748780  1  0  -0.082556  0  3.721687  0  0  -0.105587  0  3.964752  0  0  -0.105422  0  3.985153  0  0  -0.074392  -0.104905  0  3.950304  0
C  C88  1  0.23712556  0.16370557  0.42846262  1  0  -0.023634  0  3.686111  0  0  -0.039798  0  3.93205  0  0  -0.038662  0  3.951047  0  0  -0.074388  -0.040377  0  3.919483  0
C  C89  1  0.76287514  0.83629530  0.57153918  1  0  -0.02355  0  3.686085  0  0  -0.039731  0  3.932058  0  0  -0.038598  0  3.951049  0  0  -0.074352  -0.040315  0  3.919489  0
C  C90  1  0.21050038  0.10506983  0.56998079  1  0  -0.079097  0  3.69525  0  0  -0.098881  0  3.92975  0  0  -0.099343  0  3.950601  0  0  -0.071775  -0.098244  0  3.915579  0
C  C91  1  0.78950110  0.89493024  0.43002035  1  0  -0.079021  0  3.695227  0  0  -0.098801  0  3.929717  0  0  -0.099264  0  3.950569  0  0  -0.071761  -0.098164  0  3.915544  0
C  C92  1  0.40509596  0.13373264  0.74379379  1  0  0.361466  0  3.702434  0  0  0.342051  0  3.958959  0  0  0.356772  0  3.976946  0  0  0.236913  0.331891  0  3.946545  0
C  C93  1  0.59490453  0.86626743  0.25620704  1  0  0.361413  0  3.702574  0  0  0.341995  0  3.959101  0  0  0.356715  0  3.977091  0  0  0.23691  0.331832  0  3.946685  0
C  C94  1  0.37326223  0.20574753  0.49732616  1  0  -0.077125  0  3.761815  0  0  -0.087417  0  4.007533  0  0  -0.092483  0  4.031572  0  0  -0.08748  -0.084321  0  3.991259  0
C  C95  1  0.62673965  0.79425413  0.50267693  1  0  -0.077106  0  3.761811  0  0  -0.08739  0  4.007531  0  0  -0.092455  0  4.031567  0  0  -0.087483  -0.084297  0  3.991265  0
C  C96  1  0.70993792  0.15104330  0.35601509  1  0  0.004407  0  3.869474  0  0  0.02919  0  4.096175  0  0  0.023567  0  4.119386  0  0  0.002091  0.032925  0  4.08021  0
C  C97  1  0.29006237  0.84895597  0.64398404  1  0  0.004402  0  3.869474  0  0  0.029185  0  4.09618  0  0  0.023566  0  4.119389  0  0  0.002101  0.032922  0  4.080214  0
C  C98  1  0.65461965  0.13300100  0.24140227  1  0  0.387082  0  3.684889  0  0  0.36436  0  3.94308  0  0  0.38059  0  3.958878  0  0  0.240978  0.353272  0  3.932603  0
C  C99  1  0.34537986  0.86699907  0.75859753  1  0  0.387085  0  3.684843  0  0  0.364354  0  3.943043  0  0  0.380583  0  3.958842  0  0  0.240927  0.353264  0  3.932567  0
C  C100  1  0.63133950  0.11838612  0.40476957  1  0  -0.073744  0  3.688028  0  0  -0.097148  0  3.932352  0  0  -0.097234  0  3.953077  0  0  -0.0685  -0.096419  0  3.917895  0
C  C101  1  0.36866001  0.88161395  0.59523023  1  0  -0.073653  0  3.687975  0  0  -0.097057  0  3.932288  0  0  -0.097146  0  3.953015  0  0  -0.068484  -0.096329  0  3.917832  0
C  C102  1  0.84599534  0.20095248  0.41934522  1  0  -0.07733  0  3.714224  0  0  -0.100252  0  3.95817  0  0  -0.100467  0  3.979257  0  0  -0.072944  -0.099658  0  3.943649  0
C  C103  1  0.15400494  0.79904679  0.58065464  1  0  -0.077398  0  3.714135  0  0  -0.100311  0  3.958083  0  0  -0.100529  0  3.979172  0  0  -0.072958  -0.09972  0  3.943564  0
C  C104  1  0.90275060  0.21869161  0.53210546  1  0  -0.079621  0  3.777072  0  0  -0.09116  0  4.02689  0  0  -0.096024  0  4.050378  0  0  -0.087494  -0.088205  0  4.011171  0
C  C105  1  0.09724969  0.78130766  0.46789440  1  0  -0.079559  0  3.776973  0  0  -0.091109  0  4.026799  0  0  -0.095974  0  4.050289  0  0  -0.087469  -0.088154  0  4.011079  0
C  C106  1  0.69070254  0.13607573  0.51768319  1  0  -0.063631  0  3.731436  0  0  -0.075213  0  3.978006  0  0  -0.08007  0  4.001535  0  0  -0.081413  -0.072287  0  3.962192  0
C  C107  1  0.30929796  0.86392434  0.48231693  1  0  -0.063638  0  3.731407  0  0  -0.075205  0  3.97795  0  0  -0.080062  0  4.001478  0  0  -0.08137  -0.072279  0  3.962138  0
C  C108  1  0.82547144  0.18658552  0.58134363  1  0  -0.032453  0  3.696568  0  0  -0.048338  0  3.945862  0  0  -0.046374  0  3.963023  0  0  -0.073015  -0.049514  0  3.934541  0
C  C109  1  0.17452906  0.81341455  0.41865648  1  0  -0.032493  0  3.69654  0  0  -0.04838  0  3.94584  0  0  -0.046414  0  3.963  0  0  -0.073069  -0.049556  0  3.934518  0
N  N110  1  0.92371559  0.51958333  0.28689031  1  0  -0.432966  0  2.993293  0  0  -0.378542  0  3.303693  0  0  -0.393877  0  3.306087  0  0  -0.345926  -0.368396  0  3.302336  0
N  N111  1  0.07628589  0.48041674  0.71311012  1  0  -0.433044  0  2.993334  0  0  -0.378623  0  3.303746  0  0  -0.393957  0  3.306136  0  0  -0.345915  -0.368475  0  3.302384  0
N  N112  1  0.24531206  0.55718145  0.21250175  1  0  -0.453678  0  2.963424  0  0  -0.399568  0  3.272646  0  0  -0.4155  0  3.273606  0  0  -0.356768  -0.389029  0  3.272275  0
N  N113  1  0.75468843  0.44281862  0.78749836  1  0  -0.453663  0  2.963412  0  0  -0.399555  0  3.272636  0  0  -0.415486  0  3.273593  0  0  -0.35677  -0.389012  0  3.272258  0
N  N114  1  0.45134182  0.12110736  0.82928449  1  0  -0.436917  0  3.061272  0  0  -0.376882  0  3.378028  0  0  -0.396177  0  3.38411  0  0  -0.361641  -0.364242  0  3.373377  0
N  N115  1  0.54865868  0.87889271  0.17071705  1  0  -0.436904  0  3.061328  0  0  -0.376872  0  3.378085  0  0  -0.396163  0  3.384168  0  0  -0.361668  -0.36423  0  3.37343  0
N  N116  1  0.61266207  0.11931823  0.14740562  1  0  -0.474343  0  3.087761  0  0  -0.416534  0  3.426196  0  0  -0.433951  0  3.424846  0  0  -0.372539  -0.40549  0  3.427294  0
N  N117  1  0.38733862  0.88068264  0.85259475  1  0  -0.47433  0  3.087722  0  0  -0.41652  0  3.426165  0  0  -0.433934  0  3.424816  0  0  -0.372475  -0.405475  0  3.427262  0
O  O118  1  0.65106564  0.07862113  0.73452000  1  0  -0.707133  0  1.468799  0  0  -0.709222  0  1.707288  0  0  -0.734377  0  1.693302  0  0  -0.524598  -0.69264  0  1.716395  0
O  O119  1  0.34893386  0.92137893  0.26547765  1  0  -0.707076  0  1.46882  0  0  -0.709167  0  1.707318  0  0  -0.734323  0  1.693335  0  0  -0.524568  -0.692585  0  1.71642  0
O  O120  1  0.98913424  0.32984050  0.07286831  1  0  -0.946923  0  1.86443  0  0  -0.939038  0  2.176582  0  0  -0.980187  0  2.161593  0  0  -0.596913  -0.910955  0  2.186412  0
O  O121  1  0.01086626  0.67015957  0.92713181  1  0  -0.946897  0  1.864374  0  0  -0.939032  0  2.176567  0  0  -0.980183  0  2.161578  0  0  -0.596915  -0.910951  0  2.186403  0
O  O122  1  0.91334693  0.04697663  0.76711459  1  0  -0.879497  0  1.798748  0  0  -0.881008  0  2.087976  0  0  -0.92166  0  2.077446  0  0  -0.587666  -0.853362  0  2.093944  0
O  O123  1  0.08665376  0.95302424  0.23288506  1  0  -0.87945  0  1.798734  0  0  -0.880955  0  2.087962  0  0  -0.921601  0  2.077417  0  0  -0.58763  -0.853306  0  2.093925  0
O  O124  1  0.08082914  0.42842426  0.94412281  1  0  -0.761736  0  1.576132  0  0  -0.75708  0  1.867933  0  0  -0.783706  0  1.848075  0  0  -0.546871  -0.738769  0  1.881  0
O  O125  1  0.91917234  0.57157581  0.05587833  1  0  -0.761706  0  1.576097  0  0  -0.757053  0  1.867902  0  0  -0.783679  0  1.848047  0  0  -0.546867  -0.738742  0  1.880973  0
O  O126  1  0.02652300  0.13970142  0.98391641  1  0  -1.30346  0  1.937179  0  0  -1.275188  0  2.194819  0  0  -1.325143  0  2.194545  0  0  -0.646377  -1.241052  0  2.194514  0
O  O127  1  0.97347651  0.86029865  0.01608268  1  0  -1.30347  0  1.937172  0  0  -1.275229  0  2.194877  0  0  -1.325164  0  2.194548  0  0  -0.646394  -1.241094  0  2.194573  0
O  O128  1  0.78502078  0.15798790  0.97611925  1  0  -0.921124  0  1.816891  0  0  -0.922822  0  2.129331  0  0  -0.961774  0  2.112704  0  0  -0.596402  -0.896076  0  2.138837  0
O  O129  1  0.21497754  0.84201138  0.02387927  1  0  -0.92111  0  1.816896  0  0  -0.922796  0  2.12932  0  0  -0.961725  0  2.112638  0  0  -0.596436  -0.89605  0  2.13882  0
O  O130  1  0.40843245  0.22446915  0.22356614  1  0  -0.714143  0  1.45529  0  0  -0.714118  0  1.690626  0  0  -0.739851  0  1.676585  0  0  -0.530052  -0.697135  0  1.699963  0
O  O131  1  0.59156685  0.77553013  0.77643413  1  0  -0.714172  0  1.455336  0  0  -0.714136  0  1.690659  0  0  -0.739871  0  1.676614  0  0  -0.530058  -0.697156  0  1.7  0
O  O132  1  0.26646768  0.11282611  0.98928532  1  0  -0.921325  0  1.788381  0  0  -0.928266  0  2.103274  0  0  -0.96614  0  2.084399  0  0  -0.59591  -0.902132  0  2.114249  0
O  O133  1  0.73353281  0.88717396  0.01071480  1  0  -0.921317  0  1.78838  0  0  -0.92825  0  2.10326  0  0  -0.966126  0  2.084383  0  0  -0.595932  -0.902119  0  2.114237  0
O  O134  1  0.11390705  0.21704401  0.86013586  1  0  -0.890554  0  1.739214  0  0  -0.889085  0  2.011729  0  0  -0.929982  0  2.000795  0  0  -0.592729  -0.861356  0  2.018707  0
O  O135  1  0.88609344  0.78295606  0.13986426  1  0  -0.890537  0  1.739256  0  0  -0.889064  0  2.011771  0  0  -0.929959  0  2.000832  0  0  -0.592716  -0.861331  0  2.018749  0
O  O136  1  0.13879803  0.22429733  0.20006853  1  0  -0.898219  0  1.79273  0  0  -0.89604  0  2.07626  0  0  -0.935209  0  2.061963  0  0  -0.591863  -0.869241  0  2.085097  0
O  O137  1  0.86120029  0.77570195  0.79993143  1  0  -0.898277  0  1.792802  0  0  -0.896055  0  2.076254  0  0  -0.935226  0  2.061957  0  0  -0.591879  -0.869261  0  2.085093  0
O  O138  1  0.07547711  0.93423399  0.87459609  1  0  -0.912976  0  1.867393  0  0  -0.921981  0  2.177938  0  0  -0.963693  0  2.162025  0  0  -0.612866  -0.893833  0  2.18775  0
O  O139  1  0.92452240  0.06576608  0.12540299  1  0  -0.912984  0  1.867359  0  0  -0.921979  0  2.177895  0  0  -0.96369  0  2.161984  0  0  -0.61289  -0.893841  0  2.187733  0
O  O140  1  0.22739141  0.30544119  0.07714324  1  0  -0.897766  0  1.776375  0  0  -0.897752  0  2.053327  0  0  -0.939682  0  2.043885  0  0  -0.594417  -0.869293  0  2.059358  0
O  O141  1  0.77260810  0.69455888  0.92285728  1  0  -0.897752  0  1.776345  0  0  -0.897736  0  2.053297  0  0  -0.939671  0  2.043856  0  0  -0.594418  -0.869276  0  2.05933  0
O  O142  1  0.78687523  0.96032732  0.86548602  1  0  -0.918316  0  1.854971  0  0  -0.927464  0  2.165154  0  0  -0.969008  0  2.147911  0  0  -0.611108  -0.899474  0  2.17598  0
O  O143  1  0.21312288  0.03967116  0.13451224  1  0  -0.918286  0  1.854972  0  0  -0.927419  0  2.165141  0  0  -0.968973  0  2.147916  0  0  -0.611123  -0.899427  0  2.175963  0
O  O144  1  0.89406052  0.27036531  0.20936594  1  0  -0.722701  0  1.432061  0  0  -0.723442  0  1.669342  0  0  -0.749045  0  1.656021  0  0  -0.539215  -0.706502  0  1.678229  0
O  O145  1  0.10593879  0.72963396  0.79063289  1  0  -0.722655  0  1.432035  0  0  -0.723382  0  1.669306  0  0  -0.748984  0  1.655983  0  0  -0.539182  -0.706439  0  1.678181  0
O  O146  1  0.15828385  0.02835073  0.74972987  1  0  -0.710894  0  1.507389  0  0  -0.712921  0  1.752479  0  0  -0.738919  0  1.73973  0  0  -0.522454  -0.695639  0  1.760566  0
O  O147  1  0.84171763  0.97164934  0.25027055  1  0  -0.710901  0  1.507443  0  0  -0.712932  0  1.752538  0  0  -0.738931  0  1.739795  0  0  -0.522458  -0.695653  0  1.760638  0
O  O148  1  0.87556388  0.23974925  0.85506378  1  0  -0.903824  0  1.775623  0  0  -0.906483  0  2.062084  0  0  -0.948479  0  2.052694  0  0  -0.594705  -0.877984  0  2.068129  0
O  O149  1  0.12443661  0.76025082  0.14493562  1  0  -0.903786  0  1.775597  0  0  -0.906449  0  2.062075  0  0  -0.948446  0  2.052683  0  0  -0.594685  -0.877948  0  2.068119  0
