# generated using pymatgen
data_NiP2H18C18(NO3)2
_symmetry_space_group_name_H-M   'P 1'
_cell_length_a   8.01911805
_cell_length_b   10.40672929
_cell_length_c   10.72882447
_cell_angle_alpha   95.50331856
_cell_angle_beta   91.23347575
_cell_angle_gamma   93.50934680
_symmetry_Int_Tables_number   1
_chemical_formula_structural   NiP2H18C18(NO3)2
_chemical_formula_sum   'Ni2 P4 H36 C36 N4 O12'
_cell_volume   889.21388063
_cell_formula_units_Z   2
loop_
 _symmetry_equiv_pos_site_id
 _symmetry_equiv_pos_as_xyz
  1  'x, y, z'
loop_
 _atom_site_type_symbol
 _atom_site_label
 _atom_site_symmetry_multiplicity
 _atom_site_fract_x
 _atom_site_fract_y
 _atom_site_fract_z
 _atom_site_occupancy
 _atom_site_hle17_ddec_charge
 _atom_site_hle17_ddec_spin_density
 _atom_site_hle17_ddec_sum_bond_order
 _atom_site_hle17_magmom
 _atom_site_hse06_10hf_ddec_charge
 _atom_site_hse06_10hf_ddec_spin_density
 _atom_site_hse06_10hf_ddec_sum_bond_order
 _atom_site_hse06_10hf_magmom
 _atom_site_hse06_ddec_charge
 _atom_site_hse06_ddec_spin_density
 _atom_site_hse06_ddec_sum_bond_order
 _atom_site_hse06_magmom
 _atom_site_pbe_cm5_charge
 _atom_site_pbe_ddec_charge
 _atom_site_pbe_ddec_spin_density
 _atom_site_pbe_ddec_sum_bond_order
 _atom_site_pbe_magmom
Ni  Ni0  1  0.25826870  0.33047164  0.02964677  1  0.847695  0.007003  2.149208  0.004  0.840359  0.001445  2.578126  0.001  0.943309  0.000774  2.483234  0.001  0.676927  0.774193  -0.000974  2.640993  -0.001
Ni  Ni1  1  0.74173393  0.66953674  0.97036568  1  0.84764  -0.007005  2.149215  -0.004  0.840427  -0.001425  2.578057  -0.001  0.94335  -0.000758  2.483174  -0.001  0.677032  0.774262  -0.000929  2.64092  -0.001
P  P2  1  0.81263106  0.37823449  0.85531043  1  1.501417  -0.003087  4.719243  -0.002  1.365298  -0.003345  5.207967  -0.003  1.417265  -0.003202  5.170919  -0.003  0.365862  1.328856  -0.003116  5.232313  -0.002
P  P3  1  0.18740071  0.62174706  0.14465565  1  1.501824  0.003092  4.719481  0.002  1.365655  0.003347  5.208187  0.003  1.417624  0.003199  5.171128  0.003  0.365961  1.32921  -0.003118  5.232546  -0.002
P  P4  1  0.65841100  0.45769821  0.16908421  1  1.484431  0.001866  4.748215  0.001  1.344395  0.00238  5.242935  0.001  1.397922  0.002364  5.205758  0.001  0.352967  1.306253  0.002433  5.267432  0.001
P  P5  1  0.34157771  0.54228605  0.83090960  1  1.484153  -0.001876  4.747273  -0.001  1.34424  -0.002381  5.241781  -0.001  1.397786  -0.00237  5.204516  -0.001  0.35306  1.306077  0.002435  5.266368  0.001
H  H6  1  0.54214590  0.34552457  0.88158507  1  0.43604  6e-05  0.856982  0.0  0.402857  6.6e-05  0.936376  0.0  0.414879  8.5e-05  0.919051  0.0  0.314644  0.394115  -8.9e-05  0.946391  0.0
H  H7  1  0.45786352  0.65443196  0.11834988  1  0.435871  -5.9e-05  0.857296  0.0  0.402827  -6.6e-05  0.936434  0.0  0.414847  -8.6e-05  0.919118  0.0  0.314663  0.39408  -8.9e-05  0.946467  0.0
H  H8  1  0.88947666  0.39008389  0.08529013  1  0.434482  -2.9e-05  0.875617  0.0  0.400959  -5.2e-05  0.943858  0.0  0.411737  -5.1e-05  0.928524  0.0  0.30618  0.393503  1.8e-05  0.954472  0.0
H  H9  1  0.11050650  0.60992360  0.91470387  1  0.434536  2.9e-05  0.875496  0.0  0.400923  5.2e-05  0.943856  0.0  0.411702  4.9e-05  0.928521  0.0  0.306197  0.393468  1.8e-05  0.954467  0.0
H  H10  1  0.33068069  0.23966982  0.76321762  1  0.090915  0.000452  0.958754  0.001  0.098762  0.000477  1.021122  0.001  0.100442  0.000428  1.019136  0.001  0.124176  0.097191  -0.000456  1.023186  -0.001
H  H11  1  0.66931745  0.76029985  0.23679468  1  0.091128  -0.000456  0.958641  -0.001  0.098887  -0.000477  1.021048  -0.001  0.100569  -0.000428  1.019049  -0.001  0.124236  0.09731  -0.000456  1.023114  -0.001
H  H12  1  0.37256401  0.02112918  0.65386280  1  0.091458  0.000221  0.979648  0.0  0.100098  0.0002  1.044375  0.0  0.101861  0.000179  1.045437  0.0  0.10125  0.098733  -0.000188  1.043961  0.0
H  H13  1  0.62737922  0.97883450  0.34617319  1  0.091564  -0.000217  0.979146  0.0  0.10018  -0.000201  1.043914  0.0  0.101949  -0.000179  1.044974  0.0  0.101225  0.09879  -0.000188  1.043515  0.0
H  H14  1  0.34842931  0.82628340  0.77839551  1  0.110715  4.9e-05  0.976318  0.0  0.118142  -1.4e-05  1.038513  0.0  0.120936  -2e-05  1.036381  0.0  0.108989  0.115739  -6e-06  1.04053  0.0
H  H15  1  0.65146031  0.17368618  0.22161409  1  0.110636  -5.3e-05  0.976393  0.0  0.117995  1.4e-05  1.038732  0.0  0.120774  1.9e-05  1.036597  0.0  0.108987  0.115602  -6e-06  1.040723  0.0
H  H16  1  0.26175089  0.85622091  0.99759552  1  0.134276  0.000201  0.958327  0.0  0.139061  0.000206  1.022745  0.0  0.142454  0.000171  1.021306  0.0  0.1154  0.136561  -0.000197  1.023726  0.0
H  H17  1  0.73822118  0.14377091  0.00243202  1  0.134355  -0.000199  0.957991  0.0  0.139217  -0.000206  1.022353  0.0  0.142616  -0.000172  1.02091  0.0  0.115504  0.136723  -0.000197  1.023312  0.0
H  H18  1  0.15271222  0.90265565  0.17637814  1  0.118437  -0.000168  0.967992  0.0  0.127109  -0.000182  1.031215  0.0  0.129986  -0.000156  1.0302  0.0  0.114264  0.12487  0.000169  1.032177  0.0
H  H19  1  0.84728371  0.09735264  0.82364899  1  0.118541  0.000168  0.96771  0.0  0.127185  0.000182  1.030981  0.0  0.130057  0.000156  1.029972  0.0  0.114263  0.124945  0.000169  1.031943  0.0
H  H20  1  0.03732530  0.97858121  0.38516695  1  0.084845  -7.2e-05  0.947183  0.0  0.098947  9e-06  1.004255  0.0  0.101427  1.8e-05  1.001688  0.0  0.104086  0.09675  1e-05  1.006973  0.0
H  H21  1  0.96259360  0.02143683  0.61483431  1  0.085189  7.1e-05  0.947148  0.0  0.099116  -9e-06  1.004398  0.0  0.101593  -1.8e-05  1.001836  0.0  0.10416  0.096974  1e-05  1.007051  0.0
H  H22  1  0.00685160  0.21803162  0.43573740  1  0.101588  -0.000193  0.964437  0.0  0.111898  -0.000201  1.023676  0.0  0.113854  -0.000183  1.025054  0.0  0.104766  0.110249  0.000162  1.023211  0.0
H  H23  1  0.99307497  0.78198952  0.56422619  1  0.101634  0.000194  0.963937  0.0  0.111882  0.000201  1.023301  0.0  0.113871  0.000183  1.024645  0.0  0.104771  0.110229  0.000162  1.022837  0.0
H  H24  1  0.10491786  0.36937001  0.27973158  1  0.107083  -0.000467  0.959179  -0.001  0.111444  -0.000494  1.023946  -0.001  0.113667  -0.000456  1.021059  -0.001  0.128324  0.109506  0.000445  1.026665  0.001
H  H25  1  0.89507647  0.63063939  0.72026951  1  0.107164  0.000466  0.959168  0.001  0.111467  0.000494  1.023943  0.001  0.113692  0.000456  1.021052  0.001  0.128307  0.109528  0.000445  1.02666  0.001
H  H26  1  0.95897177  0.24056850  0.71155104  1  0.120394  -0.000325  0.958141  0.0  0.134411  -0.000286  1.020104  0.0  0.134745  -0.000245  1.021953  0.0  0.101907  0.135112  -0.00028  1.017743  0.0
H  H27  1  0.04106385  0.75944879  0.28842793  1  0.120363  0.00033  0.95777  0.0  0.134338  0.000286  1.0198  0.0  0.134663  0.000245  1.021662  0.0  0.101882  0.135043  -0.000281  1.01743  0.0
H  H28  1  0.99920949  0.40592634  0.69060905  1  0.142825  0.000112  0.956647  0.0  0.155601  2.5e-05  1.016869  0.0  0.158368  2.5e-05  1.015803  0.0  0.108698  0.153542  1.5e-05  1.017684  0.0
H  H29  1  0.00082344  0.59408307  0.30939518  1  0.142888  -0.00011  0.956684  0.0  0.155545  -2.5e-05  1.01699  0.0  0.158312  -2.5e-05  1.015924  0.0  0.108681  0.15349  1.5e-05  1.01779  0.0
H  H30  1  0.71200369  0.59463600  0.36224251  1  0.119242  -7.5e-05  0.94972  0.0  0.133993  -3e-05  1.008423  0.0  0.136253  -3e-05  1.007865  0.0  0.099937  0.132694  -4.1e-05  1.008486  0.0
H  H31  1  0.28806160  0.40537957  0.63770093  1  0.119143  7e-05  0.949766  0.0  0.133957  3e-05  1.008406  0.0  0.136196  3e-05  1.007875  0.0  0.099893  0.132663  -4.1e-05  1.008465  0.0
H  H32  1  0.49729658  0.54725061  0.33380588  1  0.140909  -6.9e-05  0.958011  0.0  0.153067  -9e-06  1.019013  0.0  0.154938  -3e-06  1.02032  0.0  0.108518  0.151615  2.6e-05  1.018281  0.0
H  H33  1  0.50273498  0.45278878  0.66620306  1  0.140802  6.6e-05  0.958015  0.0  0.152992  8e-06  1.019073  0.0  0.154859  2e-06  1.020384  0.0  0.10851  0.151547  2.6e-05  1.018333  0.0
H  H34  1  0.42180249  0.29486259  0.33492650  1  0.100521  3.7e-05  0.975845  0.0  0.109828  1e-06  1.038805  0.0  0.112115  1e-06  1.039043  0.0  0.100632  0.108279  6e-06  1.038669  0.0
H  H35  1  0.57823456  0.70517784  0.66506874  1  0.100607  -3.6e-05  0.976028  0.0  0.109838  -1e-06  1.039022  0.0  0.112124  -2e-06  1.039264  0.0  0.10065  0.108292  6e-06  1.038881  0.0
H  H36  1  0.85182118  0.49770436  0.52329504  1  0.089082  -3e-06  0.960893  0.0  0.10182  -0.0  1.024555  0.0  0.104306  0.0  1.02394  0.0  0.095975  0.100042  -1e-06  1.025118  0.0
H  H37  1  0.14823429  0.50231770  0.47670091  1  0.089323  5e-06  0.961112  0.0  0.101991  0.0  1.024793  0.0  0.104478  -1e-06  1.024179  0.0  0.096047  0.100212  -1e-06  1.025356  0.0
H  H38  1  0.43822021  0.12038584  0.47676441  1  0.070594  6e-06  0.967535  0.0  0.083335  5e-06  1.02871  0.0  0.085519  4e-06  1.028076  0.0  0.091049  0.082138  -6e-06  1.028733  0.0
H  H39  1  0.56176818  0.87966123  0.52324850  1  0.07036  -7e-06  0.967781  0.0  0.083135  -5e-06  1.028911  0.0  0.085306  -4e-06  1.028294  0.0  0.091021  0.081936  -6e-06  1.028927  0.0
H  H40  1  0.66082706  0.13574212  0.64401158  1  0.087236  2.4e-05  0.97972  0.0  0.097181  1.5e-05  1.047911  0.0  0.09943  1.5e-05  1.04788  0.0  0.093015  0.095851  1.2e-05  1.047782  0.0
H  H41  1  0.33917468  0.86430108  0.35600326  1  0.086994  -2.2e-05  0.979983  0.0  0.097016  -1.5e-05  1.048153  0.0  0.099229  -1.5e-05  1.048154  0.0  0.093008  0.095689  1.2e-05  1.048022  0.0
C  C42  1  0.31441194  0.15258856  0.81102255  1  0.145162  -0.002443  3.659182  -0.002  0.114989  0.000617  3.913556  0.0  0.128288  4.9e-05  3.930041  0.0  0.052406  0.104435  -0.000788  3.90465  -0.001
C  C43  1  0.68558222  0.84737534  0.18898160  1  0.144934  0.002522  3.659066  0.002  0.114945  -0.00062  3.913399  0.0  0.12826  -5.1e-05  3.929874  0.0  0.052201  0.104392  -0.00079  3.904483  -0.001
C  C44  1  0.33905719  0.03060861  0.75193385  1  -0.131033  0.003847  3.745167  0.003  -0.141539  0.001507  3.99433  0.001  -0.150714  0.001701  4.014896  0.002  -0.0848  -0.135843  -0.001243  3.982361  -0.001
C  C45  1  0.66090045  0.96935329  0.24807541  1  -0.131256  -0.003947  3.744552  -0.004  -0.141648  -0.001508  3.993624  -0.001  -0.150836  -0.001704  4.014189  -0.002  -0.084652  -0.135925  -0.001244  3.981669  -0.001
C  C46  1  0.32349986  0.92268933  0.81930748  1  0.012011  -0.003671  3.682132  -0.003  -0.007315  -0.000521  3.927105  0.0  0.000747  -0.000959  3.941038  -0.001  -0.064338  -0.014254  0.000277  3.919877  0.0
C  C47  1  0.67643659  0.07728708  0.18069967  1  0.012373  0.003767  3.681667  0.003  -0.007047  0.00052  3.926868  0.0  0.00103  0.000959  3.940812  0.001  -0.06439  -0.013998  0.000276  3.919633  0.0
C  C48  1  0.27608434  0.93939927  0.94350203  1  -0.107653  0.00338  3.633414  0.003  -0.125616  0.001238  3.878177  0.001  -0.132699  0.001446  3.896018  0.001  -0.067395  -0.121055  -0.001046  3.867578  -0.001
C  C49  1  0.72389569  0.06056550  0.05651758  1  -0.107563  -0.003461  3.632741  -0.003  -0.125623  -0.001238  3.877626  -0.001  -0.132712  -0.001446  3.895448  -0.001  -0.067409  -0.121063  -0.001047  3.867051  -0.001
C  C50  1  0.24898988  0.06367484  0.99676871  1  0.161338  -0.002965  3.754841  -0.003  0.156354  -0.000195  4.001056  -0.001  0.165721  -0.000895  4.020948  -0.001  0.118677  0.148893  -0.000238  3.989436  0.0
C  C51  1  0.75102157  0.93628904  0.00324161  1  0.161028  0.003023  3.754936  0.003  0.156162  0.000194  4.001161  0.001  0.165537  0.000894  4.021053  0.001  0.11855  0.148693  -0.000239  3.989544  0.0
C  C52  1  0.18903410  0.09512865  0.12221518  1  0.176642  0.003287  3.75119  0.003  0.173096  0.000424  3.99382  0.001  0.18403  0.00108  4.012455  0.001  0.123895  0.164464  -2.5e-05  3.983215  0.0
C  C53  1  0.81098303  0.90486323  0.87780828  1  0.176956  -0.003286  3.751353  -0.003  0.173344  -0.000425  3.993951  -0.001  0.184271  -0.001079  4.012584  -0.001  0.123929  0.164713  -2.6e-05  3.983348  0.0
C  C54  1  0.14138444  0.00482226  0.20485655  1  -0.135352  -0.003505  3.696372  -0.003  -0.154702  -0.001278  3.943238  -0.001  -0.162216  -0.001541  3.96193  -0.001  -0.076006  -0.150018  0.001007  3.932419  0.001
C  C55  1  0.85860069  0.99517539  0.79516826  1  -0.135296  0.003501  3.696223  0.003  -0.154621  0.001277  3.94305  0.001  -0.162128  0.00154  3.961737  0.001  -0.075875  -0.149945  0.001007  3.932251  0.001
C  C56  1  0.07696774  0.04771043  0.31978405  1  -0.018878  0.004023  3.765769  0.003  -0.038144  0.000764  4.017101  0.001  -0.030375  0.001198  4.031638  0.001  -0.07299  -0.045018  -0.000497  4.009805  0.0
C  C57  1  0.92298536  0.95231345  0.68021705  1  -0.019483  -0.004013  3.766263  -0.003  -0.038624  -0.000764  4.017626  -0.001  -0.03086  -0.001197  4.032166  -0.001  -0.073197  -0.045534  -0.000497  4.010328  0.0
C  C58  1  0.06150954  0.17999811  0.34878278  1  -0.121008  -0.004088  3.724868  -0.004  -0.132285  -0.001611  3.972883  -0.002  -0.140497  -0.001913  3.991734  -0.002  -0.081866  -0.127626  0.001262  3.96279  0.001
C  C59  1  0.93844012  0.82001511  0.65121998  1  -0.120836  0.00408  3.724473  0.004  -0.132159  0.001611  3.972435  0.002  -0.140398  0.001913  3.99129  0.002  -0.081887  -0.127503  0.001263  3.962356  0.001
C  C60  1  0.11310371  0.26548378  0.26299977  1  0.154442  0.003137  3.628264  0.003  0.12379  -0.000113  3.884922  0.0  0.138141  0.000494  3.89856  0.001  0.061897  0.112296  0.000384  3.878341  0.0
C  C61  1  0.88687483  0.73452356  0.73702203  1  0.15406  -0.003114  3.628689  -0.003  0.123585  0.000113  3.88507  0.0  0.137929  -0.000492  3.898723  -0.001  0.061953  0.112088  0.000384  3.878483  0.0
C  C62  1  0.89901808  0.33143471  0.70161212  1  -0.484135  -0.002526  3.689692  -0.002  -0.509798  -0.001746  3.925936  -0.001  -0.520473  -0.001511  3.935358  -0.001  -0.168087  -0.501602  -0.001723  3.917951  -0.001
C  C63  1  0.10102777  0.66855550  0.29836645  1  -0.484404  0.002512  3.689459  0.002  -0.509894  0.001748  3.925529  0.001  -0.520568  0.001513  3.934954  0.001  -0.168147  -0.50169  -0.001725  3.917525  -0.001
C  C64  1  0.77262604  0.31760228  0.59488973  1  0.139094  2.8e-05  3.803064  0.0  0.160431  -2.6e-05  4.038649  0.0  0.16342  -2.7e-05  4.062129  0.0  -0.014909  0.158141  7.3e-05  4.022488  0.0
C  C65  1  0.22741963  0.68241980  0.40510030  1  0.139494  -0.0  3.802455  0.0  0.161049  2.5e-05  4.037656  0.0  0.164043  2.7e-05  4.061131  0.0  -0.014664  0.158749  7.4e-05  4.0215  0.0
C  C66  1  0.62378132  0.51185697  0.33266660  1  -0.482452  0.00187  3.698788  0.002  -0.504518  0.001301  3.92981  0.001  -0.515366  0.00109  3.938304  0.001  -0.167298  -0.496326  0.001067  3.92345  0.001
C  C67  1  0.37624195  0.48816319  0.66731598  1  -0.482271  -0.001844  3.698695  -0.002  -0.504349  -0.001301  3.929696  -0.001  -0.515185  -0.001089  3.938197  -0.001  -0.167342  -0.496168  0.001068  3.923353  0.001
C  C68  1  0.63626836  0.40709421  0.41876149  1  0.166959  0.000181  3.760952  0.0  0.188034  0.000196  3.9917  0.0  0.190619  0.000149  4.016238  0.0  -0.002326  0.185913  0.000203  3.975168  0.0
C  C69  1  0.36377362  0.59293360  0.58124203  1  0.167425  -0.000173  3.760966  0.0  0.188346  -0.000196  3.991948  0.0  0.190935  -0.000148  4.016485  0.0  -0.002208  0.186218  0.000203  3.97542  0.0
C  C70  1  0.51939849  0.30059030  0.40759798  1  -0.13025  8.3e-05  3.72124  0.0  -0.150647  9.1e-05  3.965378  0.0  -0.15413  9.5e-05  3.986433  0.0  -0.095183  -0.148035  3.6e-05  3.950604  0.0
C  C71  1  0.48062879  0.69944041  0.59240439  1  -0.130544  -9.8e-05  3.721258  0.0  -0.150821  -9.1e-05  3.965442  0.0  -0.154309  -9.4e-05  3.986501  0.0  -0.095236  -0.148208  3.6e-05  3.950662  0.0
C  C72  1  0.76188632  0.41386599  0.51251874  1  -0.187351  0.000121  3.67456  0.0  -0.214527  9e-05  3.920059  0.0  -0.219214  8.8e-05  3.94065  0.0  -0.096539  -0.211079  7.4e-05  3.906129  0.0
C  C73  1  0.23816711  0.58615022  0.48748683  1  -0.187805  -0.000144  3.674641  0.0  -0.214953  -8.9e-05  3.920145  0.0  -0.219647  -8.9e-05  3.940741  0.0  -0.096575  -0.211496  7.4e-05  3.906213  0.0
C  C74  1  0.53052796  0.20265624  0.48688308  1  -0.076775  -2.5e-05  3.831592  0.0  -0.086628  -5.7e-05  4.083889  0.0  -0.08777  -6.3e-05  4.106112  0.0  -0.100315  -0.085153  -2.1e-05  4.067226  0.0
C  C75  1  0.46950170  0.79737446  0.51312310  1  -0.076618  4.5e-05  3.831781  0.0  -0.086468  5.7e-05  4.084077  0.0  -0.087599  6.2e-05  4.106284  0.0  -0.100384  -0.084984  -2.1e-05  4.067403  0.0
C  C76  1  0.65624057  0.21032401  0.57956544  1  -0.148926  -7.7e-05  3.764247  0.0  -0.173899  -2.1e-05  4.017378  0.0  -0.177726  5e-06  4.039148  0.0  -0.10662  -0.170848  -8.2e-05  4.001596  0.0
C  C77  1  0.34380273  0.78971643  0.42043001  1  -0.14897  5.2e-05  3.764579  0.0  -0.174116  2.2e-05  4.017694  0.0  -0.177914  -4e-06  4.039485  0.0  -0.106834  -0.171064  -8.3e-05  4.001911  0.0
N  N78  1  0.27354452  0.16993681  0.93215368  1  -0.277514  0.025854  3.309082  0.024  -0.240017  0.019956  3.605514  0.016  -0.277573  0.01953  3.623541  0.015  -0.326875  -0.21508  -0.017507  3.594104  -0.015
N  N79  1  0.72647474  0.83002904  0.06785149  1  -0.277546  -0.025935  3.309276  -0.024  -0.240283  -0.019982  3.60588  -0.016  -0.277842  -0.019557  3.623884  -0.015  -0.3269  -0.215335  -0.017525  3.594461  -0.015
N  N80  1  0.17583624  0.22435333  0.15199889  1  -0.260106  -0.02598  3.289312  -0.024  -0.221566  -0.020673  3.579692  -0.017  -0.258866  -0.020717  3.597132  -0.017  -0.319117  -0.196786  0.01762  3.568584  0.015
N  N81  1  0.82417454  0.77565114  0.84802185  1  -0.259957  0.025978  3.289702  0.024  -0.221283  0.020679  3.579753  0.017  -0.258582  0.020724  3.597208  0.017  -0.319046  -0.196494  0.01762  3.568627  0.015
O  O82  1  0.63667148  0.58100204  0.09920842  1  -0.814008  0.017867  2.137166  0.018  -0.754715  0.01315  2.43652  0.012  -0.803313  0.012726  2.419479  0.011  -0.360653  -0.718493  0.011482  2.445664  0.011
O  O83  1  0.36330049  0.41895998  0.90078176  1  -0.814017  -0.017867  2.136885  -0.018  -0.754533  -0.013151  2.436071  -0.012  -0.803137  -0.012726  2.419004  -0.011  -0.360605  -0.718312  0.011485  2.44523  0.011
O  O84  1  0.77544132  0.52071104  0.85810689  1  -0.794944  -0.016613  2.118602  -0.016  -0.740432  -0.012798  2.422107  -0.011  -0.786995  -0.012486  2.405393  -0.01  -0.361461  -0.706081  -0.011093  2.431229  -0.01
O  O85  1  0.22451930  0.47926165  0.14187555  1  -0.795117  0.016623  2.118931  0.016  -0.740552  0.012808  2.422465  0.011  -0.78713  0.012496  2.405742  0.01  -0.361529  -0.706172  -0.011104  2.431557  -0.01
O  O86  1  0.54510935  0.34167385  0.12465487  1  -0.823993  -8.3e-05  1.91958  0.0  -0.770487  -0.000905  2.18401  -0.001  -0.80024  -0.000866  2.1616  -0.001  -0.365464  -0.748386  0.002961  2.199016  0.003
O  O87  1  0.45492216  0.65828318  0.87537410  1  -0.823797  8.7e-05  1.91892  0.0  -0.770494  0.000906  2.183542  0.001  -0.80025  0.000867  2.161139  0.001  -0.365547  -0.74839  0.002962  2.198554  0.003
O  O88  1  0.92997062  0.33693884  0.95447415  1  -0.838593  0.001017  1.949894  0.001  -0.782866  0.001096  2.214831  0.001  -0.807856  0.00104  2.188024  0.001  -0.363521  -0.765892  -0.000638  2.234284  -0.001
O  O89  1  0.07002848  0.66305314  0.04552727  1  -0.838723  -0.001018  1.950054  -0.001  -0.782981  -0.001098  2.215072  -0.001  -0.807943  -0.00104  2.188208  -0.001  -0.363537  -0.766016  -0.000639  2.234544  -0.001
O  O90  1  0.63949483  0.29378464  0.85327935  1  -0.767927  0.000187  2.055932  0.0  -0.698604  0.00019  2.297917  0.0  -0.720605  0.000175  2.273309  0.0  -0.39267  -0.682233  8.8e-05  2.312459  0.0
O  O91  1  0.36051585  0.70616882  0.14668704  1  -0.767692  -0.000189  2.056465  0.0  -0.698493  -0.000191  2.298371  0.0  -0.720501  -0.000173  2.273781  0.0  -0.392583  -0.682123  8.8e-05  2.31293  0.0
O  O92  1  0.84977706  0.42754425  0.17229202  1  -0.768983  -0.000426  2.053421  0.0  -0.69712  -0.000406  2.286903  0.0  -0.7199  -0.000328  2.264136  0.0  -0.386052  -0.680324  0.000418  2.301804  0.001
O  O93  1  0.15023572  0.57247201  0.82769635  1  -0.769044  0.000429  2.053654  0.0  -0.697133  0.000406  2.287257  0.0  -0.719914  0.000334  2.26446  0.0  -0.386103  -0.680308  0.000418  2.302118  0.001
