# generated using pymatgen
data_NiH15C15(NO)5
_symmetry_space_group_name_H-M   'P 1'
_cell_length_a   9.10063880
_cell_length_b   9.83853230
_cell_length_c   10.59237207
_cell_angle_alpha   114.88740492
_cell_angle_beta   96.46963937
_cell_angle_gamma   106.61723458
_symmetry_Int_Tables_number   1
_chemical_formula_structural   NiH15C15(NO)5
_chemical_formula_sum   'Ni2 H30 C30 N10 O10'
_cell_volume   794.23017239
_cell_formula_units_Z   2
loop_
 _symmetry_equiv_pos_site_id
 _symmetry_equiv_pos_as_xyz
  1  'x, y, z'
loop_
 _atom_site_type_symbol
 _atom_site_label
 _atom_site_symmetry_multiplicity
 _atom_site_fract_x
 _atom_site_fract_y
 _atom_site_fract_z
 _atom_site_occupancy
 _atom_site_pbe_cm5_charge
 _atom_site_pbe_ddec_charge
 _atom_site_pbe_ddec_spin_density
 _atom_site_pbe_ddec_sum_bond_order
 _atom_site_pbe_magmom
Ni  Ni0  1  0.24228965  0.39613446  0.23123926  1  0.635325  0.69644  0.038086  2.562313  0.023
Ni  Ni1  1  0.75771624  0.60386657  0.76878087  1  0.6353  0.696418  -0.038058  2.562381  -0.023
H  H2  1  0.13104629  0.45377118  0.94827257  1  0.11109  0.100601  -0.000319  1.038842  0.0
H  H3  1  0.86894722  0.54621418  0.05172420  1  0.111145  0.100744  0.000319  1.038792  0.0
H  H4  1  0.28608531  0.10047777  0.97692062  1  0.134414  0.099947  -0.000158  1.044991  0.0
H  H5  1  0.71391500  0.89951724  0.02307681  1  0.134424  0.099914  0.000158  1.044956  0.0
H  H6  1  0.11912933  0.23292902  0.67279589  1  0.115011  0.121035  -0.000262  1.065788  0.0
H  H7  1  0.88087362  0.76706721  0.32719754  1  0.114992  0.120992  0.000262  1.065878  0.0
H  H8  1  0.09435120  0.89044552  0.61700807  1  0.113744  0.114298  -0.000249  1.010855  0.0
H  H9  1  0.90565397  0.10955072  0.38298746  1  0.113713  0.114235  0.000249  1.010937  0.0
H  H10  1  0.27805164  0.93231716  0.73108030  1  0.11421  0.095827  -1.7e-05  1.007672  0.0
H  H11  1  0.72195797  0.06767908  0.26891943  1  0.114231  0.095837  1.7e-05  1.007597  0.0
H  H12  1  0.30523793  0.90260784  0.49312914  1  0.112705  0.097352  -4.7e-05  1.01366  0.0
H  H13  1  0.69477167  0.09738841  0.50686869  1  0.112735  0.097397  4.7e-05  1.013657  0.0
H  H14  1  0.23460844  0.05906558  0.51369955  1  0.120478  0.10888  0.000152  0.980765  0.0
H  H15  1  0.76539495  0.94093185  0.48629817  1  0.120463  0.108849  -0.000152  0.980835  0.0
H  H16  1  0.43767989  0.31514098  0.58213482  1  0.141081  0.120527  -0.000393  1.01026  0.0
H  H17  1  0.56231266  0.68486004  0.41786518  1  0.141104  0.120543  0.000393  1.010224  0.0
H  H18  1  0.82337757  0.32294663  0.85015652  1  0.109367  0.093921  -0.000537  1.050555  -0.001
H  H19  1  0.17661907  0.67707488  0.14984625  1  0.109368  0.093914  0.000537  1.050635  0.001
H  H20  1  0.56933971  0.03417700  0.75332224  1  0.118073  0.134835  -0.000678  1.068429  -0.001
H  H21  1  0.43067384  0.96583010  0.24668400  1  0.118073  0.134829  0.000678  1.068475  0.001
H  H22  1  0.64342898  0.11256833  0.01915645  1  0.107687  0.119517  -0.000449  1.041285  0.0
H  H23  1  0.35656556  0.88743510  0.98084845  1  0.107686  0.119543  0.000449  1.041255  0.0
H  H24  1  0.93050208  0.17091136  0.02067581  1  0.121287  0.099841  -0.001597  1.006432  -0.001
H  H25  1  0.06949315  0.82909086  0.97933530  1  0.1213  0.09984  0.001597  1.006521  0.001
H  H26  1  0.07368174  0.59686931  0.40464000  1  0.11912  0.093288  -0.000654  1.012769  -0.001
H  H27  1  0.92632545  0.40312332  0.59535807  1  0.119124  0.093295  0.000654  1.012786  0.001
H  H28  1  0.15388186  0.18747587  0.31126226  1  0.279073  0.360816  0.000892  0.991489  0.0
H  H29  1  0.84610859  0.81250104  0.68873468  1  0.279049  0.36076  -0.000892  0.991571  0.0
H  H30  1  0.25988478  0.13743714  0.20212640  1  0.279784  0.357447  0.000546  0.99744  0.0
H  H31  1  0.74010478  0.86254338  0.79787376  1  0.279748  0.357442  -0.000545  0.997468  0.0
C  C32  1  0.15820722  0.34548846  0.91409968  1  -0.00751  -0.043424  -0.001135  4.01604  -0.001
C  C33  1  0.84178959  0.65449691  0.08589457  1  -0.007637  -0.043739  0.001136  4.016133  0.001
C  C34  1  0.24103128  0.16769631  0.93444103  1  0.141831  0.099234  -0.000128  3.884268  0.0
C  C35  1  0.75896572  0.83229869  0.06555986  1  0.141827  0.099255  0.000129  3.884226  0.0
C  C36  1  0.15047686  0.23668117  0.77660598  1  -0.00662  -0.114387  -0.001034  3.909712  -0.001
C  C37  1  0.84952301  0.76331265  0.22338810  1  -0.006463  -0.114159  0.001035  3.909618  0.001
C  C38  1  0.21457064  0.98166313  0.67792429  1  -0.050277  -0.089354  -0.000749  3.865371  -0.001
C  C39  1  0.78543498  0.01833430  0.32207741  1  -0.05022  -0.089219  0.000749  3.86543  0.001
C  C40  1  0.29967825  0.01588648  0.57268321  1  -0.047475  -0.088711  -0.000996  3.887684  -0.001
C  C41  1  0.70032780  0.98411216  0.42731429  1  -0.047511  -0.088803  0.000996  3.8878  0.001
C  C42  1  0.51077959  0.28040040  0.64144394  1  0.145634  0.104927  -0.00158  3.871629  -0.001
C  C43  1  0.48921605  0.71959702  0.35854832  1  0.14566  0.104982  0.001576  3.871558  0.001
C  C44  1  0.70515383  0.28041702  0.78125497  1  -0.007441  -0.045797  -0.002664  4.028593  -0.002
C  C45  1  0.29484045  0.71958882  0.21874425  1  -0.007393  -0.04575  0.002667  4.028471  0.002
C  C46  1  0.58152253  0.13602143  0.73338604  1  -0.009956  -0.12623  -0.00286  3.916905  -0.002
C  C47  1  0.41847620  0.86398442  0.26661833  1  -0.01  -0.126304  0.002861  3.916918  0.002
C  C48  1  0.52373865  0.28590993  0.22571977  1  0.21541  0.573743  -0.001675  4.20662  0.0
C  C49  1  0.47626534  0.71410437  0.77428558  1  0.215379  0.573755  0.001677  4.206414  0.0
C  C50  1  0.69594915  0.32460824  0.22450292  1  0.009582  0.002756  -0.003979  3.915096  -0.004
C  C51  1  0.30404711  0.67539400  0.77548658  1  0.009637  0.002731  0.003976  3.91496  0.004
C  C52  1  0.73571765  0.22077791  0.10763578  1  -0.084043  -0.163241  -0.002921  3.970598  -0.002
C  C53  1  0.26427883  0.77922794  0.89236177  1  -0.084064  -0.163295  0.00292  3.970274  0.002
C  C54  1  0.89442747  0.25342996  0.10622595  1  0.045104  0.088988  -0.000872  3.92462  0.0
C  C55  1  0.10556396  0.74657707  0.89378008  1  0.04515  0.088964  0.000869  3.924612  0.0
C  C56  1  0.97432399  0.49094682  0.32157492  1  0.044974  0.05245  -0.002108  3.918781  -0.001
C  C57  1  0.02567211  0.50905180  0.67842635  1  0.044994  0.052405  0.002108  3.918593  0.001
C  C58  1  0.81887141  0.46394034  0.33436831  1  -0.00314  -0.080259  -0.001248  3.926744  -0.001
C  C59  1  0.18112329  0.53606672  0.66562671  1  -0.003214  -0.080227  0.001248  3.926744  0.001
C  C60  1  0.79384078  0.57548316  0.47323858  1  0.211877  0.576049  -0.000256  4.22384  -0.001
C  C61  1  0.20615746  0.42452751  0.52676291  1  0.212024  0.576261  0.000256  4.223458  0.001
N  N62  1  0.21421021  0.30081485  0.01160252  1  -0.348464  -0.272419  -0.023778  3.59285  -0.023
N  N63  1  0.78578327  0.69917653  0.98839756  1  -0.348474  -0.272371  0.023793  3.592926  0.023
N  N64  1  0.20411053  0.12503519  0.79193877  1  -0.244147  0.051509  -0.000905  3.769049  -0.001
N  N65  1  0.79589152  0.87496465  0.20805977  1  -0.244215  0.051469  0.000906  3.769125  0.001
N  N66  1  0.45952105  0.13828798  0.64453536  1  -0.248449  0.033943  -0.002562  3.794608  -0.003
N  N67  1  0.54048079  0.86171426  0.35546599  1  -0.248451  0.033986  0.00256  3.794416  0.003
N  N68  1  0.65932371  0.36948698  0.72400744  1  -0.352616  -0.266455  -0.069368  3.599176  -0.067
N  N69  1  0.34066793  0.63051164  0.27598586  1  -0.352646  -0.266487  0.069362  3.598969  0.067
N  N70  1  0.01281284  0.38618049  0.21256570  1  -0.328108  -0.213963  -0.049076  3.596225  -0.048
N  N71  1  0.98718593  0.61381933  0.78744101  1  -0.328133  -0.213872  0.049064  3.596153  0.048
O  O72  1  0.47597020  0.40231854  0.25945727  1  -0.290177  -0.506617  -0.040886  2.364857  -0.043
O  O73  1  0.52404546  0.59770063  0.74053786  1  -0.290167  -0.50662  0.040873  2.364974  0.043
O  O74  1  0.44008530  0.13955748  0.18624367  1  -0.316746  -0.558574  -0.001019  2.213554  -0.001
O  O75  1  0.55993375  0.86045566  0.81376357  1  -0.316717  -0.558572  0.00102  2.213362  0.001
O  O76  1  0.72463408  0.50616146  0.53936785  1  -0.300867  -0.525934  0.01576  2.322483  0.017
O  O77  1  0.27535575  0.49384438  0.46062624  1  -0.300969  -0.526025  -0.015756  2.322524  -0.017
O  O78  1  0.85162404  0.72663646  0.51622940  1  -0.318798  -0.565832  0.00052  2.190744  0.001
O  O79  1  0.14838683  0.27337544  0.48377659  1  -0.318792  -0.565904  -0.00052  2.190585  -0.001
O  O80  1  0.15832891  0.15808708  0.20899603  1  -0.582063  -0.737006  0.063591  2.144265  0.063
O  O81  1  0.84167230  0.84191034  0.79100809  1  -0.582025  -0.736982  -0.063605  2.144298  -0.063
