# generated using pymatgen
data_Al2H13C25IO12
_symmetry_space_group_name_H-M   'P 1'
_cell_length_a   6.63143877
_cell_length_b   16.96111890
_cell_length_c   19.67876795
_cell_angle_alpha   71.38199749
_cell_angle_beta   91.72971669
_cell_angle_gamma   91.72402784
_symmetry_Int_Tables_number   1
_chemical_formula_structural   Al2H13C25IO12
_chemical_formula_sum   'Al4 H26 C50 I2 O24'
_cell_volume   2096.12555169
_cell_formula_units_Z   2
loop_
 _symmetry_equiv_pos_site_id
 _symmetry_equiv_pos_as_xyz
  1  'x, y, z'
loop_
 _atom_site_type_symbol
 _atom_site_label
 _atom_site_symmetry_multiplicity
 _atom_site_fract_x
 _atom_site_fract_y
 _atom_site_fract_z
 _atom_site_occupancy
 _atom_site_pbe_bader_charge
 _atom_site_pbe_bader_spin_density
 _atom_site_pbe_cm5_charge
 _atom_site_pbe_ddec_charge
 _atom_site_pbe_ddec_spin_density
 _atom_site_pbe_ddec_sum_bond_order
 _atom_site_pbe_magmom
Al  Al0  1  0.11302826  0.50185332  0.49897674  1  2.499134  0  0.389961  1.637699  0  2.575171  0
Al  Al1  1  0.61332772  0.50054930  0.50035051  1  2.500009  0  0.394097  1.64163  0  2.555292  0
Al  Al2  1  0.62223858  0.00061472  0.00079701  1  2.503764  0  0.395145  1.651244  0  2.582833  0
Al  Al3  1  0.12218616  0.99944308  0.00167321  1  2.499927  0  0.397164  1.644946  0  2.576986  0
H  H4  1  0.56303469  0.18700089  0.80251522  1  0.099635  0  0.112711  0.110671  0  0.979151  0
H  H5  1  0.06944752  0.80213702  0.18628830  1  0.122788  0  0.11516  0.113755  0  0.977217  0
H  H6  1  0.02515313  0.21108526  0.80757971  1  0.091152  0  0.110792  0.127008  0  0.989805  0
H  H7  1  0.53048599  0.81056842  0.20937348  1  0.066991  0  0.111671  0.127719  0  0.988831  0
H  H8  1  0.56280551  0.31147237  0.69480965  1  0.093982  0  0.108301  0.10416  0  0.991168  0
H  H9  1  0.06263652  0.70172371  0.30985819  1  0.105688  0  0.114958  0.11147  0  0.973348  0
H  H10  1  0.01943747  0.28572159  0.68825897  1  0.083953  0  0.114417  0.133922  0  0.978726  0
H  H11  1  0.52430034  0.69569139  0.29825222  1  0.095231  0  0.107202  0.121897  0  1.001762  0
H  H12  1  0.29053773  0.20058202  0.37584363  1  0.08748  0  0.107209  0.11615  0  0.997009  0
H  H13  1  0.93826645  0.80069069  0.62700847  1  0.07641  0  0.107274  0.115503  0  0.994644  0
H  H14  1  0.30103965  0.11553099  0.29578238  1  0.053099  0  0.108499  0.112059  0  0.982367  0
H  H15  1  0.93450325  0.88598581  0.70703625  1  0.065818  0  0.108098  0.111488  0  0.98231  0
H  H16  1  0.16347606  0.07954559  0.18954333  1  0.10381  0  0.111225  0.119807  0  0.992732  0
H  H17  1  0.07855364  0.92178632  0.81264951  1  0.09332  0  0.109797  0.118391  0  0.993499  0
H  H18  1  0.60654545  0.18408716  0.08815605  1  0.098825  0  0.1102  0.118908  0  0.997474  0
H  H19  1  0.63518791  0.81445751  0.91213176  1  0.077001  0  0.107753  0.11326  0  1.002499  0
H  H20  1  0.44096500  0.29295380  0.12526830  1  0.061532  0  0.10722  0.111049  0  0.981801  0
H  H21  1  0.79487928  0.70511975  0.87443661  1  0.082083  0  0.107092  0.110497  0  0.981615  0
H  H22  1  0.44402332  0.38679599  0.19851560  1  0.068233  0  0.091433  0.09661  0  1.044802  0
H  H23  1  0.78514410  0.61115130  0.80119408  1  0.084542  0  0.092141  0.098053  0  1.042651  0
H  H24  1  0.44687551  0.34715066  0.43593080  1  0.633874  0  0.329562  0.383276  0  0.88458  0
H  H25  1  0.77861932  0.65263091  0.56678272  1  0.652242  0  0.328611  0.38282  0  0.886998  0
H  H26  1  0.35077252  0.39363949  0.53937432  1  0.611922  0  0.349094  0.426219  0  0.864201  0
H  H27  1  0.87068146  0.60877865  0.45994982  1  0.631925  0  0.349699  0.425986  0  0.862075  0
H  H28  1  0.37379353  0.11030662  0.96817592  1  0.654281  0  0.355508  0.433671  0  0.848713  0
H  H29  1  0.86408220  0.89234652  0.00817479  1  0.629997  0  0.357136  0.43581  0  0.844942  0
C  C30  1  0.36713473  0.57592296  0.58731483  1  1.595844  0  0.262337  0.642968  0  4.106557  0
C  C31  1  0.85841033  0.42578293  0.41240640  1  1.583683  0  0.261156  0.640665  0  4.107027  0
C  C32  1  0.36903070  0.61771646  0.39149980  1  1.547147  0  0.263543  0.687201  0  4.099319  0
C  C33  1  0.85918831  0.38207164  0.60629934  1  1.553772  0  0.263618  0.68541  0  4.100395  0
C  C34  1  0.70872271  0.21516805  0.78206804  1  -0.039816  0  -0.065559  -0.01977  0  3.975424  0
C  C35  1  0.21309907  0.78379671  0.21493661  1  -0.048989  0  -0.064961  -0.024057  0  3.966444  0
C  C36  1  0.87435846  0.18503672  0.82255997  1  -0.046613  0  -0.082113  -0.22719  0  3.868623  0
C  C37  1  0.38213084  0.82313413  0.18320471  1  -0.019452  0  -0.079285  -0.22233  0  3.86925  0
C  C38  1  0.70763282  0.28269180  0.71461769  1  0.004451  0  -0.067405  -0.017914  0  3.977774  0
C  C39  1  0.20905529  0.72035874  0.28490865  1  -0.077275  0  -0.058553  -0.003852  0  3.947903  0
C  C40  1  0.87027313  0.31220621  0.67370035  1  -0.051462  0  -0.081912  -0.227157  0  3.858539  0
C  C41  1  0.37416588  0.68200712  0.32081532  1  -0.00048  0  -0.08708  -0.235986  0  3.886724  0
C  C42  1  0.72229491  0.38991444  0.30278897  1  -0.230961  0  -0.037034  0.000917  0  3.831652  0
C  C43  1  0.50390766  0.60980452  0.69754340  1  -0.215934  0  -0.036521  0.001832  0  3.833262  0
C  C44  1  0.86020734  0.37700226  0.36064077  1  0.047961  0  -0.01612  -0.095507  0  3.961981  0
C  C45  1  0.36544943  0.62376520  0.63975082  1  0.047747  0  -0.015854  -0.096804  0  3.964521  0
C  C46  1  0.01129490  0.31723808  0.37118286  1  0.046731  0  -0.000223  -0.074998  0  3.880628  0
C  C47  1  0.21522824  0.68370324  0.63000135  1  -0.010564  0  0.000614  -0.073384  0  3.879877  0
C  C48  1  0.01987147  0.26703153  0.32645154  1  -0.021369  0  -0.002489  0.055532  0  4.001332  0
C  C49  1  0.20966518  0.73379791  0.67492684  1  -0.000112  0  -0.002238  0.056069  0  3.99903  0
C  C50  1  0.86714896  0.27545652  0.27182037  1  -0.048848  0  0.006825  0.012491  0  3.90513  0
C  C51  1  0.36445150  0.72492375  0.72894990  1  -0.0105  0  0.007453  0.01239  0  3.905047  0
C  C52  1  0.71502346  0.33708349  0.25988526  1  0.067629  0  -0.009477  0.045206  0  4.01334  0
C  C53  1  0.51428813  0.66246764  0.74052886  1  0.059579  0  -0.010315  0.045232  0  4.014554  0
C  C54  1  0.17437344  0.20706863  0.33423001  1  -0.053752  0  -0.088762  -0.123984  0  3.992832  0
C  C55  1  0.05641457  0.79403143  0.66800052  1  -0.060378  0  -0.087089  -0.12033  0  3.988322  0
C  C56  1  0.18063743  0.15986297  0.28970519  1  0.001925  0  -0.0846  -0.121755  0  4.004169  0
C  C57  1  0.05393628  0.84136850  0.71251942  1  0.023656  0  -0.085325  -0.123984  0  4.003129  0
C  C58  1  0.03117256  0.16718904  0.23407902  1  0.015087  0  -0.007367  0.072072  0  4.04639  0
C  C59  1  0.20587711  0.83378798  0.76742606  1  -0.027437  0  -0.006631  0.073704  0  4.044482  0
C  C60  1  0.87118192  0.22436188  0.22671542  1  0.015492  0  0.004852  0.002411  0  3.903993  0
C  C61  1  0.36415863  0.77604670  0.77409134  1  -0.018505  0  0.004683  0.002221  0  3.901083  0
C  C62  1  0.71739832  0.23104461  0.17285715  1  -0.046444  0  -0.008672  0.071413  0  4.061226  0
C  C63  1  0.51958846  0.76852574  0.82753526  1  -0.040699  0  -0.008102  0.072739  0  4.058919  0
C  C64  1  0.56133733  0.28986977  0.16504034  1  -0.052133  0  -0.083862  -0.116793  0  3.998641  0
C  C65  1  0.67331709  0.70882148  0.83497461  1  -0.056287  0  -0.084613  -0.116224  0  3.999696  0
C  C66  1  0.56272633  0.34168643  0.20565060  1  -0.015173  0  -0.095328  -0.123237  0  4.012647  0
C  C67  1  0.66821872  0.65694639  0.79439883  1  -0.050041  0  -0.094939  -0.124177  0  4.013423  0
C  C68  1  0.03870568  0.12122625  0.18617718  1  -0.065263  0  -0.076547  -0.142158  0  3.924515  0
C  C69  1  0.20207310  0.87969025  0.81549581  1  -0.052369  0  -0.07829  -0.14451  0  3.924178  0
C  C70  1  0.88630993  0.12792002  0.13400513  1  0.000896  0  -0.017098  -0.041913  0  4.022422  0
C  C71  1  0.35612023  0.87222824  0.86727197  1  0.007305  0  -0.018583  -0.040708  0  4.019011  0
C  C72  1  0.72490413  0.18098111  0.12855321  1  0.001155  0  -0.077307  -0.139097  0  3.929636  0
C  C73  1  0.51561741  0.81853574  0.87197211  1  0.002381  0  -0.079223  -0.141111  0  3.937593  0
C  C74  1  0.38177184  0.88749084  0.11213524  1  1.56696  0  0.260693  0.674027  0  4.121667  0
C  C75  1  0.86401486  0.11581671  0.89080338  1  1.564796  0  0.25864  0.674767  0  4.11671  0
C  C76  1  0.35224066  0.91974303  0.91930370  1  1.578071  0  0.267039  0.643992  0  4.092122  0
C  C77  1  0.89255362  0.07980107  0.08255262  1  1.554202  0  0.268391  0.642497  0  4.096083  0
C  C78  1  0.16916831  0.30989819  0.42963577  1  1.531525  0  0.23485  0.599352  0  4.118111  0
C  C79  1  0.05525785  0.69145830  0.57211131  1  1.551455  0  0.234431  0.599532  0  4.122039  0
I  I80  1  0.54864479  0.49877880  0.27049802  1  0.134217  0  0.09885  -0.003109  0  1.55111  0
I  I81  1  0.67161089  0.49937915  0.72959217  1  0.138414  0  0.102216  -0.002906  0  1.568715  0
O  O82  1  0.53994209  0.58628999  0.41589661  1  -1.266291  0  -0.243313  -0.616  0  2.357367  0
O  O83  1  0.02499362  0.40578551  0.57416226  1  -1.254176  0  -0.230939  -0.585476  0  2.336576  0
O  O84  1  0.19797620  0.54726028  0.57343903  1  -1.247094  0  -0.223914  -0.571964  0  2.392713  0
O  O85  1  0.69228558  0.43012506  0.44211642  1  -1.25314  0  -0.234125  -0.591936  0  2.352297  0
O  O86  1  0.20217768  0.59704758  0.42346119  1  -1.26197  0  -0.232202  -0.591026  0  2.343657  0
O  O87  1  0.68777923  0.41440663  0.58454778  1  -1.274806  0  -0.242014  -0.617888  0  2.374004  0
O  O88  1  0.02725290  0.45589045  0.42491629  1  -1.245308  0  -0.223975  -0.572502  0  2.390254  0
O  O89  1  0.53439853  0.57081604  0.55857850  1  -1.250116  0  -0.234922  -0.59328  0  2.355512  0
O  O90  1  0.35990993  0.44977054  0.50567550  1  -1.414945  0  -0.448115  -0.983119  0  2.199758  0
O  O91  1  0.86575426  0.55266202  0.49378797  1  -1.434025  0  -0.44732  -0.98122  0  2.199804  0
O  O92  1  0.18407304  0.94820205  0.92938248  1  -1.252522  0  -0.238879  -0.592341  0  2.32078  0
O  O93  1  0.72754235  0.07398508  0.04938223  1  -1.26453  0  -0.236637  -0.599796  0  2.370426  0
O  O94  1  0.55315337  0.92145304  0.09142162  1  -1.24937  0  -0.236058  -0.584878  0  2.296563  0
O  O95  1  0.03144832  0.09610824  0.92532401  1  -1.264509  0  -0.241012  -0.604682  0  2.304744  0
O  O96  1  0.51915013  0.92670080  0.95114923  1  -1.268559  0  -0.239735  -0.608524  0  2.358872  0
O  O97  1  0.05965175  0.04959726  0.07394174  1  -1.250991  0  -0.234744  -0.580484  0  2.31411  0
O  O98  1  0.69228209  0.08166964  0.91045210  1  -1.257383  0  -0.239715  -0.600363  0  2.322042  0
O  O99  1  0.21556952  0.90434177  0.07665157  1  -1.268522  0  -0.239139  -0.603308  0  2.331681  0
O  O100  1  0.37441369  0.05109520  0.99336717  1  -1.458177  0  -0.448026  -0.995893  0  2.214023  0
O  O101  1  0.86897052  0.94938626  0.00816420  1  -1.432853  0  -0.447651  -0.997651  0  2.222299  0
O  O102  1  0.13784034  0.28360848  0.49394507  1  -1.125003  0  -0.294649  -0.485865  0  2.070284  0
O  O103  1  0.35027128  0.33638167  0.40056685  1  -1.13291  0  -0.329398  -0.49115  0  2.355187  0
O  O104  1  0.08361946  0.71949614  0.50769803  1  -1.128467  0  -0.29376  -0.484172  0  2.066693  0
O  O105  1  0.87611965  0.66312466  0.60203793  1  -1.154203  0  -0.329597  -0.491858  0  2.355778  0
