# generated using pymatgen
data_CdH8C10(NCl2)2
_symmetry_space_group_name_H-M   'P 1'
_cell_length_a   3.84559768
_cell_length_b   11.58004528
_cell_length_c   14.23810476
_cell_angle_alpha   89.99947932
_cell_angle_beta   89.99996649
_cell_angle_gamma   89.38646033
_symmetry_Int_Tables_number   1
_chemical_formula_structural   CdH8C10(NCl2)2
_chemical_formula_sum   'Cd2 H16 C20 N4 Cl8'
_cell_volume   634.01770868
_cell_formula_units_Z   2
loop_
 _symmetry_equiv_pos_site_id
 _symmetry_equiv_pos_as_xyz
  1  'x, y, z'
loop_
 _atom_site_type_symbol
 _atom_site_label
 _atom_site_symmetry_multiplicity
 _atom_site_fract_x
 _atom_site_fract_y
 _atom_site_fract_z
 _atom_site_occupancy
 _atom_site_hle17_bader_spin_density
 _atom_site_hle17_ddec_charge
 _atom_site_hle17_ddec_spin_density
 _atom_site_hle17_ddec_sum_bond_order
 _atom_site_hle17_magmom
 _atom_site_hse06_10hf_bader_spin_density
 _atom_site_hse06_10hf_ddec_charge
 _atom_site_hse06_10hf_ddec_spin_density
 _atom_site_hse06_10hf_ddec_sum_bond_order
 _atom_site_hse06_10hf_magmom
 _atom_site_hse06_bader_spin_density
 _atom_site_hse06_ddec_charge
 _atom_site_hse06_ddec_spin_density
 _atom_site_hse06_ddec_sum_bond_order
 _atom_site_hse06_magmom
 _atom_site_pbe_bader_spin_density
 _atom_site_pbe_cm5_charge
 _atom_site_pbe_ddec_charge
 _atom_site_pbe_ddec_spin_density
 _atom_site_pbe_ddec_sum_bond_order
 _atom_site_pbe_magmom
Cd  Cd0  1  0.00000532  0.00000342  0.00000070  1  0  0.931707  0  1.93666  0  0  0.763483  0  2.385344  0  0  0.810341  0  2.347497  0  0  0.592422  0.730469  0  2.411268  0
Cd  Cd1  1  0.99999688  0.50000480  0.49999720  1  0  0.931719  0  1.936651  0  0  0.763471  0  2.385384  0  0  0.810352  0  2.347489  0  0  0.592421  0.730458  0  2.411314  0
H  H2  1  0.73738613  0.89530618  0.80285418  1  0  0.087973  0  0.972166  0  0  0.09279  0  1.045524  0  0  0.095744  0  1.04283  0  0  0.102592  0.090645  0  1.047457  0
H  H3  1  0.73737761  0.39531324  0.69714463  1  0  0.088054  0  0.972139  0  0  0.092864  0  1.045503  0  0  0.095817  0  1.042811  0  0  0.102622  0.090721  0  1.047436  0
H  H4  1  0.26262420  0.10469278  0.19715575  1  0  0.088055  0  0.972227  0  0  0.092907  0  1.045531  0  0  0.095862  0  1.042835  0  0  0.10261  0.090763  0  1.047465  0
H  H5  1  0.26264873  0.60469769  0.30283790  1  0  0.087992  0  0.972129  0  0  0.092879  0  1.045434  0  0  0.095835  0  1.042741  0  0  0.102578  0.090732  0  1.047371  0
H  H6  1  0.97857819  0.12310331  0.57116608  1  0  0.112238  0  0.955196  0  0  0.11568  0  1.028886  0  0  0.119429  0  1.0254  0  0  0.097252  0.11293  0  1.031454  0
H  H7  1  0.97857636  0.62310356  0.92883542  1  0  0.112228  0  0.955206  0  0  0.115616  0  1.028971  0  0  0.119364  0  1.025486  0  0  0.097254  0.112865  0  1.031539  0
H  H8  1  0.02139555  0.87689074  0.42883963  1  0  0.112236  0  0.955149  0  0  0.115651  0  1.028871  0  0  0.119398  0  1.025388  0  0  0.097255  0.112901  0  1.031438  0
H  H9  1  0.02141290  0.37688778  0.07116537  1  0  0.112254  0  0.955188  0  0  0.115623  0  1.028939  0  0  0.11937  0  1.025455  0  0  0.09728  0.112875  0  1.031507  0
H  H10  1  0.23851831  0.25729462  0.68751820  1  0  0.105513  0  0.970436  0  0  0.114007  0  1.03343  0  0  0.116926  0  1.032773  0  0  0.096447  0.111861  0  1.034163  0
H  H11  1  0.23850899  0.75729881  0.81248030  1  0  0.105521  0  0.970447  0  0  0.114028  0  1.033416  0  0  0.116948  0  1.032756  0  0  0.096454  0.111883  0  1.034149  0
H  H12  1  0.76148670  0.74270092  0.31248189  1  0  0.10549  0  0.97043  0  0  0.113979  0  1.033446  0  0  0.1169  0  1.032785  0  0  0.096413  0.111835  0  1.034179  0
H  H13  1  0.76149877  0.24270103  0.18752470  1  0  0.105449  0  0.970294  0  0  0.113972  0  1.033274  0  0  0.116888  0  1.032622  0  0  0.096433  0.111828  0  1.034007  0
H  H14  1  0.23674485  0.20232146  0.85958765  1  0  0.071903  0  0.990104  0  0  0.072106  0  1.071721  0  0  0.075259  0  1.068203  0  0  0.093433  0.069792  0  1.074243  0
H  H15  1  0.23673848  0.70232754  0.64041266  1  0  0.071874  0  0.990256  0  0  0.072082  0  1.071855  0  0  0.075233  0  1.068342  0  0  0.093444  0.069767  0  1.07438  0
H  H16  1  0.76324987  0.79767761  0.14041455  1  0  0.071888  0  0.990112  0  0  0.072085  0  1.071737  0  0  0.075248  0  1.068197  0  0  0.093432  0.069771  0  1.074261  0
H  H17  1  0.76326698  0.29768095  0.35959305  1  0  0.071891  0  0.990233  0  0  0.072081  0  1.071852  0  0  0.075236  0  1.068335  0  0  0.093462  0.069767  0  1.074375  0
C  C18  1  0.84863962  0.97417457  0.77447299  1  0  0.05495  0  3.706195  0  0  0.014263  0  3.960794  0  0  0.020457  0  3.978688  0  0  0.031332  0.010365  0  3.948611  0
C  C19  1  0.84863099  0.47417959  0.72552522  1  0  0.054725  0  3.706137  0  0  0.014018  0  3.960824  0  0  0.020215  0  3.978713  0  0  0.031247  0.01012  0  3.948641  0
C  C20  1  0.15138105  0.02582258  0.22552921  1  0  0.054716  0  3.70593  0  0  0.014014  0  3.960503  0  0  0.020207  0  3.978388  0  0  0.031288  0.010117  0  3.948324  0
C  C21  1  0.15139476  0.52581407  0.27446364  1  0  0.054883  0  3.706027  0  0  0.014139  0  3.960599  0  0  0.020324  0  3.978499  0  0  0.031418  0.010245  0  3.948416  0
C  C22  1  0.84358710  0.99845554  0.67851561  1  0  0.075261  0  3.809745  0  0  0.093339  0  4.072136  0  0  0.091798  0  4.09442  0  0  0.010428  0.093917  0  4.057178  0
C  C23  1  0.84357568  0.49845951  0.82148312  1  0  0.075327  0  3.809608  0  0  0.093408  0  4.072006  0  0  0.091867  0  4.094289  0  0  0.01041  0.093987  0  4.057047  0
C  C24  1  0.15639716  0.00154188  0.32149291  1  0  0.075283  0  3.809765  0  0  0.093361  0  4.072147  0  0  0.091824  0  4.094427  0  0  0.010472  0.093937  0  4.057194  0
C  C25  1  0.15643731  0.50154115  0.17850433  1  0  0.075171  0  3.809667  0  0  0.093247  0  4.072093  0  0  0.091708  0  4.094376  0  0  0.010376  0.093825  0  4.05714  0
C  C26  1  0.98088008  0.10187914  0.64568591  1  0  -0.062039  0  3.704243  0  0  -0.091523  0  3.955534  0  0  -0.088842  0  3.972992  0  0  -0.075125  -0.092953  0  3.943711  0
C  C27  1  0.98086028  0.60188294  0.85431294  1  0  -0.061993  0  3.7043  0  0  -0.091425  0  3.955541  0  0  -0.088745  0  3.972999  0  0  -0.075093  -0.092856  0  3.943718  0
C  C28  1  0.01912251  0.89812160  0.35432191  1  0  -0.061989  0  3.704231  0  0  -0.091425  0  3.955495  0  0  -0.088746  0  3.972953  0  0  -0.075082  -0.092854  0  3.943675  0
C  C29  1  0.01913675  0.39810748  0.14568223  1  0  -0.061941  0  3.703906  0  0  -0.091363  0  3.955276  0  0  -0.088675  0  3.972722  0  0  -0.075133  -0.092795  0  3.94346  0
C  C30  1  0.12376012  0.17688284  0.71130468  1  0  -0.098409  0  3.719984  0  0  -0.106159  0  3.968916  0  0  -0.113513  0  3.991286  0  0  -0.085493  -0.101542  0  3.954016  0
C  C31  1  0.12376114  0.67688377  0.78869655  1  0  -0.098509  0  3.720003  0  0  -0.106245  0  3.968915  0  0  -0.1136  0  3.991287  0  0  -0.085543  -0.101628  0  3.954013  0
C  C32  1  0.87623206  0.82311798  0.28869682  1  0  -0.098423  0  3.719768  0  0  -0.106175  0  3.968695  0  0  -0.113529  0  3.99107  0  0  -0.085504  -0.101558  0  3.953797  0
C  C33  1  0.87623640  0.32312133  0.21130987  1  0  -0.098497  0  3.719854  0  0  -0.106297  0  3.968823  0  0  -0.113652  0  3.991194  0  0  -0.085583  -0.101678  0  3.953926  0
C  C34  1  0.12337062  0.14706729  0.80605265  1  0  0.115451  0  3.704672  0  0  0.07922  0  3.962796  0  0  0.08652  0  3.981421  0  0  0.033675  0.074557  0  3.950087  0
C  C35  1  0.12336674  0.64707275  0.69394528  1  0  0.115532  0  3.704633  0  0  0.079302  0  3.962782  0  0  0.086604  0  3.981412  0  0  0.033709  0.074637  0  3.950074  0
C  C36  1  0.87662150  0.85293181  0.19394674  1  0  0.115526  0  3.704818  0  0  0.079291  0  3.962956  0  0  0.086588  0  3.981592  0  0  0.033732  0.074628  0  3.95025  0
C  C37  1  0.87662820  0.35293237  0.30605902  1  0  0.115679  0  3.704613  0  0  0.079483  0  3.962703  0  0  0.086782  0  3.981326  0  0  0.033761  0.074818  0  3.950002  0
N  N38  1  0.98701581  0.04749629  0.83675929  1  0  -0.302854  0  3.282299  0  0  -0.222721  0  3.542496  0  0  -0.24321  0  3.56492  0  0  -0.326239  -0.208814  0  3.526942  0
N  N39  1  0.98702233  0.54750030  0.66323715  1  0  -0.302748  0  3.282308  0  0  -0.222618  0  3.542456  0  0  -0.243113  0  3.564888  0  0  -0.32621  -0.208713  0  3.526903  0
N  N40  1  0.01297617  0.95249848  0.16324501  1  0  -0.302867  0  3.282477  0  0  -0.222756  0  3.542691  0  0  -0.243249  0  3.565125  0  0  -0.326324  -0.20885  0  3.52714  0
N  N41  1  0.01298566  0.45250645  0.33675803  1  0  -0.302993  0  3.282665  0  0  -0.222814  0  3.542767  0  0  -0.243308  0  3.565206  0  0  -0.326296  -0.208909  0  3.527217  0
Cl  Cl42  1  0.49043131  0.15590022  0.02902923  1  0  -0.552334  0  0.984124  0  0  -0.487737  0  1.266713  0  0  -0.505643  0  1.247037  0  0  -0.298073  -0.474658  0  1.280472  0
Cl  Cl43  1  0.49042936  0.65589914  0.47096822  1  0  -0.552323  0  0.984135  0  0  -0.487734  0  1.266756  0  0  -0.505648  0  1.247074  0  0  -0.298067  -0.474654  0  1.280517  0
Cl  Cl44  1  0.50956898  0.84410917  0.97097086  1  0  -0.552317  0  0.984127  0  0  -0.487692  0  1.266685  0  0  -0.505602  0  1.247011  0  0  -0.298056  -0.474614  0  1.280445  0
Cl  Cl45  1  0.50956823  0.34410769  0.52902977  1  0  -0.552342  0  0.984114  0  0  -0.487727  0  1.2667  0  0  -0.50564  0  1.247018  0  0  -0.298061  -0.474649  0  1.28046  0
Cl  Cl46  1  0.67103004  0.89842661  0.60193277  1  0  -0.073512  0  1.434765  0  0  -0.055028  0  1.683328  0  0  -0.060115  0  1.681041  0  0  0.023541  -0.051358  0  1.685081  0
Cl  Cl47  1  0.67102881  0.39842793  0.89806322  1  0  -0.073534  0  1.434821  0  0  -0.055043  0  1.683369  0  0  -0.06013  0  1.681079  0  0  0.02354  -0.051374  0  1.685122  0
Cl  Cl48  1  0.32894645  0.10157174  0.39807224  1  0  -0.073434  0  1.43482  0  0  -0.054965  0  1.683422  0  0  -0.060053  0  1.681132  0  0  0.023564  -0.051293  0  1.685174  0
Cl  Cl49  1  0.32895256  0.60156088  0.10192493  1  0  -0.073429  0  1.435268  0  0  -0.05494  0  1.683844  0  0  -0.060032  0  1.681557  0  0  0.023583  -0.051268  0  1.685596  0
