# generated using pymatgen
data_AgH15C11SN4O3
_symmetry_space_group_name_H-M   'P 1'
_cell_length_a   6.48667884
_cell_length_b   8.54496216
_cell_length_c   24.43665098
_cell_angle_alpha   89.99923863
_cell_angle_beta   96.84716894
_cell_angle_gamma   90.00072889
_symmetry_Int_Tables_number   1
_chemical_formula_structural   AgH15C11SN4O3
_chemical_formula_sum   'Ag4 H60 C44 S4 N16 O12'
_cell_volume   1344.82448137
_cell_formula_units_Z   4
loop_
 _symmetry_equiv_pos_site_id
 _symmetry_equiv_pos_as_xyz
  1  'x, y, z'
loop_
 _atom_site_type_symbol
 _atom_site_label
 _atom_site_symmetry_multiplicity
 _atom_site_fract_x
 _atom_site_fract_y
 _atom_site_fract_z
 _atom_site_occupancy
 _atom_site_pbe_bader_charge
 _atom_site_pbe_bader_spin_density
 _atom_site_pbe_cm5_charge
 _atom_site_pbe_ddec_charge
 _atom_site_pbe_ddec_spin_density
 _atom_site_pbe_ddec_sum_bond_order
 _atom_site_pbe_magmom
Ag  Ag0  1  0.22806042  0.51535575  0.69619251  1  0.552175  0  0.47218  0.340313  0  1.777636  0
Ag  Ag1  1  0.77194154  0.01535296  0.80380341  1  0.552103  0  0.472218  0.340381  0  1.777679  0
Ag  Ag2  1  0.77193669  0.48465193  0.30380647  1  0.552206  0  0.472174  0.340295  0  1.77768  0
Ag  Ag3  1  0.22806803  0.98464770  0.19619353  1  0.552075  0  0.472197  0.340371  0  1.777672  0
H  H4  1  0.58449570  0.70590700  0.76717679  1  0.102245  0  0.116885  0.086097  0  1.009581  0
H  H5  1  0.41643012  0.83308020  0.72329354  1  0.071216  0  0.116492  0.083438  0  1.008257  0
H  H6  1  0.75382285  0.49424935  0.72863780  1  0.068439  0  0.11775  0.084839  0  1.002381  0
H  H7  1  0.70892707  0.45175764  0.65648229  1  0.083707  0  0.125087  0.107683  0  0.973441  0
H  H8  1  0.52006227  0.21383006  0.49953219  1  0.116119  0  0.104164  0.107965  0  0.994198  0
H  H9  1  0.35746895  0.78663569  0.62641090  1  0.091255  0  0.116286  0.082153  0  1.026584  0
H  H10  1  0.47974038  0.62385205  0.59685922  1  0.064409  0  0.121353  0.089829  0  0.966001  0
H  H11  1  0.61639505  0.01392334  0.43483046  1  0.098294  0  0.10351  0.105409  0  1.054598  0
H  H12  1  0.84667225  0.63077030  0.59172122  1  0.059393  0  0.123618  0.093661  0  0.950583  0
H  H13  1  0.99514980  0.79817326  0.61747983  1  0.063954  0  0.11845  0.08937  0  1.006381  0
H  H14  1  0.95802121  0.71756491  0.76206347  1  0.082047  0  0.115162  0.092549  0  1.025188  0
H  H15  1  0.05230435  0.84795991  0.71270876  1  0.09896  0  0.116002  0.085942  0  1.017882  0
H  H16  1  0.76684436  0.28782183  0.58130320  1  0.117237  0  0.103128  0.113943  0  1.023397  0
H  H17  1  0.82877164  0.01295463  0.65744297  1  0.102925  0  0.116156  0.089843  0  1.013998  0
H  H18  1  0.55356103  0.00702692  0.66054700  1  0.08836  0  0.116537  0.095187  0  1.018978  0
H  H19  1  0.41551991  0.20590462  0.73282033  1  0.102128  0  0.116907  0.086111  0  1.009612  0
H  H20  1  0.58357805  0.33307193  0.77670276  1  0.072055  0  0.116504  0.083467  0  1.008143  0
H  H21  1  0.24618146  0.99423188  0.77135967  1  0.07016  0  0.117731  0.084907  0  1.002465  0
H  H22  1  0.29107505  0.95173784  0.84351571  1  0.083865  0  0.125178  0.107858  0  0.973565  0
H  H23  1  0.47995869  0.71381006  0.00046549  1  0.117219  0  0.104111  0.107802  0  0.994275  0
H  H24  1  0.64253388  0.28662077  0.87358461  1  0.091118  0  0.116275  0.082229  0  1.026604  0
H  H25  1  0.52026784  0.12383480  0.90313559  1  0.064537  0  0.121396  0.089944  0  0.966004  0
H  H26  1  0.38360584  0.51391279  0.06517158  1  0.098228  0  0.103517  0.105408  0  1.05458  0
H  H27  1  0.15332831  0.13074926  0.90827371  1  0.058876  0  0.123603  0.093721  0  0.950597  0
H  H28  1  0.00485630  0.29815410  0.88251656  1  0.064179  0  0.118447  0.089351  0  1.006156  0
H  H29  1  0.04198683  0.21754699  0.73793212  1  0.081845  0  0.115121  0.092521  0  1.025112  0
H  H30  1  0.94770409  0.34793723  0.78728379  1  0.099117  0  0.116052  0.086037  0  1.017693  0
H  H31  1  0.23316934  0.78782902  0.91869471  1  0.116967  0  0.103071  0.113879  0  1.023347  0
H  H32  1  0.17122564  0.51293019  0.84255199  1  0.102525  0  0.116079  0.089703  0  1.014112  0
H  H33  1  0.44643616  0.50701348  0.83944798  1  0.088485  0  0.116516  0.095049  0  1.019132  0
H  H34  1  0.41551226  0.29409366  0.23282336  1  0.102245  0  0.116897  0.086066  0  1.009604  0
H  H35  1  0.58356543  0.16692163  0.27670621  1  0.071263  0  0.116499  0.083444  0  1.008272  0
H  H36  1  0.24617424  0.50575014  0.27136241  1  0.068445  0  0.117742  0.084837  0  1.002373  0
H  H37  1  0.29107312  0.54824419  0.34351843  1  0.083672  0  0.125101  0.107722  0  0.973496  0
H  H38  1  0.47996131  0.78619517  0.50046151  1  0.117081  0  0.104116  0.107809  0  0.994339  0
H  H39  1  0.64252813  0.21336614  0.37358972  1  0.091086  0  0.116299  0.082174  0  1.026618  0
H  H40  1  0.52025518  0.37615212  0.40313890  1  0.064394  0  0.121332  0.089818  0  0.966015  0
H  H41  1  0.38360676  0.98608902  0.56516540  1  0.098218  0  0.103541  0.105405  0  1.054531  0
H  H42  1  0.15332174  0.36923504  0.40827889  1  0.059313  0  0.123643  0.093684  0  0.950571  0
H  H43  1  0.00484416  0.20182974  0.38252233  1  0.063889  0  0.118468  0.089431  0  1.006293  0
H  H44  1  0.04197742  0.28244862  0.23793801  1  0.082014  0  0.115179  0.092584  0  1.025138  0
H  H45  1  0.94768812  0.15204543  0.28728885  1  0.098968  0  0.116001  0.085968  0  1.017876  0
H  H46  1  0.23316522  0.71217180  0.41869210  1  0.11706  0  0.103082  0.113861  0  1.023322  0
H  H47  1  0.17122081  0.98705188  0.34255627  1  0.102592  0  0.116172  0.089898  0  1.013959  0
H  H48  1  0.44643142  0.99297841  0.33945224  1  0.088441  0  0.116552  0.095195  0  1.01905  0
H  H49  1  0.58448183  0.79408901  0.26718085  1  0.102421  0  0.1169  0.086127  0  1.009601  0
H  H50  1  0.41642526  0.66692171  0.22329725  1  0.071193  0  0.116512  0.083462  0  1.008183  0
H  H51  1  0.75383112  0.00575239  0.22864432  1  0.068475  0  0.117701  0.08481  0  1.002525  0
H  H52  1  0.70893754  0.04825228  0.15648745  1  0.083976  0  0.125156  0.10778  0  0.973428  0
H  H53  1  0.52003527  0.28618592  0.99953667  1  0.117142  0  0.104098  0.107803  0  0.994328  0
H  H54  1  0.35746633  0.71337989  0.12641488  1  0.091118  0  0.116287  0.082273  0  1.026565  0
H  H55  1  0.47974943  0.87616703  0.09686609  1  0.064564  0  0.121425  0.089955  0  0.966072  0
H  H56  1  0.61638814  0.48607500  0.93482935  1  0.098552  0  0.103481  0.105345  0  1.054566  0
H  H57  1  0.84667344  0.86924905  0.09172706  1  0.058924  0  0.123628  0.093728  0  0.950572  0
H  H58  1  0.99514700  0.70183719  0.11748385  1  0.06411  0  0.118429  0.089294  0  1.00623  0
H  H59  1  0.95802113  0.78244314  0.26206885  1  0.08184  0  0.11513  0.092567  0  1.025083  0
H  H60  1  0.05230231  0.65204821  0.21271754  1  0.099205  0  0.116001  0.085895  0  1.017747  0
H  H61  1  0.76683083  0.21217983  0.08130805  1  0.117007  0  0.103118  0.113909  0  1.023483  0
H  H62  1  0.82876990  0.48705994  0.15744858  1  0.102604  0  0.116111  0.089771  0  1.014034  0
H  H63  1  0.55355937  0.49298367  0.16055258  1  0.088393  0  0.116567  0.095148  0  1.01907  0
C  C64  1  0.55822296  0.76214313  0.72654311  1  0.516969  0  0.007821  -0.01472  0  3.876458  0
C  C65  1  0.00758941  0.13524909  0.56078087  1  -0.206026  0  -0.021165  -0.135113  0  3.92921  0
C  C66  1  0.72580557  0.54555977  0.68728810  1  0.550757  0  0.018513  0.005258  0  3.825732  0
C  C67  1  0.67478149  0.16211486  0.50524235  1  -0.095096  0  -0.087583  -0.064331  0  3.998107  0
C  C68  1  0.49925077  0.71586248  0.62846641  1  0.538843  0  0.015438  -0.011573  0  3.900542  0
C  C69  1  0.72919439  0.05052024  0.46892397  1  -0.031334  0  -0.08792  -0.131429  0  3.976315  0
C  C70  1  0.86321207  0.72238164  0.62349447  1  0.572523  0  0.021163  0.002949  0  3.875168  0
C  C71  1  0.92771199  0.97860475  0.47648069  1  0.00935  0  -0.002849  0.067878  0  3.952703  0
C  C72  1  0.92518722  0.77017315  0.72106160  1  0.535553  0  0.002161  -0.027497  0  3.879427  0
C  C73  1  0.81389964  0.20433368  0.55159082  1  0.024464  0  -0.086619  -0.084811  0  3.990816  0
C  C74  1  0.69648161  0.93775726  0.66315902  1  0.513623  0  0.01307  -0.001377  0  3.829155  0
C  C75  1  0.44178260  0.26213476  0.77345424  1  0.516141  0  0.007822  -0.01449  0  3.876289  0
C  C76  1  0.99240653  0.63525119  0.93921635  1  -0.206415  0  -0.021229  -0.135306  0  3.929291  0
C  C77  1  0.27420458  0.04554124  0.81270958  1  0.548629  0  0.018277  0.005006  0  3.826047  0
C  C78  1  0.32522263  0.66210363  0.99475256  1  -0.096401  0  -0.087465  -0.063944  0  3.997851  0
C  C79  1  0.50075568  0.21584625  0.87152955  1  0.538037  0  0.015425  -0.011834  0  3.90102  0
C  C80  1  0.27081172  0.55051574  0.03107602  1  -0.031292  0  -0.088009  -0.131627  0  3.976249  0
C  C81  1  0.13679293  0.22236284  0.87650100  1  0.573243  0  0.021085  0.002708  0  3.875546  0
C  C82  1  0.07228176  0.47860705  0.02351898  1  0.009467  0  -0.00285  0.067813  0  3.952768  0
C  C83  1  0.07481849  0.27015397  0.77893368  1  0.535676  0  0.002081  -0.027464  0  3.879442  0
C  C84  1  0.18611132  0.70432521  0.94840411  1  0.025197  0  -0.086587  -0.084826  0  3.990623  0
C  C85  1  0.30352032  0.43774044  0.83683782  1  0.513905  0  0.013163  -0.001036  0  3.829246  0
C  C86  1  0.44177413  0.23786104  0.27345751  1  0.516949  0  0.007742  -0.014749  0  3.87657  0
C  C87  1  0.99240619  0.86473986  0.43921520  1  -0.206499  0  -0.021214  -0.135216  0  3.929216  0
C  C88  1  0.27419151  0.45444089  0.31271292  1  0.550882  0  0.01849  0.005217  0  3.825888  0
C  C89  1  0.32523276  0.83789984  0.49475187  1  -0.09613  0  -0.087517  -0.064119  0  3.997836  0
C  C90  1  0.50075099  0.28413935  0.37153313  1  0.538278  0  0.015363  -0.011652  0  3.900544  0
C  C91  1  0.27080430  0.94948744  0.53107301  1  -0.029123  0  -0.087992  -0.131416  0  3.97605  0
C  C92  1  0.13678036  0.27762370  0.37650559  1  0.572548  0  0.021057  0.002822  0  3.875272  0
C  C93  1  0.07228828  0.02139356  0.52351390  1  -0.046719  0  -0.002791  0.067752  0  3.95271  0
C  C94  1  0.07480833  0.22983219  0.27893815  1  0.535643  0  0.002136  -0.027575  0  3.879356  0
C  C95  1  0.18611616  0.79567869  0.44840427  1  0.024893  0  -0.086515  -0.084703  0  3.99052  0
C  C96  1  0.30351392  0.06224924  0.33684155  1  0.513802  0  0.012979  -0.001548  0  3.829436  0
C  C97  1  0.55821759  0.73786355  0.22654648  1  0.516717  0  0.00784  -0.014588  0  3.87641  0
C  C98  1  0.00758589  0.36474829  0.06078494  1  -0.206518  0  -0.02112  -0.135042  0  3.929141  0
C  C99  1  0.72581268  0.95444888  0.18729333  1  0.550352  0  0.018493  0.005326  0  3.825934  0
C  C100  1  0.67476513  0.33789117  0.00524817  1  -0.096334  0  -0.087528  -0.064039  0  3.997882  0
C  C101  1  0.49924918  0.78415090  0.12847050  1  0.538015  0  0.015346  -0.011902  0  3.901053  0
C  C102  1  0.72918539  0.44946853  0.96892255  1  -0.03152  0  -0.087905  -0.131439  0  3.976092  0
C  C103  1  0.86321504  0.77763314  0.12349915  1  0.573196  0  0.021068  0.002823  0  3.875348  0
C  C104  1  0.92770132  0.52139360  0.97648323  1  -0.04455  0  -0.002761  0.067915  0  3.952575  0
C  C105  1  0.92518636  0.72983382  0.22106761  1  0.535456  0  0.002229  -0.027279  0  3.879017  0
C  C106  1  0.81387954  0.29568013  0.05159794  1  0.024982  0  -0.086604  -0.08488  0  3.990748  0
C  C107  1  0.69647832  0.56225437  0.16316285  1  0.513834  0  0.013104  -0.001198  0  3.82905  0
S  S108  1  0.16940825  0.18586097  0.62291193  1  3.153084  0  0.488505  1.146244  0  6.216924  0
S  S109  1  0.83059463  0.68585568  0.87708610  1  3.153396  0  0.488585  1.146332  0  6.217007  0
S  S110  1  0.83057793  0.81414203  0.37709079  1  3.152805  0  0.488529  1.146305  0  6.217111  0
S  S111  1  0.16940401  0.31414966  0.12291497  1  3.15325  0  0.488611  1.146391  0  6.216857  0
N  N112  1  0.53068229  0.63804847  0.68366696  1  -0.958001  0  -0.359478  -0.160103  0  3.481655  0
N  N113  1  0.73465861  0.86557466  0.71913807  1  -0.971074  0  -0.354201  -0.161441  0  3.445834  0
N  N114  1  0.90574615  0.64545827  0.67862909  1  -0.971049  0  -0.353704  -0.159962  0  3.449579  0
N  N115  1  0.67415908  0.81666441  0.62000661  1  -1.001923  0  -0.341014  -0.177882  0  3.393046  0
N  N116  1  0.46932303  0.13803522  0.81632850  1  -0.957537  0  -0.359466  -0.160282  0  3.481737  0
N  N117  1  0.26534693  0.36556312  0.78085799  1  -0.970852  0  -0.354209  -0.161691  0  3.445612  0
N  N118  1  0.09426238  0.14544351  0.82136686  1  -0.970842  0  -0.353504  -0.159913  0  3.449719  0
N  N119  1  0.32584574  0.31664381  0.87998965  1  -1.002103  0  -0.340949  -0.17766  0  3.393171  0
N  N120  1  0.46931793  0.36195452  0.31633171  1  -0.957405  0  -0.359417  -0.16011  0  3.4816  0
N  N121  1  0.26533694  0.13442833  0.28086168  1  -0.970928  0  -0.354148  -0.161336  0  3.445629  0
N  N122  1  0.09425405  0.35454472  0.32137122  1  -0.971099  0  -0.35372  -0.159946  0  3.449802  0
N  N123  1  0.32583490  0.18334444  0.37999390  1  -1.001871  0  -0.340824  -0.177724  0  3.393024  0
N  N124  1  0.53068648  0.86195958  0.18367293  1  -0.957397  0  -0.359501  -0.160309  0  3.481876  0
N  N125  1  0.73465171  0.63443168  0.21914227  1  -0.970841  0  -0.354254  -0.161535  0  3.445435  0
N  N126  1  0.90575023  0.85454896  0.17863468  1  -0.970918  0  -0.353707  -0.160111  0  3.449858  0
N  N127  1  0.67415602  0.68335217  0.12001031  1  -1.002082  0  -0.340921  -0.177758  0  3.393165  0
O  O128  1  0.04096600  0.29685854  0.65094236  1  -1.328858  0  -0.358569  -0.603753  0  2.340825  0
O  O129  1  0.20479561  0.03880195  0.65472082  1  -1.352148  0  -0.35942  -0.630509  0  2.208579  0
O  O130  1  0.36136387  0.25637508  0.60833005  1  -1.333228  0  -0.356932  -0.606004  0  2.142614  0
O  O131  1  0.95904012  0.79685675  0.84905117  1  -1.329048  0  -0.358609  -0.603758  0  2.340711  0
O  O132  1  0.79522374  0.53879520  0.84527801  1  -1.352115  0  -0.359558  -0.630607  0  2.208379  0
O  O133  1  0.63864469  0.75635332  0.89166906  1  -1.333412  0  -0.356816  -0.605912  0  2.142812  0
O  O134  1  0.95901712  0.70313626  0.34905781  1  -1.328847  0  -0.35865  -0.603876  0  2.340794  0
O  O135  1  0.79522165  0.96119636  0.34528168  1  -1.35207  0  -0.35943  -0.630572  0  2.208688  0
O  O136  1  0.63862232  0.74364430  0.39167308  1  -1.333075  0  -0.356861  -0.605888  0  2.142664  0
O  O137  1  0.04095854  0.20314741  0.15094786  1  -1.328917  0  -0.358617  -0.603798  0  2.340717  0
O  O138  1  0.20477336  0.46120546  0.15472138  1  -1.352199  0  -0.359543  -0.630579  0  2.208485  0
O  O139  1  0.36135706  0.24364734  0.10833130  1  -1.333288  0  -0.356874  -0.606016  0  2.14264  0
