# generated using pymatgen
data_ZnH11C17N3O4
_symmetry_space_group_name_H-M   'P 1'
_cell_length_a   10.90399360
_cell_length_b   13.06092782
_cell_length_c   21.06365309
_cell_angle_alpha   89.99993373
_cell_angle_beta   96.21171554
_cell_angle_gamma   89.99999156
_symmetry_Int_Tables_number   1
_chemical_formula_structural   ZnH11C17N3O4
_chemical_formula_sum   'Zn4 H44 C68 N12 O16'
_cell_volume   2982.19469014
_cell_formula_units_Z   4
loop_
 _symmetry_equiv_pos_site_id
 _symmetry_equiv_pos_as_xyz
  1  'x, y, z'
loop_
 _atom_site_type_symbol
 _atom_site_label
 _atom_site_symmetry_multiplicity
 _atom_site_fract_x
 _atom_site_fract_y
 _atom_site_fract_z
 _atom_site_occupancy
 _atom_site_pbe_bader_charge
 _atom_site_pbe_bader_spin_density
 _atom_site_pbe_cm5_charge
 _atom_site_pbe_ddec_charge
 _atom_site_pbe_ddec_spin_density
 _atom_site_pbe_ddec_sum_bond_order
 _atom_site_pbe_magmom
Zn  Zn0  1  0.39432996  0.42528278  0.98507377  1  1.32373  0  0.685209  0.874513  0  2.335921  0
Zn  Zn1  1  0.10567086  0.92527911  0.51492605  1  1.323723  0  0.685222  0.874601  0  2.33574  0
Zn  Zn2  1  0.60566905  0.57471946  0.01492706  1  1.323598  0  0.685209  0.874569  0  2.335894  0
Zn  Zn3  1  0.89433278  0.07471471  0.48507362  1  1.323706  0  0.685199  0.874528  0  2.335944  0
H  H4  1  0.91245502  0.25354486  0.66513356  1  0.120728  0  0.112725  0.119593  0  0.985924  0
H  H5  1  0.58754590  0.75354596  0.83486705  1  0.120314  0  0.112748  0.119579  0  0.985975  0
H  H6  1  0.08754677  0.74645507  0.33486696  1  0.120385  0  0.112741  0.119591  0  0.985968  0
H  H7  1  0.41245219  0.24645475  0.16513373  1  0.120379  0  0.112744  0.119604  0  0.985958  0
H  H8  1  0.97351368  0.32891306  0.77407587  1  0.079629  0  0.112609  0.122774  0  0.982014  0
H  H9  1  0.52648444  0.82891437  0.72592452  1  0.07959  0  0.112619  0.1228  0  0.98206  0
H  H10  1  0.02648534  0.67108534  0.22592401  1  0.079612  0  0.112626  0.122804  0  0.981998  0
H  H11  1  0.47351181  0.17108634  0.27407615  1  0.079619  0  0.112601  0.12277  0  0.982028  0
H  H12  1  0.23498978  0.08423673  0.81484297  1  0.082655  0  0.11049  0.117183  0  0.986438  0
H  H13  1  0.26500745  0.58423808  0.68515974  1  0.082596  0  0.110523  0.117237  0  0.986353  0
H  H14  1  0.76500738  0.91576321  0.18515918  1  0.082577  0  0.110513  0.117222  0  0.986398  0
H  H15  1  0.73498971  0.41576339  0.31484194  1  0.082668  0  0.110518  0.117209  0  0.98645  0
H  H16  1  0.17705730  0.01334984  0.70476008  1  0.091317  0  0.106891  0.11275  0  1.00766  0
H  H17  1  0.32294180  0.51335481  0.79524278  1  0.091344  0  0.106893  0.112704  0  1.007614  0
H  H18  1  0.82294171  0.98664627  0.29524170  1  0.091343  0  0.106881  0.112708  0  1.007617  0
H  H19  1  0.67705629  0.48664667  0.20475847  1  0.091361  0  0.106887  0.112732  0  1.007653  0
H  H20  1  0.60308512  0.17991052  0.92006688  1  0.076208  0  0.104257  0.107553  0  1.008746  0
H  H21  1  0.89691305  0.67990363  0.57993315  1  0.076145  0  0.104248  0.107572  0  1.008777  0
H  H22  1  0.39691205  0.82009478  0.07993337  1  0.076175  0  0.104249  0.107557  0  1.008773  0
H  H23  1  0.10308505  0.32008942  0.42006573  1  0.076216  0  0.104259  0.107567  0  1.008795  0
H  H24  1  0.74400383  0.05475712  0.87395368  1  0.07616  0  0.103411  0.101384  0  0.989174  0
H  H25  1  0.75598977  0.55475246  0.62604760  1  0.076086  0  0.103415  0.101428  0  0.989059  0
H  H26  1  0.25599057  0.94524435  0.12604736  1  0.076131  0  0.103397  0.101382  0  0.989161  0
H  H27  1  0.24400463  0.44524442  0.37395391  1  0.076156  0  0.103419  0.101375  0  0.989157  0
H  H28  1  0.96330846  0.10004562  0.86874897  1  0.063692  0  0.101736  0.100125  0  1.01009  0
H  H29  1  0.53668696  0.60004404  0.63125238  1  0.063609  0  0.101735  0.100163  0  1.009967  0
H  H30  1  0.03668778  0.89995508  0.13125170  1  0.063628  0  0.101733  0.100074  0  1.009927  0
H  H31  1  0.46330836  0.39995667  0.36874871  1  0.063654  0  0.101743  0.100048  0  1.009988  0
H  H32  1  0.90237471  0.39245126  0.95626164  1  0.119706  0  0.115294  0.128518  0  0.991953  0
H  H33  1  0.59762985  0.89244984  0.54373860  1  0.11974  0  0.115321  0.128521  0  0.991965  0
H  H34  1  0.09762802  0.60755174  0.04373560  1  0.119718  0  0.115314  0.128525  0  0.991987  0
H  H35  1  0.40237378  0.10754934  0.45626107  1  0.119711  0  0.115289  0.128503  0  0.991964  0
H  H36  1  0.40362723  0.21424355  0.83634619  1  0.059568  0  0.103711  0.14824  0  0.985285  0
H  H37  1  0.09636997  0.71424496  0.66365357  1  0.059565  0  0.103701  0.148236  0  0.985284  0
H  H38  1  0.59636994  0.78575486  0.16365311  1  0.059566  0  0.103709  0.148231  0  0.985279  0
H  H39  1  0.90362814  0.28575575  0.33634531  1  0.059491  0  0.10369  0.148208  0  0.985304  0
H  H40  1  0.43930241  0.34302534  0.85926838  1  0.135927  0  0.110911  0.176944  0  1.010253  0
H  H41  1  0.06069660  0.84302527  0.64073139  1  0.135891  0  0.110917  0.176952  0  1.010216  0
H  H42  1  0.56069754  0.65697460  0.14073155  1  0.135899  0  0.110911  0.176939  0  1.010247  0
H  H43  1  0.93930151  0.15697467  0.35926749  1  0.135939  0  0.110908  0.176935  0  1.010205  0
H  H44  1  0.33516601  0.31583209  0.78948559  1  0.049995  0  0.103692  0.149226  0  0.982366  0
H  H45  1  0.16483301  0.81583187  0.71051420  1  0.050002  0  0.10369  0.149224  0  0.982367  0
H  H46  1  0.66483301  0.68416785  0.21051429  1  0.049993  0  0.103696  0.149224  0  0.982354  0
H  H47  1  0.83516417  0.18416807  0.28948509  1  0.049964  0  0.103695  0.14921  0  0.982312  0
C  C48  1  0.01093946  0.08673752  0.61264376  1  1.589744  0  0.211888  0.586144  0  4.193908  0
C  C49  1  0.48906700  0.58673847  0.88735710  1  1.58933  0  0.21186  0.586139  0  4.194065  0
C  C50  1  0.98907063  0.91326165  0.38735676  1  1.589325  0  0.211832  0.586101  0  4.194055  0
C  C51  1  0.51093294  0.41326300  0.11264331  1  1.589602  0  0.211884  0.586206  0  4.19394  0
C  C52  1  0.04184490  0.12951849  0.67889150  1  0.002266  0  -0.010519  -0.021827  0  3.938597  0
C  C53  1  0.45815508  0.62952340  0.82111086  1  0.002062  0  -0.010549  -0.021863  0  3.938593  0
C  C54  1  0.95815595  0.87047915  0.32110991  1  0.002316  0  -0.010546  -0.021816  0  3.938582  0
C  C55  1  0.54184301  0.37048037  0.17889040  1  0.002309  0  -0.010584  -0.021859  0  3.938658  0
C  C56  1  0.98328391  0.21778091  0.69838269  1  0.014605  0  -0.074807  -0.07196  0  3.960803  0
C  C57  1  0.51671424  0.71778360  0.80161874  1  0.014935  0  -0.074835  -0.071854  0  3.960717  0
C  C58  1  0.01671602  0.78221750  0.30161819  1  0.014885  0  -0.074831  -0.071895  0  3.960809  0
C  C59  1  0.48328200  0.28221863  0.19838241  1  0.014916  0  -0.074797  -0.071894  0  3.960745  0
C  C60  1  0.01700555  0.25938209  0.75866539  1  -0.077542  0  -0.086888  -0.169404  0  3.992043  0
C  C61  1  0.48299347  0.75938561  0.74133634  1  -0.077874  0  -0.086911  -0.169529  0  3.991994  0
C  C62  1  0.98299439  0.74061632  0.24133549  1  -0.077889  0  -0.086911  -0.169539  0  3.992053  0
C  C63  1  0.51700462  0.24061740  0.25866586  1  -0.077361  0  -0.086906  -0.1695  0  3.992069  0
C  C64  1  0.10841566  0.21117261  0.79984424  1  0.273391  0  0.091226  0.174288  0  4.046556  0
C  C65  1  0.39158061  0.71117468  0.70015784  1  0.273793  0  0.091259  0.174352  0  4.046465  0
C  C66  1  0.89158336  0.78882580  0.20015706  1  0.273778  0  0.091252  0.174363  0  4.046539  0
C  C67  1  0.60841471  0.28882756  0.29984373  1  0.273609  0  0.091229  0.174354  0  4.046526  0
C  C68  1  0.16537036  0.12163304  0.78165216  1  -0.06147  0  -0.089891  -0.175154  0  4.011249  0
C  C69  1  0.33462593  0.62163662  0.71835094  1  -0.061361  0  -0.089987  -0.175263  0  4.011197  0
C  C70  1  0.83462681  0.87836460  0.21834904  1  -0.061375  0  -0.089916  -0.175221  0  4.011244  0
C  C71  1  0.66537030  0.37836715  0.28165163  1  -0.061456  0  -0.089891  -0.175147  0  4.011245  0
C  C72  1  0.13253630  0.08175232  0.72094140  1  0.014027  0  -0.080115  -0.076981  0  3.975654  0
C  C73  1  0.36746092  0.58175807  0.77906178  1  0.014215  0  -0.080075  -0.076901  0  3.975507  0
C  C74  1  0.86746086  0.91824303  0.27906075  1  0.013994  0  -0.080118  -0.076955  0  3.975586  0
C  C75  1  0.63253624  0.41824416  0.22093942  1  0.01397  0  -0.080113  -0.077023  0  3.975671  0
C  C76  1  0.65767896  0.36853490  0.96616414  1  1.59463  0  0.214706  0.587714  0  4.181591  0
C  C77  1  0.84232287  0.86852733  0.53383264  1  1.594554  0  0.214735  0.587587  0  4.181587  0
C  C78  1  0.34231917  0.63146963  0.03383094  1  1.594578  0  0.214643  0.587501  0  4.181793  0
C  C79  1  0.15768357  0.13145882  0.46616244  1  1.594883  0  0.21463  0.587639  0  4.181879  0
C  C80  1  0.74437645  0.29298286  0.94063715  1  -0.00468  0  -0.015403  -0.024845  0  3.962146  0
C  C81  1  0.75562722  0.79297679  0.55936406  1  -0.004594  0  -0.015432  -0.024902  0  3.962161  0
C  C82  1  0.25562443  0.70702244  0.05936093  1  -0.004623  0  -0.015496  -0.025076  0  3.962471  0
C  C83  1  0.24437550  0.20701703  0.44063461  1  -0.004893  0  -0.015426  -0.024921  0  3.962357  0
C  C84  1  0.69992152  0.19793757  0.91740115  1  -0.087464  0  -0.083516  -0.093539  0  3.975553  0
C  C85  1  0.80007757  0.69793221  0.58259987  1  -0.087561  0  -0.083496  -0.093547  0  3.975671  0
C  C86  1  0.30007566  0.80206620  0.08259767  1  -0.087404  0  -0.083486  -0.093481  0  3.975709  0
C  C87  1  0.19992145  0.30206160  0.41740001  1  -0.087464  0  -0.083521  -0.093559  0  3.975766  0
C  C88  1  0.77863404  0.12890421  0.89167455  1  0.024956  0  -0.093764  -0.088332  0  4.051  0
C  C89  1  0.72136322  0.62889958  0.60832736  1  0.025059  0  -0.093809  -0.088422  0  4.050991  0
C  C90  1  0.22136130  0.87109880  0.10832464  1  0.02495  0  -0.093773  -0.088362  0  4.051057  0
C  C91  1  0.27863394  0.37109730  0.39167479  1  0.024935  0  -0.093794  -0.088303  0  4.050986  0
C  C92  1  0.90200779  0.15439703  0.88865130  1  -0.086943  0  -0.085935  -0.114117  0  3.985926  0
C  C93  1  0.59798947  0.65439624  0.61134964  1  -0.08695  0  -0.085901  -0.114084  0  3.985826  0
C  C94  1  0.09798847  0.84560368  0.11134842  1  -0.087  0  -0.085895  -0.113952  0  3.985723  0
C  C95  1  0.40200770  0.34560370  0.38865013  1  -0.086946  0  -0.085926  -0.113987  0  3.98562  0
C  C96  1  0.94750306  0.24946299  0.91198715  1  0.014396  0  -0.009913  0.013047  0  4.050216  0
C  C97  1  0.55249601  0.74946072  0.58801383  1  0.014306  0  -0.009947  0.012957  0  4.050174  0
C  C98  1  0.05249596  0.75053771  0.08801226  1  0.013968  0  -0.009926  0.013013  0  4.050218  0
C  C99  1  0.44750393  0.25053845  0.41198657  1  0.014384  0  -0.009903  0.013036  0  4.050142  0
C  C100  1  0.86828706  0.31839605  0.93825253  1  -0.017602  0  -0.069456  -0.112265  0  3.896829  0
C  C101  1  0.63171476  0.81839612  0.56174808  1  -0.017506  0  -0.069422  -0.112156  0  3.896706  0
C  C102  1  0.13171290  0.68160618  0.06174503  1  -0.017182  0  -0.069415  -0.112143  0  3.896848  0
C  C103  1  0.36828795  0.18160382  0.43825154  1  -0.01759  0  -0.069409  -0.112182  0  3.89686  0
C  C104  1  0.07692784  0.27784618  0.91030662  1  0.929266  0  0.227453  0.221594  0  4.011635  0
C  C105  1  0.42307118  0.77784615  0.58969367  1  0.92926  0  0.227457  0.221603  0  4.011599  0
C  C106  1  0.92307210  0.72215376  0.08969426  1  0.929243  0  0.227454  0.221608  0  4.011648  0
C  C107  1  0.57692968  0.22215532  0.41030679  1  0.929781  0  0.227417  0.221536  0  4.011601  0
C  C108  1  0.26221768  0.29537787  0.87854193  1  0.984394  0  0.238212  0.348713  0  3.926103  0
C  C109  1  0.23778134  0.79537628  0.62145835  1  0.984359  0  0.238209  0.348721  0  3.926041  0
C  C110  1  0.73778318  0.70462436  0.12145901  1  0.98434  0  0.238143  0.348645  0  3.926219  0
C  C111  1  0.76221768  0.20462442  0.37854106  1  0.984377  0  0.238158  0.348638  0  3.926107  0
C  C112  1  0.36607299  0.29205042  0.83867031  1  -0.041212  0  -0.226663  -0.470626  0  3.952276  0
C  C113  1  0.13392603  0.79205030  0.66132950  1  -0.041207  0  -0.226669  -0.470641  0  3.95225  0
C  C114  1  0.63392604  0.70794952  0.16132957  1  -0.041173  0  -0.226666  -0.470608  0  3.952233  0
C  C115  1  0.86607299  0.20794964  0.33866943  1  -0.04115  0  -0.226653  -0.470558  0  3.952127  0
N  N116  1  0.26053015  0.33846741  0.93553522  1  -0.77507  0  -0.229461  -0.21473  0  3.44991  0
N  N117  1  0.23946793  0.83846363  0.56446450  1  -0.774756  0  -0.229474  -0.214744  0  3.449857  0
N  N118  1  0.73946979  0.66153483  0.06446567  1  -0.774703  0  -0.229447  -0.214703  0  3.4499  0
N  N119  1  0.76053294  0.16153554  0.43553453  1  -0.774736  0  -0.229469  -0.214764  0  3.449815  0
N  N120  1  0.14562632  0.32761442  0.95579884  1  -0.642395  0  -0.220647  -0.225206  0  3.120143  0
N  N121  1  0.35437269  0.82761143  0.54420142  1  -0.642636  0  -0.220624  -0.225165  0  3.120105  0
N  N122  1  0.85437454  0.67238552  0.04420257  1  -0.642655  0  -0.220643  -0.225231  0  3.120128  0
N  N123  1  0.64562818  0.17238775  0.45579809  1  -0.642647  0  -0.220581  -0.225104  0  3.120049  0
N  N124  1  0.14706873  0.25566326  0.86076413  1  -1.247421  0  -0.216841  -0.132625  0  3.702189  0
N  N125  1  0.35293029  0.75566392  0.63923666  1  -1.24746  0  -0.216847  -0.132668  0  3.702049  0
N  N126  1  0.85293213  0.74433591  0.13923681  1  -1.247511  0  -0.216796  -0.132605  0  3.702343  0
N  N127  1  0.64707056  0.24433908  0.36076475  1  -1.248334  0  -0.21683  -0.132628  0  3.702101  0
O  O128  1  0.07660328  0.01187225  0.59784919  1  -1.181381  0  -0.317407  -0.576418  0  2.362655  0
O  O129  1  0.42340228  0.51187931  0.90215262  1  -1.181175  0  -0.317244  -0.576255  0  2.362955  0
O  O130  1  0.92340218  0.98812233  0.40215296  1  -1.181179  0  -0.317298  -0.576343  0  2.36285  0
O  O131  1  0.57660042  0.48812982  0.09784937  1  -1.181282  0  -0.31738  -0.576412  0  2.362614  0
O  O132  1  0.92345236  0.12908212  0.57732133  1  -1.163212  0  -0.315023  -0.531342  0  2.276874  0
O  O133  1  0.57656522  0.62908228  0.92267700  1  -1.162938  0  -0.31513  -0.531487  0  2.276743  0
O  O134  1  0.07656606  0.87092165  0.42267587  1  -1.162937  0  -0.315063  -0.531406  0  2.27687  0
O  O135  1  0.42344303  0.37092455  0.07732293  1  -1.163091  0  -0.315001  -0.531373  0  2.276999  0
O  O136  1  0.54584079  0.34018011  0.96555911  1  -1.179548  0  -0.317948  -0.561311  0  2.361123  0
O  O137  1  0.95416384  0.84016487  0.53443358  1  -1.179564  0  -0.31803  -0.561297  0  2.360872  0
O  O138  1  0.45416104  0.65983285  0.03443429  1  -1.179477  0  -0.317975  -0.561218  0  2.36091  0
O  O139  1  0.04583803  0.15981593  0.46555222  1  -1.179488  0  -0.317843  -0.561249  0  2.360942  0
O  O140  1  0.70303728  0.45417734  0.98520791  1  -1.155034  0  -0.310212  -0.529657  0  2.325159  0
O  O141  1  0.79697464  0.95416905  0.51479319  1  -1.154871  0  -0.310188  -0.529569  0  2.325394  0
O  O142  1  0.29696912  0.54582873  0.01479239  1  -1.155011  0  -0.310122  -0.529498  0  2.32546  0
O  O143  1  0.20303914  0.04582400  0.48520707  1  -1.155116  0  -0.310216  -0.529636  0  2.325451  0
