# generated using pymatgen
data_ZnH22C16Br4(NO4)2
_symmetry_space_group_name_H-M   'P 1'
_cell_length_a   8.21066422
_cell_length_b   8.94604853
_cell_length_c   9.03151926
_cell_angle_alpha   78.00837699
_cell_angle_beta   69.70096823
_cell_angle_gamma   77.84953121
_symmetry_Int_Tables_number   1
_chemical_formula_structural   ZnH22C16Br4(NO4)2
_chemical_formula_sum   'Zn1 H22 C16 Br4 N2 O8'
_cell_volume   601.64934320
_cell_formula_units_Z   1
loop_
 _symmetry_equiv_pos_site_id
 _symmetry_equiv_pos_as_xyz
  1  'x, y, z'
loop_
 _atom_site_type_symbol
 _atom_site_label
 _atom_site_symmetry_multiplicity
 _atom_site_fract_x
 _atom_site_fract_y
 _atom_site_fract_z
 _atom_site_occupancy
 _atom_site_hle17_bader_spin_density
 _atom_site_hle17_ddec_charge
 _atom_site_hle17_ddec_spin_density
 _atom_site_hle17_ddec_sum_bond_order
 _atom_site_hle17_magmom
 _atom_site_hse06_10hf_bader_spin_density
 _atom_site_hse06_10hf_ddec_charge
 _atom_site_hse06_10hf_ddec_spin_density
 _atom_site_hse06_10hf_ddec_sum_bond_order
 _atom_site_hse06_10hf_magmom
 _atom_site_hse06_bader_spin_density
 _atom_site_hse06_ddec_charge
 _atom_site_hse06_ddec_spin_density
 _atom_site_hse06_ddec_sum_bond_order
 _atom_site_hse06_magmom
 _atom_site_pbe_bader_spin_density
 _atom_site_pbe_cm5_charge
 _atom_site_pbe_ddec_charge
 _atom_site_pbe_ddec_spin_density
 _atom_site_pbe_ddec_sum_bond_order
 _atom_site_pbe_magmom
Zn  Zn0  1  0.50000182  0.49999970  0.49999962  1  0  1.121942  0  1.782948  0  0  0.972153  0  2.213944  0  0  1.018797  0  2.158186  0  0  0.676745  0.939346  0  2.252214  0
H  H1  1  0.24690053  0.52248399  0.39933916  1  0  0.361052  0  0.9273  0  0  0.335644  0  1.000462  0  0  0.34661  0  0.988862  0  0  0.288777  0.327952  0  1.00851  0
H  H2  1  0.75310017  0.47751779  0.60066605  1  0  0.360991  0  0.927335  0  0  0.335581  0  1.000502  0  0  0.346547  0  0.988905  0  0  0.288751  0.327876  0  1.008559  0
H  H3  1  0.44006042  0.82612790  0.57957738  1  0  0.040094  0  0.942303  0  0  0.044843  0  1.023653  0  0  0.047307  0  1.017222  0  0  0.115831  0.042801  0  1.028385  0
H  H4  1  0.55993974  0.17387605  0.42041866  1  0  0.040098  0  0.942332  0  0  0.044882  0  1.023645  0  0  0.047323  0  1.017234  0  0  0.115856  0.042834  0  1.028385  0
H  H5  1  0.11300937  0.66174872  0.91989830  1  0  0.114402  0  0.948201  0  0  0.13087  0  1.012909  0  0  0.133058  0  1.011128  0  0  0.107258  0.129186  0  1.0143  0
H  H6  1  0.88699144  0.33825178  0.08009941  1  0  0.114472  0  0.948234  0  0  0.130954  0  1.012921  0  0  0.133141  0  1.011138  0  0  0.107276  0.129268  0  1.01431  0
H  H7  1  0.97422444  0.84501035  0.93265110  1  0  0.082412  0  0.968023  0  0  0.098733  0  1.041801  0  0  0.098694  0  1.042541  0  0  0.091312  0.098702  0  1.0413  0
H  H8  1  0.02577551  0.15498782  0.06734741  1  0  0.082437  0  0.967997  0  0  0.098756  0  1.041791  0  0  0.098715  0  1.04253  0  0  0.091322  0.098725  0  1.04129  0
H  H9  1  0.13395975  0.79071081  0.03699221  1  0  0.106741  0  0.947297  0  0  0.125122  0  1.012533  0  0  0.12613  0  1.01208  0  0  0.099224  0.124273  0  1.012971  0
H  H10  1  0.86603977  0.20928967  0.96300592  1  0  0.10675  0  0.947268  0  0  0.125113  0  1.012543  0  0  0.126119  0  1.012089  0  0  0.099209  0.124265  0  1.012983  0
H  H11  1  0.34111300  0.05085792  0.65848419  1  0  0.10391  0  0.948558  0  0  0.119974  0  1.021145  0  0  0.121015  0  1.020101  0  0  0.102871  0.119052  0  1.022049  0
H  H12  1  0.65888499  0.94914368  0.34151308  1  0  0.10391  0  0.948533  0  0  0.119967  0  1.021144  0  0  0.121014  0  1.020091  0  0  0.102869  0.119046  0  1.022049  0
H  H13  1  0.25042973  0.05004371  0.86797824  1  0  0.095645  0  0.961237  0  0  0.113695  0  1.028194  0  0  0.113014  0  1.030837  0  0  0.097269  0.114048  0  1.026508  0
H  H14  1  0.74956826  0.94995790  0.13201903  1  0  0.095663  0  0.961196  0  0  0.113711  0  1.028173  0  0  0.113024  0  1.030824  0  0  0.097271  0.114065  0  1.02649  0
H  H15  1  0.10814077  0.07832815  0.74988723  1  0  0.09324  0  0.943703  0  0  0.111533  0  1.011948  0  0  0.112358  0  1.011746  0  0  0.09733  0.110822  0  1.012199  0
H  H16  1  0.89185723  0.92167346  0.25011004  1  0  0.093234  0  0.943772  0  0  0.111527  0  1.01202  0  0  0.112352  0  1.011818  0  0  0.097312  0.110816  0  1.012269  0
H  H17  1  0.16542590  0.38863900  0.73048884  1  0  0.088096  0  0.937011  0  0  0.10807  0  0.997161  0  0  0.108684  0  0.997048  0  0  0.096421  0.107556  0  0.99733  0
H  H18  1  0.83457891  0.61136169  0.26951638  1  0  0.088138  0  0.936993  0  0  0.108107  0  0.997134  0  0  0.108725  0  0.997029  0  0  0.096442  0.107588  0  0.997297  0
H  H19  1  0.03266569  0.35991115  0.62068011  1  0  0.072981  0  0.965398  0  0  0.090353  0  1.031135  0  0  0.091122  0  1.030773  0  0  0.085935  0.089696  0  1.031526  0
H  H20  1  0.96733913  0.64008955  0.37932621  1  0  0.073066  0  0.965325  0  0  0.090423  0  1.031077  0  0  0.091194  0  1.030714  0  0  0.085946  0.089754  0  1.031467  0
H  H21  1  0.04425118  0.55132506  0.64414379  1  0  0.067866  0  0.94898  0  0  0.082285  0  1.020357  0  0  0.083392  0  1.019345  0  0  0.086203  0.081407  0  1.021186  0
H  H22  1  0.95575258  0.44867450  0.35586425  1  0  0.067837  0  0.948975  0  0  0.082273  0  1.020339  0  0  0.083381  0  1.019329  0  0  0.086208  0.081393  0  1.021168  0
C  C23  1  0.39514809  0.73585230  0.24472089  1  0  0.656067  0  3.965385  0  0  0.598668  0  4.278346  0  0  0.632846  0  4.269704  0  0  0.197074  0.575557  0  4.283379  0
C  C24  1  0.60485776  0.26414950  0.75528042  1  0  0.656045  0  3.965484  0  0  0.598618  0  4.278494  0  0  0.632795  0  4.26985  0  0  0.197077  0.575504  0  4.283538  0
C  C25  1  0.44402508  0.87265547  0.11528335  1  0  -0.104106  0  3.739997  0  0  -0.0998  0  3.99364  0  0  -0.101725  0  4.009306  0  0  -0.023559  -0.098903  0  3.983489  0
C  C26  1  0.55597468  0.12734390  0.88471717  1  0  -0.104048  0  3.740031  0  0  -0.099756  0  3.993687  0  0  -0.101681  0  4.009354  0  0  -0.023587  -0.098887  0  3.983577  0
C  C27  1  0.57095663  0.84877658  0.96764141  1  0  0.015814  0  3.714944  0  0  0.014977  0  3.994633  0  0  0.018348  0  4.013365  0  0  -0.027085  0.012502  0  3.982331  0
C  C28  1  0.42904246  0.15121928  0.03235901  1  0  0.015762  0  3.714949  0  0  0.014944  0  3.994625  0  0  0.01832  0  4.013347  0  0  -0.027116  0.012476  0  3.982331  0
C  C29  1  0.62646190  0.97603331  0.85384229  1  0  0.021143  0  3.705394  0  0  0.021338  0  3.983679  0  0  0.024714  0  4.002746  0  0  -0.02608  0.018855  0  3.971173  0
C  C30  1  0.37353305  0.02396361  0.14615592  1  0  0.02119  0  3.705449  0  0  0.02137  0  3.983728  0  0  0.024745  0  4.002796  0  0  -0.0261  0.018879  0  3.971214  0
C  C31  1  0.34781066  0.76312891  0.68109783  1  0  0.396279  0  3.813805  0  0  0.314876  0  4.109398  0  0  0.344033  0  4.108971  0  0  0.170709  0.295443  0  4.109223  0
C  C32  1  0.65218673  0.23687622  0.31890218  1  0  0.396309  0  3.813831  0  0  0.31485  0  4.109441  0  0  0.344031  0  4.109013  0  0  0.170657  0.295425  0  4.109268  0
C  C33  1  0.10610078  0.78335276  0.92824337  1  0  -0.170204  0  3.637766  0  0  -0.267433  0  3.878192  0  0  -0.263783  0  3.887392  0  0  -0.139976  -0.269611  0  3.87193  0
C  C34  1  0.89389981  0.21664888  0.07175305  1  0  -0.170301  0  3.637847  0  0  -0.267501  0  3.878184  0  0  -0.263862  0  3.887417  0  0  -0.139981  -0.269678  0  3.871923  0
C  C35  1  0.23358433  0.01635090  0.76466606  1  0  -0.171885  0  3.669173  0  0  -0.27518  0  3.921231  0  0  -0.272183  0  3.934059  0  0  -0.13678  -0.276867  0  3.912475  0
C  C36  1  0.76641605  0.98365189  0.23533017  1  0  -0.171928  0  3.669332  0  0  -0.275247  0  3.921384  0  0  -0.272249  0  3.934223  0  0  -0.136812  -0.276942  0  3.912638  0
C  C37  1  0.11872637  0.43513614  0.62766232  1  0  -0.017959  0  3.637247  0  0  -0.109996  0  3.89965  0  0  -0.103703  0  3.904219  0  0  -0.159381  -0.114175  0  3.896519  0
C  C38  1  0.88127587  0.56486456  0.37234595  1  0  -0.018085  0  3.637143  0  0  -0.110121  0  3.899551  0  0  -0.10384  0  3.904129  0  0  -0.159448  -0.114276  0  3.896397  0
Br  Br39  1  0.66323792  0.64360442  0.92606438  1  0  0.026051  0  1.367101  0  0  0.031438  0  1.638685  0  0  0.030597  0  1.629693  0  0  0.087044  0.031856  0  1.645089  0
Br  Br40  1  0.33676212  0.35639389  0.07394183  1  0  0.026027  0  1.366973  0  0  0.03141  0  1.638548  0  0  0.03057  0  1.629553  0  0  0.087025  0.031833  0  1.64495  0
Br  Br41  1  0.79766313  0.94589971  0.65211987  1  0  -0.023762  0  1.334124  0  0  -0.013865  0  1.604923  0  0  -0.015352  0  1.59497  0  0  0.064285  -0.013049  0  1.612137  0
Br  Br42  1  0.20231458  0.05409101  0.34787095  1  0  -0.023782  0  1.33413  0  0  -0.013898  0  1.604942  0  0  -0.015384  0  1.59499  0  0  0.064275  -0.013084  0  1.612157  0
N  N43  1  0.23532035  0.85062508  0.78769163  1  0  -0.094193  0  3.523666  0  0  0.011373  0  3.755575  0  0  -0.00987  0  3.782296  0  0  -0.285454  0.02564  0  3.736951  0
N  N44  1  0.76468216  0.14937308  0.21230384  1  0  -0.094249  0  3.523673  0  0  0.011351  0  3.755599  0  0  -0.009894  0  3.782309  0  0  -0.285429  0.025619  0  3.736975  0
O  O45  1  0.49127807  0.70163379  0.33461576  1  0  -0.628471  0  2.066328  0  0  -0.562373  0  2.326662  0  0  -0.592113  0  2.316783  0  0  -0.307934  -0.541279  0  2.332305  0
O  O46  1  0.50872403  0.29836670  0.66538043  1  0  -0.6285  0  2.066332  0  0  -0.562365  0  2.326623  0  0  -0.592128  0  2.316792  0  0  -0.307926  -0.541265  0  2.332266  0
O  O47  1  0.26934704  0.67215800  0.25129943  1  0  -0.607787  0  1.979355  0  0  -0.559665  0  2.207355  0  0  -0.584786  0  2.199093  0  0  -0.310972  -0.541879  0  2.212269  0
O  O48  1  0.73065169  0.32784026  0.74870610  1  0  -0.607756  0  1.9795  0  0  -0.559637  0  2.207527  0  0  -0.584746  0  2.199259  0  0  -0.310972  -0.541842  0  2.212442  0
O  O49  1  0.27016528  0.43946910  0.48685563  1  0  -0.548408  0  2.235857  0  0  -0.475073  0  2.490668  0  0  -0.496004  0  2.47829  0  0  -0.410681  -0.460164  0  2.49854  0
O  O50  1  0.72983649  0.56053385  0.51314898  1  0  -0.548277  0  2.235811  0  0  -0.47495  0  2.490634  0  0  -0.495881  0  2.478259  0  0  -0.410607  -0.460031  0  2.498528  0
O  O51  1  0.34968932  0.62074878  0.69301239  1  0  -0.535994  0  2.154202  0  0  -0.476482  0  2.426375  0  0  -0.501791  0  2.418239  0  0  -0.29796  -0.459082  0  2.431418  0
O  O52  1  0.65031258  0.37925288  0.30698471  1  0  -0.53597  0  2.154369  0  0  -0.476438  0  2.426545  0  0  -0.501743  0  2.418395  0  0  -0.297946  -0.459045  0  2.431588  0
