# generated using pymatgen
data_AlH8(C7O3)2
_symmetry_space_group_name_H-M   'P 1'
_cell_length_a   6.70863141
_cell_length_b   19.20741156
_cell_length_c   19.82011843
_cell_angle_alpha   99.10572088
_cell_angle_beta   90.03714050
_cell_angle_gamma   89.94358145
_symmetry_Int_Tables_number   1
_chemical_formula_structural   AlH8(C7O3)2
_chemical_formula_sum   'Al4 H32 C56 O24'
_cell_volume   2521.74403200
_cell_formula_units_Z   4
loop_
 _symmetry_equiv_pos_site_id
 _symmetry_equiv_pos_as_xyz
  1  'x, y, z'
loop_
 _atom_site_type_symbol
 _atom_site_label
 _atom_site_symmetry_multiplicity
 _atom_site_fract_x
 _atom_site_fract_y
 _atom_site_fract_z
 _atom_site_occupancy
 _atom_site_pbe_bader_charge
 _atom_site_pbe_bader_spin_density
 _atom_site_pbe_cm5_charge
 _atom_site_pbe_ddec_charge
 _atom_site_pbe_ddec_spin_density
 _atom_site_pbe_ddec_sum_bond_order
 _atom_site_pbe_magmom
Al  Al0  1  0.17212362  0.74928154  0.75133661  1  2.502809  0  0.401633  1.647305  0  2.569258  0
Al  Al1  1  0.82848039  0.25140421  0.24960960  1  2.503013  0  0.40134  1.64754  0  2.568771  0
Al  Al2  1  0.67212370  0.75077565  0.74854601  1  2.502977  0  0.401904  1.64766  0  2.568334  0
Al  Al3  1  0.32854761  0.24846304  0.25045117  1  2.50321  0  0.401698  1.648525  0  2.567715  0
H  H4  1  0.25133956  0.91087496  0.65067723  1  0.101186  0  0.112911  0.120085  0  0.991062  0
H  H5  1  0.74983998  0.14167673  0.39715119  1  0.097038  0  0.111664  0.11748  0  0.993336  0
H  H6  1  0.75260873  0.58917638  0.84988593  1  0.107802  0  0.112569  0.11958  0  0.991312  0
H  H7  1  0.24898224  0.35824181  0.10237957  1  0.092751  0  0.111289  0.116989  0  0.993579  0
H  H8  1  0.68317495  0.95059117  0.50048616  1  0.059575  0  0.09929  0.095586  0  1.019527  0
H  H9  1  0.32289624  0.99712056  0.45298164  1  0.062081  0  0.099409  0.09501  0  1.020516  0
H  H10  1  0.18256809  0.54950669  0.99897806  1  0.057867  0  0.099051  0.09529  0  1.019935  0
H  H11  1  0.82188520  0.50302710  0.04770178  1  0.059961  0  0.099574  0.095499  0  1.019196  0
H  H12  1  0.62116683  0.86850797  0.94811952  1  0.078431  0  0.107786  0.106405  0  1.01938  0
H  H13  1  0.37485064  0.13070506  0.05217733  1  0.059842  0  0.108325  0.106355  0  1.020697  0
H  H14  1  0.12073472  0.63152245  0.55172436  1  0.088064  0  0.107867  0.106398  0  1.019396  0
H  H15  1  0.87538114  0.36922166  0.44793905  1  0.058442  0  0.10817  0.106054  0  1.021577  0
H  H16  1  0.38061394  0.02950652  0.95683786  1  0.074335  0  0.107473  0.113423  0  1.007015  0
H  H17  1  0.61468571  0.97002327  0.04310637  1  0.094962  0  0.107459  0.113831  0  1.007326  0
H  H18  1  0.88093335  0.47045363  0.54322694  1  0.095774  0  0.107613  0.113884  0  1.006911  0
H  H19  1  0.11447986  0.52993126  0.45679934  1  0.093168  0  0.10739  0.113848  0  1.007298  0
H  H20  1  0.29115638  0.99202897  0.56576740  1  0.035852  0  0.101411  0.099468  0  1.009494  0
H  H21  1  0.71161757  0.06402444  0.48529470  1  0.054317  0  0.101231  0.098778  0  1.012636  0
H  H22  1  0.79147123  0.50801363  0.93486339  1  0.031265  0  0.101261  0.099335  0  1.010518  0
H  H23  1  0.21128290  0.43600350  0.01425981  1  0.051095  0  0.101115  0.098687  0  1.0127  0
H  H24  1  0.64147926  0.87345534  0.58926183  1  0.076186  0  0.108924  0.112524  0  0.99507  0
H  H25  1  0.36314584  0.07928529  0.36874530  1  0.101852  0  0.109898  0.113906  0  0.992773  0
H  H26  1  0.14182664  0.62660644  0.91010704  1  0.079773  0  0.108708  0.112429  0  0.994775  0
H  H27  1  0.86158181  0.42082690  0.13196145  1  0.107353  0  0.11006  0.114249  0  0.991805  0
H  H28  1  0.35801099  0.86734732  0.90149821  1  0.066938  0  0.108274  0.03928  0  0.990121  0
H  H29  1  0.63941859  0.13260866  0.10039806  1  0.091268  0  0.108623  0.041481  0  0.989591  0
H  H30  1  0.85765531  0.63261932  0.59863972  1  0.070808  0  0.10821  0.039473  0  0.990568  0
H  H31  1  0.14023587  0.36712863  0.39952401  1  0.093117  0  0.108664  0.041511  0  0.988982  0
H  H32  1  0.42055279  0.84392383  0.77087166  1  0.606907  0  0.340219  0.424237  0  0.879773  0
H  H33  1  0.58253205  0.15589273  0.23214814  1  0.646087  0  0.342511  0.427381  0  0.872434  0
H  H34  1  0.92097369  0.65611412  0.72929046  1  0.607119  0  0.34073  0.424804  0  0.878751  0
H  H35  1  0.08198864  0.34394729  0.26793321  1  0.649676  0  0.343028  0.428142  0  0.872172  0
C  C36  1  0.41632834  0.66823749  0.64317397  1  1.56816  0  0.272568  0.640688  0  4.09421  0
C  C37  1  0.58216382  0.33300056  0.35599972  1  1.57378  0  0.271489  0.638901  0  4.094175  0
C  C38  1  0.91676099  0.83180371  0.85674151  1  1.567277  0  0.272316  0.641995  0  4.093388  0
C  C39  1  0.08142815  0.16687703  0.14407114  1  1.573686  0  0.271858  0.639811  0  4.094589  0
C  C40  1  0.42782510  0.66129856  0.82353744  1  1.57152  0  0.267192  0.642252  0  4.097066  0
C  C41  1  0.57305998  0.33684106  0.17441377  1  1.530725  0  0.267412  0.64388  0  4.094621  0
C  C42  1  0.92657858  0.83874166  0.67638336  1  1.566224  0  0.267054  0.642356  0  4.096314  0
C  C43  1  0.07445418  0.16303140  0.32564451  1  1.5379  0  0.268023  0.644683  0  4.096914  0
C  C44  1  0.14969844  0.96490297  0.56942065  1  -0.002093  0  -0.087817  -0.13201  0  3.981827  0
C  C45  1  0.85354099  0.06578276  0.45878733  1  -0.076595  0  -0.089223  -0.13257  0  3.984892  0
C  C46  1  0.64998737  0.53514629  0.93092365  1  -0.005035  0  -0.088201  -0.133229  0  3.983017  0
C  C47  1  0.35298244  0.43422167  0.04097909  1  -0.080582  0  -0.088541  -0.131332  0  3.982597  0
C  C48  1  0.12767038  0.92030572  0.61762462  1  -0.017614  0  -0.077707  -0.078933  0  3.971514  0
C  C49  1  0.87468981  0.11004381  0.41029066  1  -0.002322  0  -0.07962  -0.082446  0  3.976522  0
C  C50  1  0.62846404  0.57973673  0.88267828  1  0.002055  0  -0.076797  -0.077575  0  3.970533  0
C  C51  1  0.37383184  0.38991363  0.08948086  1  0.031761  0  -0.079756  -0.082263  0  3.975574  0
C  C52  1  0.94399147  0.88743509  0.62526924  1  -0.046391  0  -0.015369  -0.04993  0  3.982153  0
C  C53  1  0.05871021  0.11541163  0.37780046  1  -0.005127  0  -0.01586  -0.049315  0  3.979548  0
C  C54  1  0.44480674  0.61260466  0.87468703  1  -0.069804  0  -0.015874  -0.04972  0  3.979743  0
C  C55  1  0.55751585  0.38451027  0.12228628  1  -0.023178  0  -0.01567  -0.050757  0  3.981067  0
C  C56  1  0.78314664  0.89967728  0.58353492  1  -0.020261  0  -0.078829  -0.08179  0  3.983456  0
C  C57  1  0.22106384  0.07548723  0.39457401  1  -0.043782  0  -0.079657  -0.082667  0  3.978474  0
C  C58  1  0.28347669  0.60036997  0.91610357  1  -0.027781  0  -0.078511  -0.08208  0  3.981997  0
C  C59  1  0.71977559  0.42455308  0.10585929  1  -0.066974  0  -0.079805  -0.082329  0  3.975637  0
C  C60  1  0.80694447  0.94343081  0.53445969  1  -0.046286  0  -0.091453  -0.137552  0  3.982909  0
C  C61  1  0.19807496  0.03013072  0.44226799  1  -0.019996  0  -0.08805  -0.132629  0  3.979908  0
C  C62  1  0.30675707  0.55662599  0.96523480  1  -0.035691  0  -0.090778  -0.136418  0  3.982588  0
C  C63  1  0.69711276  0.46995121  0.05815885  1  -0.028077  0  -0.08796  -0.132606  0  3.976143  0
C  C64  1  0.99012699  0.97711044  0.52662465  1  -0.044936  0  -0.000793  0.077799  0  3.992234  0
C  C65  1  0.01436721  0.02452008  0.47541763  1  -0.006914  0  -0.00088  0.076733  0  3.990731  0
C  C66  1  0.48992686  0.52295014  0.97341481  1  -0.042792  0  -0.000825  0.078034  0  3.992245  0
C  C67  1  0.51380490  0.47552600  0.02464810  1  0.015834  0  -0.001366  0.075544  0  3.989949  0
C  C68  1  0.91857315  0.88958965  0.91632359  1  -0.015998  0  -0.00619  -0.069843  0  3.970155  0
C  C69  1  0.07756082  0.10954464  0.08408030  1  0.007001  0  -0.007013  -0.070107  0  3.970878  0
C  C70  1  0.41836944  0.61044157  0.58358855  1  -0.015028  0  -0.006295  -0.069026  0  3.971025  0
C  C71  1  0.57800407  0.39037291  0.41594788  1  0.007174  0  -0.007209  -0.06996  0  3.968389  0
C  C72  1  0.25096451  0.03898169  0.99010636  1  -0.050578  0  -0.08323  -0.125298  0  3.98017  0
C  C73  1  0.74443818  0.96047873  0.00991793  1  -0.039133  0  -0.083185  -0.12638  0  3.977847  0
C  C74  1  0.75130032  0.46098207  0.50992545  1  -0.070119  0  -0.083452  -0.125817  0  3.979285  0
C  C75  1  0.24427659  0.53951688  0.49001045  1  -0.038286  0  -0.082938  -0.125663  0  3.977322  0
C  C76  1  0.24782649  0.09536101  0.04219862  1  0.027319  0  -0.078856  -0.081049  0  4.00431  0
C  C77  1  0.74798656  0.90391640  0.95799261  1  0.016789  0  -0.078764  -0.080363  0  4.000987  0
C  C78  1  0.74825796  0.40458219  0.45785876  1  0.025802  0  -0.078784  -0.08095  0  4.004735  0
C  C79  1  0.24777161  0.59611561  0.54189561  1  0.008535  0  -0.078945  -0.081103  0  4.002571  0
C  C80  1  0.90875771  0.06746364  0.07297970  1  -0.054428  0  0.002538  -0.021862  0  3.897927  0
C  C81  1  0.08702848  0.93189427  0.92730098  1  -0.056826  0  0.001772  -0.025562  0  3.900542  0
C  C82  1  0.40896306  0.43250065  0.42699760  1  -0.051426  0  0.00271  -0.02173  0  3.895869  0
C  C83  1  0.58695473  0.56812226  0.57265969  1  -0.057208  0  0.00203  -0.025045  0  3.899792  0
C  C84  1  0.91027579  0.00687122  0.02115497  1  0.01237  0  0.007527  0.056685  0  3.950758  0
C  C85  1  0.08516875  0.99256868  0.97895540  1  0.011882  0  0.007043  0.056424  0  3.954094  0
C  C86  1  0.41033974  0.49310193  0.47881192  1  0.013748  0  0.007316  0.05604  0  3.950899  0
C  C87  1  0.58529071  0.50741676  0.52102616  1  0.010675  0  0.007368  0.056765  0  3.95273  0
C  C88  1  0.27203108  0.91159332  0.88576617  1  1.001843  0  0.112598  0.304934  0  3.964886  0
C  C89  1  0.72405553  0.08742003  0.11480155  1  0.970598  0  0.110428  0.299594  0  3.964019  0
C  C90  1  0.77190412  0.58835044  0.61426714  1  0.996359  0  0.111961  0.304237  0  3.966989  0
C  C91  1  0.22415628  0.41247488  0.38521118  1  0.968971  0  0.110332  0.300152  0  3.963939  0
O  O92  1  0.59219499  0.68029268  0.80005185  1  -1.257069  0  -0.235883  -0.598056  0  2.386148  0
O  O93  1  0.40784833  0.31605070  0.19565446  1  -1.259933  0  -0.23588  -0.596945  0  2.388844  0
O  O94  1  0.09076617  0.82010186  0.70043624  1  -1.259685  0  -0.235805  -0.598348  0  2.387776  0
O  O95  1  0.90934807  0.18323172  0.30362368  1  -1.265823  0  -0.236094  -0.597788  0  2.389128  0
O  O96  1  0.24848598  0.68962341  0.66747986  1  -1.253223  0  -0.223098  -0.566702  0  2.340267  0
O  O97  1  0.75122929  0.31175902  0.33271216  1  -1.251967  0  -0.222661  -0.566654  0  2.345403  0
O  O98  1  0.74896452  0.81085822  0.83207896  1  -1.250591  0  -0.222916  -0.567293  0  2.340033  0
O  O99  1  0.25045834  0.18755351  0.16782425  1  -1.252424  0  -0.222731  -0.567399  0  2.347982  0
O  O100  1  0.25478823  0.68060829  0.80679650  1  -1.261094  0  -0.237976  -0.594065  0  2.312775  0
O  O101  1  0.74555775  0.32033197  0.19437428  1  -1.254593  0  -0.238392  -0.596567  0  2.307977  0
O  O102  1  0.75349703  0.81912155  0.69257842  1  -1.251508  0  -0.237936  -0.593625  0  2.310981  0
O  O103  1  0.24704318  0.18002238  0.30635469  1  -1.25588  0  -0.238717  -0.597255  0  2.310736  0
O  O104  1  0.08714097  0.80997250  0.83374371  1  -1.236221  0  -0.214977  -0.571063  0  2.389039  0
O  O105  1  0.91218674  0.18867271  0.16822664  1  -1.234297  0  -0.21578  -0.572536  0  2.384841  0
O  O106  1  0.58668808  0.68967346  0.66651039  1  -1.233772  0  -0.214696  -0.570177  0  2.390412  0
O  O107  1  0.41302331  0.31173342  0.33135330  1  -1.237683  0  -0.215378  -0.572758  0  2.387926  0
O  O108  1  0.42183096  0.79266830  0.75955803  1  -1.41224  0  -0.452323  -1.002114  0  2.198858  0
O  O109  1  0.57974601  0.20721965  0.24125361  1  -1.450139  0  -0.451558  -1.001789  0  2.196265  0
O  O110  1  0.92202057  0.70738448  0.74032220  1  -1.411897  0  -0.452543  -1.00245  0  2.198629  0
O  O111  1  0.07950536  0.29262363  0.25884009  1  -1.453088  0  -0.452144  -1.002634  0  2.196724  0
O  O112  1  0.33315170  0.94259881  0.84036999  1  -1.095663  0  -0.264168  -0.367207  0  2.104547  0
O  O113  1  0.66195188  0.05521186  0.15915387  1  -1.092255  0  -0.264091  -0.365018  0  2.096218  0
O  O114  1  0.83347930  0.55717968  0.65952149  1  -1.095108  0  -0.264372  -0.367728  0  2.104706  0
O  O115  1  0.16106300  0.44481900  0.34106097  1  -1.09347  0  -0.26449  -0.365855  0  2.096218  0
