# generated using pymatgen
data_CuH6C12(NO2)2
_symmetry_space_group_name_H-M   'P 1'
_cell_length_a   10.64793196
_cell_length_b   12.45147695
_cell_length_c   14.29109933
_cell_angle_alpha   89.99951996
_cell_angle_beta   105.93477102
_cell_angle_gamma   90.00103985
_symmetry_Int_Tables_number   1
_chemical_formula_structural   CuH6C12(NO2)2
_chemical_formula_sum   'Cu4 H24 C48 N8 O16'
_cell_volume   1821.94340022
_cell_formula_units_Z   4
loop_
 _symmetry_equiv_pos_site_id
 _symmetry_equiv_pos_as_xyz
  1  'x, y, z'
loop_
 _atom_site_type_symbol
 _atom_site_label
 _atom_site_symmetry_multiplicity
 _atom_site_fract_x
 _atom_site_fract_y
 _atom_site_fract_z
 _atom_site_occupancy
 _atom_site_pbe_bader_charge
 _atom_site_pbe_bader_spin_density
 _atom_site_pbe_cm5_charge
 _atom_site_pbe_ddec_charge
 _atom_site_pbe_ddec_spin_density
 _atom_site_pbe_ddec_sum_bond_order
 _atom_site_pbe_magmom
Cu  Cu0  1  0.09648378  0.06629318  0.02199314  1  1.078582  0.581764  0.686328  0.772194  0.736486  2.398304  0.583
Cu  Cu1  1  0.90351715  0.56629095  0.47800985  1  1.078682  0.581753  0.686282  0.772307  0.736471  2.39823  0.583
Cu  Cu2  1  0.90352809  0.93370761  0.97800324  1  1.077419  0.581726  0.686349  0.772245  0.736494  2.398046  0.583
Cu  Cu3  1  0.09647390  0.43371064  0.52199531  1  1.077525  0.581746  0.686356  0.772198  0.736511  2.398149  0.583
H  H4  1  0.09104691  0.19344182  0.54148741  1  0.174561  -8.9e-05  0.134355  0.086245  -8.5e-05  0.961654  0.0
H  H5  1  0.90894154  0.69343183  0.95850722  1  0.173861  -8.9e-05  0.134354  0.086309  -8.5e-05  0.961652  0.0
H  H6  1  0.90894073  0.80655656  0.45849602  1  0.173905  -8.9e-05  0.134319  0.086233  -8.5e-05  0.961701  0.0
H  H7  1  0.09107102  0.30655852  0.04150190  1  0.174064  -8.9e-05  0.134329  0.086253  -8.5e-05  0.961756  0.0
H  H8  1  0.46009448  0.06083742  0.64664932  1  0.09856  -1e-06  0.120653  0.089651  -1.8e-05  0.966653  0.0
H  H9  1  0.53988543  0.56084359  0.85334516  1  0.098506  -1e-06  0.120645  0.089653  -1.8e-05  0.966672  0.0
H  H10  1  0.53989185  0.93915533  0.35334782  1  0.098476  -1e-06  0.120605  0.089586  -1.8e-05  0.966656  0.0
H  H11  1  0.46012312  0.43915398  0.14666729  1  0.098486  -1e-06  0.12064  0.089657  -1.8e-05  0.966677  0.0
H  H12  1  0.40495255  0.40270991  0.59992171  1  0.088285  -8e-05  0.124833  0.097666  -9e-05  0.969915  0.0
H  H13  1  0.59505668  0.90271328  0.90007653  1  0.08671  -8e-05  0.124799  0.097538  -9e-05  0.969988  0.0
H  H14  1  0.59503566  0.59728525  0.40007933  1  0.088052  -8e-05  0.124782  0.097558  -9e-05  0.970033  0.0
H  H15  1  0.40496138  0.09728590  0.09990718  1  0.088062  -8e-05  0.124786  0.097544  -9e-05  0.969975  0.0
H  H16  1  0.62274519  0.12468349  0.77744366  1  0.100422  0.000311  0.106403  0.109654  0.000249  1.012097  0.0
H  H17  1  0.37724476  0.62469081  0.72255391  1  0.100536  0.000311  0.106464  0.109751  0.000249  1.011995  0.0
H  H18  1  0.37724817  0.87531087  0.22254661  1  0.100499  0.000311  0.106416  0.109699  0.000249  1.011945  0.0
H  H19  1  0.62276397  0.37530436  0.27745088  1  0.100674  0.000311  0.106478  0.109772  0.000249  1.011919  0.0
H  H20  1  0.98075693  0.26610896  0.75479198  1  0.140422  0.000591  0.116021  0.1304  0.000447  0.980039  0.0
H  H21  1  0.01923849  0.76610890  0.74521831  1  0.140404  0.000591  0.116017  0.130471  0.000447  0.980074  0.0
H  H22  1  0.01922719  0.73390227  0.24521588  1  0.140249  0.000591  0.116002  0.130414  0.000447  0.980091  0.0
H  H23  1  0.98077624  0.23389510  0.25478148  1  0.140199  0.000591  0.116011  0.130439  0.000447  0.980151  0.0
H  H24  1  0.61574909  0.37270564  0.56387025  1  0.088278  0.000285  0.106848  0.11122  0.000208  1.003975  0.0
H  H25  1  0.38424875  0.87271102  0.93612785  1  0.088205  0.000285  0.106866  0.111262  0.000208  1.003988  0.0
H  H26  1  0.38422827  0.62729514  0.43613334  1  0.088426  0.000285  0.106907  0.111261  0.000208  1.003862  0.0
H  H27  1  0.61576997  0.12728816  0.06386930  1  0.088387  0.000285  0.106906  0.111283  0.000208  1.003878  0.0
C  C28  1  0.19673245  0.20376258  0.56675983  1  1.034134  -0.000701  0.184016  0.247302  -0.000814  3.951267  0.0
C  C29  1  0.80325817  0.70375601  0.93323449  1  1.034983  -0.000702  0.183905  0.246973  -0.000814  3.951491  0.0
C  C30  1  0.80325608  0.79623258  0.43322729  1  1.035058  -0.000702  0.184001  0.247242  -0.000814  3.951166  0.0
C  C31  1  0.19675149  0.29624076  0.06677260  1  1.035205  -0.000702  0.183955  0.247079  -0.000814  3.951569  0.0
C  C32  1  0.39924465  0.13240848  0.62575379  1  0.545587  -0.000565  0.066589  0.082747  -0.000679  3.938683  0.0
C  C33  1  0.60074547  0.63241299  0.87424306  1  0.545078  -0.000565  0.066692  0.082874  -0.000679  3.93862  0.0
C  C34  1  0.60074658  0.86758106  0.37424371  1  0.545186  -0.000565  0.066669  0.082861  -0.000679  3.938801  0.0
C  C35  1  0.39926614  0.36758459  0.12576445  1  0.545428  -0.000566  0.066754  0.082945  -0.00068  3.93835  0.0
C  C36  1  0.45762151  0.23430124  0.63061689  1  -0.061324  0.000672  -0.000356  -0.02108  0.00042  4.005182  0.001
C  C37  1  0.54237361  0.73430489  0.86937957  1  -0.06079  0.000672  -0.000412  -0.021078  0.00042  4.005314  0.001
C  C38  1  0.54236776  0.76569393  0.36938089  1  -0.061419  0.000672  -0.000244  -0.020928  0.00042  4.005312  0.001
C  C39  1  0.45763927  0.26568948  0.13061562  1  -0.0617  0.000672  -0.000242  -0.020976  0.00042  4.005272  0.001
C  C40  1  0.37086557  0.31978777  0.59875710  1  0.547917  -0.000674  0.070847  0.089212  -0.000799  3.892549  0.0
C  C41  1  0.62913413  0.81978523  0.90124251  1  0.549663  -0.000674  0.070889  0.089308  -0.000799  3.892799  0.0
C  C42  1  0.62912069  0.68020579  0.40124352  1  0.548902  -0.000674  0.070869  0.089265  -0.000799  3.892647  0.0
C  C43  1  0.37088281  0.18020994  0.09874726  1  0.549212  -0.000674  0.070953  0.089376  -0.0008  3.892874  0.0
C  C44  1  0.60031010  0.24756887  0.66634316  1  0.013147  0.001563  -0.009494  0.061979  0.000934  4.057459  0.001
C  C45  1  0.39968619  0.74756904  0.83365626  1  0.01254  0.001563  -0.009483  0.06203  0.000934  4.057418  0.001
C  C46  1  0.39968021  0.75243593  0.33365205  1  0.012496  0.001562  -0.009554  0.061903  0.000934  4.057644  0.001
C  C47  1  0.60032161  0.25242933  0.16634623  1  0.012737  0.001563  -0.009448  0.0621  0.000935  4.057429  0.001
C  C48  1  0.67196388  0.18204270  0.74203640  1  0.051066  0.001559  -0.075188  -0.134902  0.001046  3.92391  0.001
C  C49  1  0.32802820  0.68205373  0.75796120  1  0.050734  0.00156  -0.075227  -0.135108  0.001046  3.924075  0.001
C  C50  1  0.32803110  0.81795086  0.25796891  1  0.051265  0.001558  -0.075167  -0.13497  0.001045  3.924247  0.001
C  C51  1  0.67197676  0.31793983  0.24203718  1  0.050973  0.00156  -0.075319  -0.135297  0.001047  3.924366  0.001
C  C52  1  0.80796777  0.18973024  0.77502223  1  -0.085172  0.017257  -0.011109  -0.01131  0.011949  3.973001  0.013
C  C53  1  0.19202155  0.68973787  0.72497401  1  -0.084661  0.017247  -0.011008  -0.011142  0.011942  3.973097  0.013
C  C54  1  0.19202039  0.81028099  0.22498090  1  -0.086692  0.01725  -0.011084  -0.011315  0.011943  3.973114  0.013
C  C55  1  0.80798438  0.31027015  0.27502458  1  -0.086425  0.017254  -0.011013  -0.011025  0.011945  3.972821  0.013
C  C56  1  0.87460416  0.26171600  0.73095242  1  -0.025741  0.002902  -0.064064  -0.088776  0.001869  3.887308  0.002
C  C57  1  0.12538937  0.76171173  0.76905119  1  -0.026164  0.002903  -0.064077  -0.08883  0.00187  3.887358  0.002
C  C58  1  0.12538089  0.73830246  0.26905774  1  -0.024555  0.002898  -0.064046  -0.088676  0.001868  3.887376  0.002
C  C59  1  0.87462740  0.23829146  0.23094554  1  -0.024726  0.0029  -0.064048  -0.088776  0.00187  3.887287  0.002
C  C60  1  0.80411527  0.32711689  0.65505437  1  0.073123  0.017092  -0.009625  -0.010329  0.012008  3.968201  0.014
C  C61  1  0.19588743  0.82711701  0.84494863  1  0.07331  0.017101  -0.009646  -0.010399  0.012015  3.968298  0.014
C  C62  1  0.19587282  0.67289755  0.34495155  1  0.073186  0.0171  -0.009718  -0.010666  0.012014  3.968462  0.014
C  C63  1  0.80412731  0.17289020  0.15505116  1  0.073095  0.017097  -0.009672  -0.010668  0.012012  3.968928  0.014
C  C64  1  0.66772612  0.32159054  0.62402444  1  -0.125263  0.001516  -0.07434  -0.133481  0.000835  3.915339  0.001
C  C65  1  0.33227348  0.82159488  0.87598073  1  -0.124983  0.001515  -0.074344  -0.133465  0.000835  3.915344  0.001
C  C66  1  0.33225997  0.67841105  0.37598315  1  -0.124816  0.001516  -0.074324  -0.133299  0.000835  3.914794  0.001
C  C67  1  0.66774619  0.17840350  0.12401803  1  -0.124922  0.001515  -0.074401  -0.133361  0.000835  3.915053  0.001
C  C68  1  0.88045790  0.11865289  0.85646374  1  1.569439  -0.001738  0.215324  0.580259  -0.002105  4.159569  -0.004
C  C69  1  0.11953573  0.61866259  0.64353957  1  1.569484  -0.00174  0.215275  0.580289  -0.002106  4.159378  -0.004
C  C70  1  0.11953716  0.88133986  0.14353809  1  1.569214  -0.001738  0.215418  0.580547  -0.002106  4.158988  -0.004
C  C71  1  0.88048373  0.38133016  0.35646824  1  1.569502  -0.00174  0.215272  0.580301  -0.002104  4.159701  -0.004
C  C72  1  0.87545670  0.39806189  0.60237904  1  1.550243  -0.00156  0.215706  0.582285  -0.002048  4.15803  -0.004
C  C73  1  0.12454837  0.89807003  0.89762534  1  1.550317  -0.001558  0.215699  0.582321  -0.002046  4.158657  -0.004
C  C74  1  0.12454405  0.60193407  0.39763102  1  1.550404  -0.001556  0.21574  0.582406  -0.002046  4.15856  -0.004
C  C75  1  0.87546147  0.10193557  0.10237409  1  1.550272  -0.001558  0.215762  0.58249  -0.002046  4.158244  -0.004
N  N76  1  0.24156412  0.30464333  0.56669672  1  -1.235289  -0.001666  -0.32648  -0.265434  -0.00095  3.475985  0.0
N  N77  1  0.75843326  0.80464008  0.93330529  1  -1.23514  -0.001666  -0.326487  -0.265323  -0.00095  3.476059  0.0
N  N78  1  0.75842517  0.69535264  0.43330036  1  -1.235624  -0.001666  -0.326505  -0.265426  -0.000949  3.475869  0.0
N  N79  1  0.24158057  0.19535027  0.06669150  1  -1.235985  -0.001666  -0.326579  -0.265422  -0.000949  3.475844  0.0
N  N80  1  0.27023745  0.11638864  0.59483556  1  -1.202763  0.000283  -0.324576  -0.296798  0.00022  3.269605  0.0
N  N81  1  0.72974555  0.61638441  0.90515846  1  -1.202921  0.000283  -0.324517  -0.296732  0.00022  3.269575  0.0
N  N82  1  0.72974906  0.88360732  0.40515392  1  -1.20279  0.000283  -0.32455  -0.296791  0.000221  3.269489  0.0
N  N83  1  0.27026398  0.38360593  0.09485419  1  -1.202898  0.000283  -0.324635  -0.296853  0.00022  3.269844  0.0
O  O84  1  0.99387957  0.14879374  0.90522677  1  -1.108146  0.09052  -0.310183  -0.5188  0.057207  2.338937  0.082
O  O85  1  0.00610497  0.64880375  0.59477085  1  -1.108251  0.090519  -0.310237  -0.518982  0.057208  2.338703  0.082
O  O86  1  0.00612146  0.85121106  0.09477146  1  -1.108098  0.090504  -0.310185  -0.51892  0.057197  2.339142  0.082
O  O87  1  0.99388125  0.35120426  0.40523116  1  -1.108573  0.090466  -0.310151  -0.518861  0.057173  2.339905  0.082
O  O88  1  0.82119491  0.03344963  0.87008799  1  -1.103315  0.099548  -0.315629  -0.518308  0.062878  2.351263  0.091
O  O89  1  0.17879217  0.53344994  0.62991245  1  -1.103211  0.09958  -0.31563  -0.518334  0.062898  2.351102  0.091
O  O90  1  0.17881501  0.96655839  0.12990796  1  -1.102951  0.099611  -0.315754  -0.518516  0.062916  2.350366  0.091
O  O91  1  0.82120088  0.46655165  0.37009105  1  -1.102935  0.099623  -0.315681  -0.518445  0.062925  2.350308  0.091
O  O92  1  0.98961432  0.36719656  0.60242877  1  -1.103963  0.089122  -0.311064  -0.527895  0.056273  2.365965  0.081
O  O93  1  0.01039218  0.86719891  0.89757195  1  -1.103909  0.089114  -0.311136  -0.528051  0.056267  2.366217  0.081
O  O94  1  0.01036798  0.63280583  0.39757310  1  -1.104065  0.089148  -0.311299  -0.528247  0.056291  2.365668  0.081
O  O95  1  0.98962659  0.13280187  0.10242311  1  -1.104125  0.089116  -0.311247  -0.528122  0.056269  2.365948  0.081
O  O96  1  0.81584469  0.48116182  0.56017978  1  -1.102169  0.102095  -0.315816  -0.513738  0.064545  2.319053  0.093
O  O97  1  0.18415145  0.98116084  0.93981574  1  -1.102362  0.102077  -0.315731  -0.513583  0.064534  2.319568  0.093
O  O98  1  0.18413865  0.51885583  0.43981951  1  -1.102349  0.102039  -0.315608  -0.513422  0.06451  2.320156  0.093
O  O99  1  0.81585452  0.01884236  0.06018145  1  -1.102151  0.102101  -0.315756  -0.513697  0.064548  2.319427  0.093
