# generated using pymatgen
data_ZnH11C17NO4
_symmetry_space_group_name_H-M   'P 1'
_cell_length_a   11.23701320
_cell_length_b   14.17908910
_cell_length_c   24.69947756
_cell_angle_alpha   89.99993950
_cell_angle_beta   98.91367700
_cell_angle_gamma   90.00006314
_symmetry_Int_Tables_number   1
_chemical_formula_structural   ZnH11C17NO4
_chemical_formula_sum   'Zn8 H88 C136 N8 O32'
_cell_volume   3887.85487614
_cell_formula_units_Z   8
loop_
 _symmetry_equiv_pos_site_id
 _symmetry_equiv_pos_as_xyz
  1  'x, y, z'
loop_
 _atom_site_type_symbol
 _atom_site_label
 _atom_site_symmetry_multiplicity
 _atom_site_fract_x
 _atom_site_fract_y
 _atom_site_fract_z
 _atom_site_occupancy
 _atom_site_pbe_bader_charge
 _atom_site_pbe_bader_spin_density
 _atom_site_pbe_cm5_charge
 _atom_site_pbe_ddec_charge
 _atom_site_pbe_ddec_spin_density
 _atom_site_pbe_ddec_sum_bond_order
 _atom_site_pbe_magmom
Zn  Zn0  1  0.04157809  0.10818891  0.00195897  1  1.327886  0  0.664375  0.877721  0  2.352877  0
Zn  Zn1  1  0.95842256  0.60818995  0.49803994  1  1.327898  0  0.664402  0.877697  0  2.352884  0
Zn  Zn2  1  0.95841864  0.89180927  0.99803930  1  1.327931  0  0.664362  0.877617  0  2.352976  0
Zn  Zn3  1  0.04157775  0.39180823  0.50195981  1  1.327842  0  0.664376  0.877701  0  2.352846  0
Zn  Zn4  1  0.26241907  0.98160544  0.04987355  1  1.298126  0  0.668215  0.936624  0  2.325769  0
Zn  Zn5  1  0.73758112  0.48160772  0.45012631  1  1.298236  0  0.668244  0.936681  0  2.325692  0
Zn  Zn6  1  0.73758036  0.01839275  0.95012573  1  1.298177  0  0.668234  0.936685  0  2.325716  0
Zn  Zn7  1  0.26241827  0.51839399  0.54987499  1  1.298201  0  0.668231  0.936671  0  2.325744  0
H  H8  1  0.92640090  0.07408898  0.11302376  1  0.10543  0  0.124224  0.09463  0  0.991412  0
H  H9  1  0.07360240  0.57409086  0.38697659  1  0.105486  0  0.124207  0.094609  0  0.991466  0
H  H10  1  0.07359853  0.92591344  0.88697552  1  0.105394  0  0.12422  0.094586  0  0.991393  0
H  H11  1  0.92640058  0.42591226  0.61302539  1  0.105445  0  0.124239  0.094629  0  0.991293  0
H  H12  1  0.81033776  0.17066631  0.17171203  1  0.080434  0  0.111508  0.116957  0  1.010373  0
H  H13  1  0.18966745  0.67066840  0.32828881  1  0.080328  0  0.111529  0.116963  0  1.010296  0
H  H14  1  0.18966074  0.82933681  0.82828840  1  0.080916  0  0.111512  0.116969  0  1.010354  0
H  H15  1  0.81033824  0.32932697  0.67171296  1  0.080332  0  0.111565  0.116996  0  1.010248  0
H  H16  1  0.74630911  0.33442365  0.14171720  1  0.078529  0  0.115445  0.114953  0  0.976497  0
H  H17  1  0.25369180  0.83442857  0.35828241  1  0.078434  0  0.11544  0.114938  0  0.976461  0
H  H18  1  0.25368762  0.66557876  0.85828148  1  0.07899  0  0.115417  0.114815  0  0.976587  0
H  H19  1  0.74631298  0.16557032  0.64171930  1  0.078434  0  0.115445  0.114932  0  0.976426  0
H  H20  1  0.80845368  0.52179180  0.98493020  1  0.056383  0  0.109436  0.116441  0  0.993487  0
H  H21  1  0.19153957  0.02179650  0.51506890  1  0.055964  0  0.10948  0.116515  0  0.993528  0
H  H22  1  0.19154488  0.47820780  0.01506699  1  0.056033  0  0.109461  0.116429  0  0.993527  0
H  H23  1  0.80845801  0.97820309  0.48493227  1  0.055941  0  0.109468  0.11645  0  0.99362  0
H  H24  1  0.74779017  0.46497794  0.07128920  1  0.070121  0  0.108035  0.110111  0  0.988899  0
H  H25  1  0.25220102  0.96498273  0.42870839  1  0.070021  0  0.108082  0.110143  0  0.988849  0
H  H26  1  0.25220393  0.53502236  0.92870604  1  0.069974  0  0.108064  0.110103  0  0.988864  0
H  H27  1  0.74779836  0.03501405  0.57129292  1  0.070038  0  0.108092  0.110194  0  0.988801  0
H  H28  1  0.06760555  0.21349108  0.89008541  1  0.144513  0  0.122497  0.095399  0  1.00621  0
H  H29  1  0.93238613  0.71349139  0.60991345  1  0.144417  0  0.122494  0.095422  0  1.006236  0
H  H30  1  0.93238848  0.78650640  0.10991306  1  0.144483  0  0.122468  0.095327  0  1.006298  0
H  H31  1  0.06760964  0.28650539  0.39008799  1  0.144507  0  0.122473  0.09535  0  1.006303  0
H  H32  1  0.02328805  0.37645572  0.85104509  1  0.102518  0  0.114855  0.119311  0  0.976519  0
H  H33  1  0.97669938  0.87645741  0.64895092  1  0.102429  0  0.114808  0.119258  0  0.976513  0
H  H34  1  0.97670603  0.62354105  0.14895096  1  0.102518  0  0.114854  0.119251  0  0.976549  0
H  H35  1  0.02330002  0.12354007  0.35104957  1  0.102485  0  0.114828  0.119279  0  0.976548  0
H  H36  1  0.91689981  0.49164118  0.90375995  1  0.07067  0  0.111729  0.111296  0  1.001504  0
H  H37  1  0.08309311  0.99164007  0.59623883  1  0.070665  0  0.111704  0.111315  0  1.001527  0
H  H38  1  0.08309785  0.50836053  0.09623758  1  0.070693  0  0.111705  0.111341  0  1.001429  0
H  H39  1  0.91690809  0.00835812  0.40376180  1  0.070639  0  0.111685  0.111353  0  1.00146  0
H  H40  1  0.53295941  0.30906642  0.22881851  1  0.084412  0  0.09776  0.105165  0  1.032844  0
H  H41  1  0.46703869  0.80907309  0.27118495  1  0.084476  0  0.097743  0.105101  0  1.032827  0
H  H42  1  0.46703005  0.69093176  0.77118286  1  0.084352  0  0.09776  0.105109  0  1.032793  0
H  H43  1  0.53296335  0.19093003  0.72881857  1  0.084406  0  0.097747  0.105151  0  1.032846  0
H  H44  1  0.46009602  0.17545631  0.16668150  1  0.099327  0  0.10167  0.104486  0  1.038193  0
H  H45  1  0.53990458  0.67546152  0.33332385  1  0.099403  0  0.101686  0.104492  0  1.038183  0
H  H46  1  0.53989702  0.82454328  0.83332095  1  0.099238  0  0.101656  0.104457  0  1.038238  0
H  H47  1  0.46010012  0.32454372  0.66668190  1  0.099274  0  0.101649  0.104444  0  1.0382  0
H  H48  1  0.17324893  0.34757733  0.08558397  1  0.049221  0  0.093791  0.092684  0  1.033277  0
H  H49  1  0.82676553  0.84758194  0.41441582  1  0.049094  0  0.093805  0.092713  0  1.033151  0
H  H50  1  0.82675505  0.65242015  0.91441322  1  0.049261  0  0.093794  0.09268  0  1.03331  0
H  H51  1  0.17324827  0.15242330  0.58558615  1  0.049277  0  0.093797  0.092724  0  1.033237  0
H  H52  1  0.24693579  0.48299786  0.14746500  1  0.036229  0  0.090274  0.084898  0  1.065802  0
H  H53  1  0.75307710  0.98300180  0.35253095  1  0.036072  0  0.09025  0.084888  0  1.065824  0
H  H54  1  0.75306823  0.51700174  0.85253017  1  0.03618  0  0.090271  0.084897  0  1.065763  0
H  H55  1  0.24693498  0.01700203  0.64746685  1  0.036243  0  0.090263  0.08489  0  1.065782  0
H  H56  1  0.21898843  0.41137608  0.24996541  1  0.046777  0  0.095387  0.098806  0  1.019333  0
H  H57  1  0.78100719  0.91137389  0.25003253  1  0.046815  0  0.095399  0.098783  0  1.019417  0
H  H58  1  0.78100832  0.58862492  0.75003205  1  0.046819  0  0.095404  0.098807  0  1.019399  0
H  H59  1  0.21899492  0.08862359  0.74996776  1  0.046874  0  0.095384  0.098751  0  1.019421  0
H  H60  1  0.13878360  0.40354190  0.33822409  1  0.086067  0  0.099976  0.10278  0  1.015101  0
H  H61  1  0.86121017  0.90353923  0.16177616  1  0.086123  0  0.099979  0.102739  0  1.015184  0
H  H62  1  0.86121492  0.59645840  0.66177512  1  0.086094  0  0.099968  0.102735  0  1.015111  0
H  H63  1  0.13878836  0.09645613  0.83822265  1  0.086152  0  0.099973  0.102759  0  1.015199  0
H  H64  1  0.47297549  0.51339811  0.42268220  1  0.127727  0  0.107943  0.114983  0  1.00967  0
H  H65  1  0.52702145  0.01339876  0.07731650  1  0.12769  0  0.107937  0.114966  0  1.009657  0
H  H66  1  0.52702210  0.48660008  0.57731856  1  0.127721  0  0.107944  0.114989  0  1.009683  0
H  H67  1  0.47297169  0.98659801  0.92268110  1  0.127798  0  0.107964  0.115011  0  1.009653  0
H  H68  1  0.55488221  0.51933584  0.33475297  1  0.153179  0  0.104367  0.118054  0  1.040792  0
H  H69  1  0.44511653  0.01933768  0.16524586  1  0.153156  0  0.104372  0.11809  0  1.040736  0
H  H70  1  0.44511717  0.48066376  0.66524833  1  0.15314  0  0.104377  0.118064  0  1.04074  0
H  H71  1  0.55488650  0.98066121  0.83475329  1  0.153103  0  0.1044  0.118113  0  1.040771  0
H  H72  1  0.28260494  0.61639843  0.26724031  1  0.053301  0  0.093757  0.088332  0  1.064604  0
H  H73  1  0.71739570  0.11640321  0.23275982  1  0.053516  0  0.093764  0.088308  0  1.064596  0
H  H74  1  0.71739175  0.38359975  0.73276039  1  0.053361  0  0.093756  0.088325  0  1.064502  0
H  H75  1  0.28260464  0.88360133  0.76723913  1  0.053408  0  0.093746  0.088294  0  1.064527  0
H  H76  1  0.20943048  0.76801397  0.22135026  1  0.090411  0  0.101718  0.102614  0  1.006249  0
H  H77  1  0.79057392  0.26801731  0.27865167  1  0.090366  0  0.101738  0.102603  0  1.006241  0
H  H78  1  0.79056979  0.23198492  0.77865192  1  0.090413  0  0.101716  0.102612  0  1.006301  0
H  H79  1  0.20942639  0.73198793  0.72134849  1  0.090439  0  0.10176  0.102645  0  1.006261  0
H  H80  1  0.42860285  0.71933615  0.09711755  1  0.098937  0  0.106586  0.115221  0  0.992987  0
H  H81  1  0.57139609  0.21933414  0.40288360  1  0.098935  0  0.106572  0.115217  0  0.992962  0
H  H82  1  0.57139294  0.28066556  0.90288308  1  0.098923  0  0.106535  0.115131  0  0.993059  0
H  H83  1  0.42860871  0.78066475  0.59711730  1  0.098959  0  0.106587  0.115199  0  0.993019  0
H  H84  1  0.49552837  0.56542922  0.13974230  1  0.036046  0  0.097282  0.089999  0  1.009731  0
H  H85  1  0.50447317  0.06543146  0.36025469  1  0.036139  0  0.09721  0.089849  0  1.009814  0
H  H86  1  0.50446655  0.43457038  0.86025664  1  0.036002  0  0.097271  0.090002  0  1.009847  0
H  H87  1  0.49553437  0.93456814  0.63974480  1  0.035987  0  0.097289  0.090006  0  1.009759  0
H  H88  1  0.08152809  0.96628982  0.08348508  1  0.602401  0  0.287161  0.382357  0  0.944564  0
H  H89  1  0.91847294  0.46629091  0.41651648  1  0.601603  0  0.287122  0.38227  0  0.944698  0
H  H90  1  0.91846951  0.03370837  0.91651488  1  0.601847  0  0.287162  0.382345  0  0.944612  0
H  H91  1  0.08153094  0.53370798  0.58348556  1  0.601835  0  0.287148  0.382314  0  0.944633  0
H  H92  1  0.59749128  0.52274733  0.21661004  1  0.59606  0  0.311385  0.337456  0  0.933325  0
H  H93  1  0.40250926  0.02274891  0.28338973  1  0.596113  0  0.311457  0.337521  0  0.933205  0
H  H94  1  0.40250634  0.47725297  0.78338951  1  0.596087  0  0.311463  0.337554  0  0.933142  0
H  H95  1  0.59749286  0.97725280  0.71661015  1  0.596066  0  0.311454  0.337569  0  0.933201  0
C  C96  1  0.89691102  0.14534109  0.10087463  1  0.543539  0  0.069761  0.123218  0  3.916008  0
C  C97  1  0.10307975  0.64534509  0.39912475  1  0.543638  0  0.069716  0.123112  0  3.916159  0
C  C98  1  0.10308392  0.85465780  0.89912351  1  0.543513  0  0.069733  0.123204  0  3.916181  0
C  C99  1  0.89691333  0.35465592  0.60087608  1  0.543631  0  0.069753  0.123229  0  3.916026  0
C  C100  1  0.83216068  0.20026557  0.13379110  1  0.016216  0  -0.077144  -0.119757  0  3.968151  0
C  C101  1  0.16784003  0.70026899  0.36621060  1  0.016399  0  -0.077211  -0.119784  0  3.968028  0
C  C102  1  0.16783153  0.79973402  0.86620805  1  0.015691  0  -0.077206  -0.119898  0  3.968212  0
C  C103  1  0.83216386  0.29972990  0.63379104  1  0.016277  0  -0.077248  -0.119865  0  3.968105  0
C  C104  1  0.79704530  0.29042369  0.11705346  1  -0.044592  0  -0.057613  -0.072384  0  3.921101  0
C  C105  1  0.20296004  0.79042640  0.38294771  1  -0.044892  0  -0.057574  -0.072333  0  3.920889  0
C  C106  1  0.20295325  0.70957802  0.88294454  1  -0.044955  0  -0.057529  -0.07209  0  3.920857  0
C  C107  1  0.79704654  0.20957320  0.61705453  1  -0.044906  0  -0.057539  -0.072252  0  3.920778  0
C  C108  1  0.82724085  0.32571868  0.06738126  1  -0.016113  0  0.001747  0.047211  0  4.010299  0
C  C109  1  0.17276183  0.82572198  0.43261969  1  -0.015818  0  0.001752  0.047183  0  4.010263  0
C  C110  1  0.17275588  0.67428232  0.93261741  1  -0.016111  0  0.001755  0.047229  0  4.01012  0
C  C111  1  0.82724115  0.17427762  0.56738188  1  -0.015747  0  0.001716  0.04716  0  4.010139  0
C  C112  1  0.89157092  0.26462314  0.03665988  1  0.527083  0  0.126336  0.134178  0  3.946438  0
C  C113  1  0.10842990  0.76462632  0.46334016  1  0.527026  0  0.12633  0.134166  0  3.946711  0
C  C114  1  0.10842672  0.73537646  0.96333845  1  0.527086  0  0.126306  0.134089  0  3.946438  0
C  C115  1  0.89157487  0.23537186  0.53666235  1  0.526976  0  0.126382  0.134276  0  3.946402  0
C  C116  1  0.92540525  0.29741213  0.98585982  1  0.505761  0  0.127232  0.129464  0  3.950526  0
C  C117  1  0.07459105  0.79741045  0.51413852  1  0.505808  0  0.127175  0.129423  0  3.950801  0
C  C118  1  0.07459149  0.70258888  0.01413845  1  0.505744  0  0.127138  0.129337  0  3.950767  0
C  C119  1  0.92541103  0.20258562  0.48586298  1  0.505713  0  0.127225  0.12943  0  3.950732  0
C  C120  1  0.89605575  0.39078061  0.96769689  1  0.036797  0  0.000201  0.044662  0  4.011136  0
C  C121  1  0.10393437  0.89078457  0.53230053  1  0.037305  0  0.000175  0.044488  0  4.010986  0
C  C122  1  0.10393923  0.60921828  0.03229923  1  0.037228  0  0.000191  0.044639  0  4.011419  0
C  C123  1  0.89606410  0.10921361  0.46770110  1  0.037178  0  0.000241  0.044669  0  4.011352  0
C  C124  1  0.83094477  0.45045505  0.99959043  1  -0.125137  0  -0.081848  -0.120026  0  3.994753  0
C  C125  1  0.16904630  0.95045983  0.50040824  1  -0.125853  0  -0.081895  -0.120076  0  3.994685  0
C  C126  1  0.16905199  0.54954525  0.00040662  1  -0.124988  0  -0.081853  -0.119979  0  3.994933  0
C  C127  1  0.83095218  0.04953906  0.49959340  1  -0.125887  0  -0.081848  -0.119942  0  3.99486  0
C  C128  1  0.79741417  0.41892355  0.04732268  1  0.059237  0  -0.084836  -0.127428  0  4.006683  0
C  C129  1  0.20258055  0.91893036  0.45267601  1  0.060332  0  -0.084886  -0.127446  0  4.006468  0
C  C130  1  0.20258257  0.58107464  0.95267559  1  0.059541  0  -0.084858  -0.127438  0  4.006699  0
C  C131  1  0.79742243  0.08106853  0.54732597  1  0.060341  0  -0.084945  -0.127611  0  4.006547  0
C  C132  1  0.01908600  0.26538788  0.91078232  1  0.529005  0  0.069592  0.128179  0  3.904073  0
C  C133  1  0.98091026  0.76538616  0.58921605  1  0.528992  0  0.069662  0.128235  0  3.904324  0
C  C134  1  0.98091434  0.73461242  0.08921622  1  0.529006  0  0.06966  0.12836  0  3.904317  0
C  C135  1  0.01908554  0.23461203  0.41078377  1  0.529051  0  0.069629  0.128303  0  3.904186  0
C  C136  1  0.99446533  0.35669955  0.88962324  1  -0.018676  0  -0.079141  -0.12905  0  3.989406  0
C  C137  1  0.00552924  0.85669835  0.61037534  1  -0.018698  0  -0.079181  -0.129096  0  3.989559  0
C  C138  1  0.00553233  0.64330216  0.11037429  1  -0.018741  0  -0.079207  -0.129123  0  3.989427  0
C  C139  1  0.99446567  0.14329984  0.38962441  1  -0.01878  0  -0.079139  -0.129103  0  3.989267  0
C  C140  1  0.93453646  0.41972823  0.91846685  1  -0.065547  0  -0.062917  -0.078487  0  3.945135  0
C  C141  1  0.06545549  0.91972995  0.58153069  1  -0.065717  0  -0.062847  -0.078395  0  3.945142  0
C  C142  1  0.06545943  0.58027066  0.08152892  1  -0.065773  0  -0.062875  -0.078466  0  3.945108  0
C  C143  1  0.93453938  0.08026894  0.41847068  1  -0.065755  0  -0.062897  -0.078538  0  3.945214  0
C  C144  1  0.43751774  0.48470531  0.23205498  1  0.512112  0  0.085671  0.215305  0  3.837286  0
C  C145  1  0.56248424  0.98471347  0.26794542  1  0.512094  0  0.08588  0.215375  0  3.837317  0
C  C146  1  0.56247901  0.51529006  0.76794288  1  0.512085  0  0.085707  0.215307  0  3.837201  0
C  C147  1  0.43751969  0.01528824  0.73205379  1  0.512043  0  0.085752  0.215189  0  3.837354  0
C  C148  1  0.39479397  0.40489272  0.19187934  1  -0.074657  0  -0.013006  0.030672  0  3.934692  0
C  C149  1  0.60521335  0.90489803  0.30812029  1  -0.074092  0  -0.013101  0.030553  0  3.934577  0
C  C150  1  0.60520637  0.59510476  0.80811960  1  -0.074569  0  -0.013075  0.030584  0  3.934409  0
C  C151  1  0.39479508  0.09510509  0.69188006  1  -0.074897  0  -0.013119  0.030531  0  3.9346  0
C  C152  1  0.45467068  0.31787375  0.19714818  1  -0.068554  0  -0.09424  -0.122241  0  3.97217  0
C  C153  1  0.54533289  0.81787549  0.30285285  1  -0.068868  0  -0.094181  -0.122106  0  3.971993  0
C  C154  1  0.54532964  0.68212796  0.80285157  1  -0.068472  0  -0.094224  -0.122187  0  3.971987  0
C  C155  1  0.45467191  0.18212551  0.69714805  1  -0.068261  0  -0.094217  -0.122188  0  3.972124  0
C  C156  1  0.41405720  0.24323498  0.16251052  1  0.002753  0  -0.083786  -0.085202  0  3.961884  0
C  C157  1  0.58594809  0.74323740  0.33749028  1  0.002307  0  -0.083884  -0.085286  0  3.961955  0
C  C158  1  0.58594040  0.75676673  0.83748984  1  0.002826  0  -0.083763  -0.085155  0  3.961778  0
C  C159  1  0.41405850  0.25676643  0.66251116  1  0.003117  0  -0.083765  -0.085157  0  3.961824  0
C  C160  1  0.31260477  0.25403398  0.12210304  1  -0.046381  0  -0.023778  -0.036407  0  3.976359  0
C  C161  1  0.68740413  0.75403500  0.37789843  1  -0.045888  0  -0.023769  -0.036312  0  3.976593  0
C  C162  1  0.68739643  0.74596562  0.87789759  1  -0.046424  0  -0.023759  -0.036282  0  3.976308  0
C  C163  1  0.31260426  0.24596883  0.62210354  1  -0.046799  0  -0.023738  -0.036325  0  3.976164  0
C  C164  1  0.25249981  0.34072429  0.11701070  1  0.000422  0  -0.095766  -0.100486  0  4.014096  0
C  C165  1  0.74750648  0.84072465  0.38299092  1  0.00078  0  -0.095776  -0.100552  0  4.014162  0
C  C166  1  0.74749689  0.65927460  0.88298959  1  0.000114  0  -0.095779  -0.100526  0  4.014136  0
C  C167  1  0.25250100  0.15927706  0.61701139  1  0.000426  0  -0.09578  -0.100592  0  4.014027  0
C  C168  1  0.29332540  0.41532004  0.15159900  1  -0.068541  0  -0.104831  -0.151539  0  4.04254  0
C  C169  1  0.70668280  0.91532184  0.34840191  1  -0.068939  0  -0.104822  -0.151557  0  4.04258  0
C  C170  1  0.70667400  0.58467885  0.84840149  1  -0.068238  0  -0.104847  -0.15153  0  4.0425  0
C  C171  1  0.29332471  0.08468058  0.65159919  1  -0.068539  0  -0.104844  -0.151497  0  4.042529  0
C  C172  1  0.26575371  0.17423196  0.08514269  1  1.584472  0  0.213973  0.592727  0  4.184477  0
C  C173  1  0.73424790  0.67423437  0.41485788  1  1.584574  0  0.213918  0.592457  0  4.184911  0
C  C174  1  0.73424120  0.82576552  0.91485706  1  1.584587  0  0.213925  0.592479  0  4.184797  0
C  C175  1  0.26575962  0.32576946  0.58514282  1  1.584662  0  0.213969  0.592654  0  4.184763  0
C  C176  1  0.39169701  0.46801164  0.28640483  1  -0.064946  0  -0.005156  0.049102  0  3.900681  0
C  C177  1  0.60830765  0.96801148  0.21359579  1  -0.064895  0  -0.005215  0.049098  0  3.900657  0
C  C178  1  0.60829971  0.53198796  0.71359425  1  -0.065017  0  -0.005148  0.049084  0  3.900808  0
C  C179  1  0.39169988  0.03198529  0.78640369  1  -0.064995  0  -0.005206  0.049145  0  3.900743  0
C  C180  1  0.27520110  0.43345718  0.28784101  1  -0.065313  0  -0.100889  -0.141402  0  4.012763  0
C  C181  1  0.72479994  0.93345713  0.21215814  1  -0.065406  0  -0.100827  -0.141318  0  4.012883  0
C  C182  1  0.72479653  0.56654171  0.71215773  1  -0.065252  0  -0.100857  -0.141386  0  4.01287  0
C  C183  1  0.27520308  0.06653965  0.78784181  1  -0.065319  0  -0.100836  -0.141289  0  4.012755  0
C  C184  1  0.23024208  0.42855271  0.33725160  1  -0.071382  0  -0.093139  -0.107219  0  4.015101  0
C  C185  1  0.76975352  0.92854714  0.16274836  1  -0.071408  0  -0.093189  -0.107141  0  4.015227  0
C  C186  1  0.76975463  0.57144829  0.66274788  1  -0.071357  0  -0.09316  -0.107143  0  4.015079  0
C  C187  1  0.23024858  0.07144963  0.83725233  1  -0.071387  0  -0.093179  -0.107229  0  4.015283  0
C  C188  1  0.30123185  0.45821963  0.38608361  1  -0.047949  0  -0.026925  -0.057914  0  4.010455  0
C  C189  1  0.69876739  0.95821902  0.11391701  1  -0.047982  0  -0.026957  -0.05802  0  4.010453  0
C  C190  1  0.69876577  0.54177997  0.61391554  1  -0.047995  0  -0.026922  -0.057944  0  4.010409  0
C  C191  1  0.30123471  0.04178128  0.88608368  1  -0.047955  0  -0.026906  -0.057885  0  4.01038  0
C  C192  1  0.41839114  0.49037619  0.38467628  1  -0.101637  0  -0.079973  -0.071637  0  3.943959  0
C  C193  1  0.58160905  0.99037689  0.11532398  1  -0.101587  0  -0.079932  -0.071536  0  3.943985  0
C  C194  1  0.58160825  0.50962411  0.61532462  1  -0.101632  0  -0.079973  -0.071658  0  3.944041  0
C  C195  1  0.41839220  0.00962694  0.88467422  1  -0.101606  0  -0.080038  -0.071744  0  3.944021  0
C  C196  1  0.46360458  0.49448724  0.33535230  1  0.050056  0  -0.087826  -0.114019  0  3.942144  0
C  C197  1  0.53639740  0.99449274  0.16464851  1  0.050103  0  -0.08785  -0.11412  0  3.942191  0
C  C198  1  0.53639391  0.50551307  0.66464853  1  0.050054  0  -0.08784  -0.113986  0  3.942394  0
C  C199  1  0.46360654  0.00550897  0.83535030  1  0.050011  0  -0.087814  -0.114036  0  3.942369  0
C  C200  1  0.25171926  0.45910255  0.43886514  1  1.557532  0  0.213777  0.584495  0  4.203792  0
C  C201  1  0.74828001  0.95910137  0.06113427  1  1.557589  0  0.213835  0.58451  0  4.203742  0
C  C202  1  0.74827923  0.54089705  0.56113569  1  1.557478  0  0.213766  0.584451  0  4.203758  0
C  C203  1  0.25172395  0.04090034  0.93886373  1  1.557494  0  0.213818  0.584529  0  4.203534  0
C  C204  1  0.39508023  0.58078765  0.20745629  1  -0.027197  0  -0.012309  0.022543  0  3.93866  0
C  C205  1  0.60492665  0.08078939  0.29254554  1  -0.02787  0  -0.012347  0.022563  0  3.93896  0
C  C206  1  0.60492097  0.41921407  0.79254434  1  -0.027948  0  -0.012302  0.022578  0  3.938903  0
C  C207  1  0.39507816  0.91921091  0.70745495  1  -0.027504  0  -0.012309  0.022594  0  3.938866  0
C  C208  1  0.31460586  0.63882658  0.22988580  1  -0.039539  0  -0.098307  -0.134372  0  4.004536  0
C  C209  1  0.68540108  0.13882562  0.27011640  1  -0.039081  0  -0.098309  -0.134356  0  4.00455  0
C  C210  1  0.68539529  0.36117654  0.77011725  1  -0.038496  0  -0.098305  -0.134361  0  4.00455  0
C  C211  1  0.31460554  0.86117327  0.72988422  1  -0.039628  0  -0.098297  -0.134287  0  4.004569  0
C  C212  1  0.27369706  0.72327630  0.20451449  1  -0.083688  0  -0.086032  -0.091889  0  3.997475  0
C  C213  1  0.72630907  0.22327603  0.29548840  1  -0.083916  0  -0.086057  -0.091867  0  3.997415  0
C  C214  1  0.72630771  0.27672471  0.79548802  1  -0.08421  0  -0.086097  -0.091992  0  3.997408  0
C  C215  1  0.27369484  0.77672639  0.70451202  1  -0.083786  0  -0.086084  -0.09201  0  3.997531  0
C  C216  1  0.31401607  0.75242703  0.15644155  1  -0.002791  0  -0.017666  -0.028723  0  3.956015  0
C  C217  1  0.68598382  0.25242735  0.34355925  1  -0.002633  0  -0.017644  -0.028708  0  3.9559  0
C  C218  1  0.68598335  0.24757327  0.84355814  1  -0.002715  0  -0.017605  -0.028529  0  3.955793  0
C  C219  1  0.31401290  0.74757578  0.65643983  1  -0.002741  0  -0.017627  -0.028531  0  3.955649  0
C  C220  1  0.39713756  0.69586915  0.13443956  1  -0.023986  0  -0.082184  -0.08072  0  3.965372  0
C  C221  1  0.60285600  0.19587147  0.36555878  1  -0.024018  0  -0.082105  -0.080687  0  3.965366  0
C  C222  1  0.60285558  0.30412903  0.86555844  1  -0.023952  0  -0.082088  -0.080641  0  3.965325  0
C  C223  1  0.39714344  0.80412954  0.63443970  1  -0.023985  0  -0.082166  -0.080715  0  3.965184  0
C  C224  1  0.43573126  0.61076636  0.15924941  1  -0.101507  0  -0.09695  -0.142576  0  4.021252  0
C  C225  1  0.56426671  0.11077151  0.34074850  1  -0.101464  0  -0.096922  -0.142447  0  4.021418  0
C  C226  1  0.56426276  0.38923182  0.84074947  1  -0.101481  0  -0.096995  -0.142669  0  4.021287  0
C  C227  1  0.43573632  0.88923161  0.65925105  1  -0.101283  0  -0.096977  -0.14264  0  4.021254  0
C  C228  1  0.26632660  0.84178186  0.12799929  1  1.586099  0  0.199619  0.571957  0  4.219601  0
C  C229  1  0.73367427  0.34178428  0.37200314  1  1.586016  0  0.19969  0.571959  0  4.219433  0
C  C230  1  0.73367188  0.15821915  0.87200195  1  1.58599  0  0.199601  0.571895  0  4.219664  0
C  C231  1  0.26632603  0.65822096  0.62799782  1  1.586046  0  0.199548  0.571853  0  4.21966  0
N  N232  1  0.92471242  0.17622324  0.05361785  1  -1.228314  0  -0.304043  -0.2514  0  3.496585  0
N  N233  1  0.07528648  0.67622643  0.44638251  1  -1.228298  0  -0.303941  -0.251206  0  3.49651  0
N  N234  1  0.07528340  0.82377777  0.94638116  1  -1.228323  0  -0.303918  -0.251189  0  3.496472  0
N  N235  1  0.92471110  0.32377458  0.55361866  1  -1.228093  0  -0.304016  -0.251384  0  3.496473  0
N  N236  1  0.98678703  0.23739775  0.95774168  1  -1.234833  0  -0.302318  -0.235812  0  3.488378  0
N  N237  1  0.01321370  0.73739808  0.54225744  1  -1.234949  0  -0.302282  -0.235743  0  3.488617  0
N  N238  1  0.01321510  0.76260326  0.04225780  1  -1.23491  0  -0.302267  -0.235754  0  3.488458  0
N  N239  1  0.98678840  0.26259869  0.45774366  1  -1.23475  0  -0.302355  -0.235851  0  3.488503  0
O  O240  1  0.08364778  0.98153696  0.04480152  1  -1.225984  0  -0.571435  -0.855081  0  2.323116  0
O  O241  1  0.91635238  0.48153868  0.45519956  1  -1.225186  0  -0.571399  -0.854971  0  2.3234  0
O  O242  1  0.91635164  0.01845911  0.95519816  1  -1.22535  0  -0.57144  -0.855053  0  2.323217  0
O  O243  1  0.08364699  0.51846021  0.54480215  1  -1.225337  0  -0.57143  -0.855036  0  2.323255  0
O  O244  1  0.17788540  0.19144463  0.04769602  1  -1.185443  0  -0.322796  -0.572079  0  2.355196  0
O  O245  1  0.82210621  0.69144846  0.45230905  1  -1.185737  0  -0.322761  -0.571954  0  2.355234  0
O  O246  1  0.82210222  0.80855214  0.95230683  1  -1.185574  0  -0.322793  -0.571952  0  2.355289  0
O  O247  1  0.17789585  0.30855396  0.54769366  1  -1.185542  0  -0.322816  -0.572042  0  2.355303  0
O  O248  1  0.31793365  0.09435943  0.09462652  1  -1.168984  0  -0.31145  -0.544728  0  2.358892  0
O  O249  1  0.68206878  0.59436322  0.40537294  1  -1.168879  0  -0.311456  -0.544631  0  2.359024  0
O  O250  1  0.68206305  0.90563805  0.90537337  1  -1.168981  0  -0.311463  -0.544711  0  2.358891  0
O  O251  1  0.31793422  0.40564202  0.59462782  1  -1.16909  0  -0.311454  -0.54473  0  2.359042  0
O  O252  1  0.15090972  0.41973961  0.44021032  1  -1.189361  0  -0.313151  -0.557795  0  2.353216  0
O  O253  1  0.84909041  0.91973993  0.05978877  1  -1.189359  0  -0.313154  -0.55775  0  2.353224  0
O  O254  1  0.84908880  0.58025787  0.55978930  1  -1.189309  0  -0.313123  -0.557732  0  2.353192  0
O  O255  1  0.15091264  0.08025825  0.94020997  1  -1.189317  0  -0.313129  -0.557757  0  2.353156  0
O  O256  1  0.31495176  0.50315121  0.47870679  1  -1.167725  0  -0.320164  -0.544252  0  2.328436  0
O  O257  1  0.68504695  0.00315210  0.02129326  1  -1.167792  0  -0.320187  -0.544271  0  2.328417  0
O  O258  1  0.68504583  0.49684909  0.52129397  1  -1.167689  0  -0.32021  -0.544297  0  2.328362  0
O  O259  1  0.31495251  0.99684749  0.97870440  1  -1.16774  0  -0.320212  -0.544299  0  2.328265  0
O  O260  1  0.18092136  0.88525498  0.14385882  1  -1.171587  0  -0.33503  -0.564066  0  2.095446  0
O  O261  1  0.81908229  0.38525468  0.35614258  1  -1.17154  0  -0.335079  -0.56403  0  2.095338  0
O  O262  1  0.81908073  0.11475026  0.85614228  1  -1.171477  0  -0.334937  -0.563986  0  2.095543  0
O  O263  1  0.18091892  0.61474985  0.64385804  1  -1.171495  0  -0.334955  -0.563995  0  2.095489  0
O  O264  1  0.31988712  0.86546680  0.08697157  1  -1.171653  0  -0.337999  -0.569446  0  2.302385  0
O  O265  1  0.68011287  0.36546839  0.41303119  1  -1.171772  0  -0.338036  -0.569512  0  2.302344  0
O  O266  1  0.68011316  0.13453280  0.91303021  1  -1.17164  0  -0.338072  -0.56951  0  2.302339  0
O  O267  1  0.31988471  0.63453543  0.58696998  1  -1.171697  0  -0.338016  -0.569497  0  2.302411  0
O  O268  1  0.56774699  0.48375677  0.24403879  1  -1.103821  0  -0.382637  -0.496889  0  2.20015  0
O  O269  1  0.43225495  0.98375497  0.25596363  1  -1.10387  0  -0.382761  -0.496953  0  2.20008  0
O  O270  1  0.43225150  0.51624494  0.75596204  1  -1.103831  0  -0.382687  -0.496926  0  2.199983  0
O  O271  1  0.56774893  0.01624392  0.74403841  1  -1.103797  0  -0.382692  -0.496931  0  2.200064  0
