# generated using pymatgen
data_ZnH8C6(N3O2)3
_symmetry_space_group_name_H-M   'P 1'
_cell_length_a   9.02163843
_cell_length_b   9.53263673
_cell_length_c   10.62465237
_cell_angle_alpha   106.86796616
_cell_angle_beta   98.82260884
_cell_angle_gamma   124.89040016
_symmetry_Int_Tables_number   1
_chemical_formula_structural   ZnH8C6(N3O2)3
_chemical_formula_sum   'Zn2 H16 C12 N18 O12'
_cell_volume   655.18968026
_cell_formula_units_Z   2
loop_
 _symmetry_equiv_pos_site_id
 _symmetry_equiv_pos_as_xyz
  1  'x, y, z'
loop_
 _atom_site_type_symbol
 _atom_site_label
 _atom_site_symmetry_multiplicity
 _atom_site_fract_x
 _atom_site_fract_y
 _atom_site_fract_z
 _atom_site_occupancy
 _atom_site_pbe_bader_spin_density
 _atom_site_pbe_cm5_charge
 _atom_site_pbe_ddec_charge
 _atom_site_pbe_ddec_spin_density
 _atom_site_pbe_ddec_sum_bond_order
 _atom_site_pbe_magmom
Zn  Zn0  1  0.89610420  0.04252926  0.29500690  1  0  0.684762  0.909549  0  2.306314  0
Zn  Zn1  1  0.10389478  0.95746937  0.70499496  1  0  0.684815  0.909618  0  2.306269  0
H  H2  1  0.78789802  0.88163118  0.46063308  1  0  0.295462  0.397291  0  0.941171  0
H  H3  1  0.21210989  0.11836561  0.53936645  1  0  0.295475  0.397306  0  0.941151  0
H  H4  1  0.66744195  0.70401667  0.30111903  1  0  0.297153  0.365842  0  0.973346  0
H  H5  1  0.33256506  0.29598808  0.69888239  1  0  0.297125  0.365787  0  0.973429  0
H  H6  1  0.01965456  0.36161553  0.47971350  1  0  0.29742  0.390645  0  0.938392  0
H  H7  1  0.98036188  0.63839331  0.52029655  1  0  0.297389  0.390618  0  0.938443  0
H  H8  1  0.91112502  0.22644051  0.55418930  1  0  0.295386  0.397982  0  0.928783  0
H  H9  1  0.08889050  0.77356683  0.44581934  1  0  0.295356  0.397924  0  0.928857  0
H  H10  1  0.12857481  0.51769457  0.11864220  1  0  0.134139  0.150785  0  0.96398  0
H  H11  1  0.87142547  0.48231922  0.88136831  1  0  0.134163  0.150822  0  0.963976  0
H  H12  1  0.36017199  0.66029219  0.26903110  1  0  0.132973  0.15979  0  0.971414  0
H  H13  1  0.63983637  0.33971122  0.73096731  1  0  0.132977  0.159854  0  0.971388  0
H  H14  1  0.59315175  0.77469006  0.71294233  1  0  0.136473  0.155396  0  0.946901  0
H  H15  1  0.40685759  0.22530779  0.28704914  1  0  0.136428  0.155359  0  0.946971  0
H  H16  1  0.81728648  0.97330060  0.87072190  1  0  0.128029  0.141729  0  0.997992  0
H  H17  1  0.18271256  0.02669416  0.12928183  1  0  0.128013  0.141696  0  0.998017  0
C  C18  1  0.53813867  0.16082366  0.94085382  1  0  0.325743  0.378759  0  4.133868  0
C  C19  1  0.46184895  0.83916390  0.05913653  1  0  0.325695  0.378787  0  4.133806  0
C  C20  1  0.42522054  0.31588461  0.03652223  1  0  0.326032  0.379367  0  4.147979  0
C  C21  1  0.57478517  0.68411049  0.96347476  1  0  0.326112  0.379792  0  4.14795  0
C  C22  1  0.22744422  0.51348634  0.18823639  1  0  -0.041227  -0.271354  0  3.802363  0
C  C23  1  0.77255192  0.48652037  0.81177379  1  0  -0.041234  -0.271375  0  3.802123  0
C  C24  1  0.11455409  0.39476322  0.26397583  1  0  0.215717  0.620612  0  4.173764  0
C  C25  1  0.88545939  0.60526145  0.73603880  1  0  0.215706  0.620501  0  4.173829  0
C  C26  1  0.79552154  0.02418405  0.68475826  1  0  0.224633  0.62259  0  4.173183  0
C  C27  1  0.20447923  0.97579399  0.31525183  1  0  0.224856  0.62286  0  4.172793  0
C  C28  1  0.70152963  0.93221270  0.77866083  1  0  -0.046827  -0.289977  0  3.868911  0
C  C29  1  0.29847567  0.06778365  0.22133549  1  0  -0.0468  -0.289911  0  3.868497  0
N  N30  1  0.37108010  0.00450744  0.81441672  1  0  -0.171117  -0.24147  0  3.384449  0
N  N31  1  0.62888806  0.99546288  0.18556158  1  0  -0.170971  -0.24117  0  3.384744  0
N  N32  1  0.41144509  0.90201055  0.74680685  1  0  -0.029798  -0.014921  0  3.035359  0
N  N33  1  0.58852419  0.09795198  0.25317245  1  0  -0.029991  -0.015231  0  3.036525  0
N  N34  1  0.59987020  0.99339599  0.83073874  1  0  0.007018  0.29686  0  3.841272  0
N  N35  1  0.40014083  0.00659453  0.16926144  1  0  0.007083  0.296952  0  3.842074  0
N  N36  1  0.68462454  0.15160942  0.94914651  1  0  -0.164503  -0.261856  0  2.99549  0
N  N37  1  0.31536855  0.84838705  0.05085136  1  0  -0.16455  -0.261982  0  2.995517  0
N  N38  1  0.56417783  0.30115826  0.04520305  1  0  -0.29363  -0.383962  0  3.248992  0
N  N39  1  0.43579710  0.69882744  0.95477700  1  0  -0.29372  -0.384361  0  3.248302  0
N  N40  1  0.44793360  0.45068676  0.14923913  1  0  -0.163713  -0.271091  0  3.069981  0
N  N41  1  0.55207874  0.54932127  0.85076368  1  0  -0.163792  -0.271282  0  3.070292  0
N  N42  1  0.28597701  0.42413800  0.09946219  1  0  0.008848  0.303959  0  3.81425  0
N  N43  1  0.71402489  0.57587467  0.90054916  1  0  0.008768  0.303939  0  3.815389  0
N  N44  1  0.16198695  0.28138689  0.96339811  1  0  -0.035502  -0.02985  0  3.092743  0
N  N45  1  0.83797677  0.71859730  0.03657565  1  0  -0.03538  -0.029607  0  3.093181  0
N  N46  1  0.24597275  0.21251210  0.92261479  1  0  -0.172174  -0.242881  0  3.344065  0
N  N47  1  0.75398132  0.78746549  0.07735347  1  0  -0.172302  -0.243248  0  3.344616  0
O  O48  1  0.09212096  0.47769792  0.36335911  1  0  -0.286232  -0.491554  0  2.119874  0
O  O49  1  0.90791232  0.52232613  0.63665465  1  0  -0.286245  -0.49156  0  2.119773  0
O  O50  1  0.05724711  0.22451016  0.21434575  1  0  -0.331648  -0.588558  0  2.343652  0
O  O51  1  0.94275223  0.77550372  0.78566845  1  0  -0.331656  -0.588542  0  2.343848  0
O  O52  1  0.71686567  0.83551004  0.35607142  1  0  -0.581662  -0.763719  0  2.206665  0
O  O53  1  0.28314630  0.16449143  0.64393349  1  0  -0.581679  -0.763726  0  2.20667  0
O  O54  1  0.99250287  0.25401303  0.49656015  1  0  -0.575805  -0.750745  0  2.143034  0
O  O55  1  0.00750199  0.74598774  0.50344570  1  0  -0.575729  -0.750685  0  2.143034  0
O  O56  1  0.87717203  0.96228180  0.63034251  1  0  -0.323745  -0.565968  0  2.362653  0
O  O57  1  0.12282989  0.03773322  0.36966283  1  0  -0.32391  -0.566214  0  2.36221  0
O  O58  1  0.78003418  0.13743224  0.66363697  1  0  -0.292148  -0.503163  0  2.136998  0
O  O59  1  0.21998436  0.86259389  0.33637009  1  0  -0.292062  -0.503005  0  2.137762  0
