# generated using pymatgen
data_Zn4H16C40Br4O21
_symmetry_space_group_name_H-M   'P 1'
_cell_length_a   23.86010542
_cell_length_b   23.86145931
_cell_length_c   23.85985298
_cell_angle_alpha   66.85629082
_cell_angle_beta   72.33829314
_cell_angle_gamma   107.66994803
_symmetry_Int_Tables_number   1
_chemical_formula_structural   Zn4H16C40Br4O21
_chemical_formula_sum   'Zn8 H32 C80 Br8 O42'
_cell_volume   10424.99065592
_cell_formula_units_Z   2
loop_
 _symmetry_equiv_pos_site_id
 _symmetry_equiv_pos_as_xyz
  1  'x, y, z'
loop_
 _atom_site_type_symbol
 _atom_site_label
 _atom_site_symmetry_multiplicity
 _atom_site_fract_x
 _atom_site_fract_y
 _atom_site_fract_z
 _atom_site_occupancy
 _atom_site_pbe_bader_charge
 _atom_site_pbe_bader_spin_density
 _atom_site_pbe_cm5_charge
 _atom_site_pbe_ddec_charge
 _atom_site_pbe_ddec_spin_density
 _atom_site_pbe_ddec_sum_bond_order
 _atom_site_pbe_magmom
Zn  Zn0  1  0.05778105  0.95819499  0.48403607  1  1.321384  0  0.675252  0.971267  0  2.369503  0
Zn  Zn1  1  0.05777860  0.09959005  0.45819349  1  1.321197  0  0.675396  0.971523  0  2.369068  0
Zn  Zn2  1  0.94221440  0.98403445  0.45818592  1  1.321276  0  0.675384  0.97161  0  2.369198  0
Zn  Zn3  1  0.94223048  0.95819145  0.59959054  1  1.321353  0  0.675327  0.971414  0  2.369306  0
Zn  Zn4  1  0.94221879  0.54180669  0.01596463  1  1.321347  0  0.675278  0.97136  0  2.36942  0
Zn  Zn5  1  0.05778703  0.51596728  0.04181176  1  1.321235  0  0.675344  0.971505  0  2.369151  0
Zn  Zn6  1  0.94221939  0.40040999  0.04181138  1  1.321305  0  0.675378  0.971515  0  2.369138  0
Zn  Zn7  1  0.05776832  0.54180566  0.90041004  1  1.321198  0  0.675335  0.971445  0  2.369261  0
H  H8  1  0.92336522  0.65231999  0.11243413  1  0.134591  0  0.116543  0.147627  0  0.981071  0
H  H9  1  0.07663235  0.61242249  0.15235849  1  0.1344  0  0.116472  0.147543  0  0.980927  0
H  H10  1  0.92336832  0.88757066  0.34764532  1  0.134326  0  0.116533  0.14763  0  0.981049  0
H  H11  1  0.07658504  0.84761296  0.38763466  1  0.135092  0  0.116668  0.147663  0  0.980832  0
H  H12  1  0.07664676  0.46417936  0.77105149  1  0.139275  0  0.116529  0.147628  0  0.980908  0
H  H13  1  0.92337427  0.27101341  0.96421771  1  0.138462  0  0.116581  0.147676  0  0.980824  0
H  H14  1  0.07658755  0.22897711  0.53579294  1  0.138466  0  0.116546  0.147533  0  0.980994  0
H  H15  1  0.92336682  0.03579893  0.72897052  1  0.138586  0  0.116554  0.147612  0  0.981113  0
H  H16  1  0.73523431  0.46419847  0.11240067  1  0.133823  0  0.116523  0.147521  0  0.981058  0
H  H17  1  0.73522741  0.27101906  0.15236227  1  0.126871  0  0.116495  0.14753  0  0.981068  0
H  H18  1  0.26477255  0.22898345  0.34763307  1  0.12681  0  0.116495  0.147543  0  0.981047  0
H  H19  1  0.26476668  0.03581695  0.38752933  1  0.134892  0  0.116522  0.147574  0  0.980973  0
H  H20  1  0.26477507  0.61238562  0.96419857  1  0.133991  0  0.116569  0.147461  0  0.980945  0
H  H21  1  0.26475992  0.65235432  0.77101099  1  0.126758  0  0.116635  0.147675  0  0.980742  0
H  H22  1  0.73524097  0.84764228  0.72898622  1  0.12677  0  0.116621  0.147737  0  0.980712  0
H  H23  1  0.73522094  0.88754470  0.53581410  1  0.134266  0  0.116517  0.147628  0  0.980876  0
H  H24  1  0.07988956  0.70057127  0.24212527  1  0.575513  0  0.31843  0.340948  0  0.925298  0
H  H25  1  0.92009354  0.74208290  0.20058293  1  0.576397  0  0.318324  0.340375  0  0.926152  0
H  H26  1  0.07983142  0.75781958  0.29951475  1  0.576626  0  0.318644  0.341059  0  0.925437  0
H  H27  1  0.92012831  0.79944842  0.25785322  1  0.575704  0  0.318536  0.341136  0  0.925311  0
H  H28  1  0.92010494  0.17798837  0.87932677  1  0.574794  0  0.318449  0.340992  0  0.925311  0
H  H29  1  0.07990136  0.37929316  0.67802251  1  0.575345  0  0.318399  0.34073  0  0.925724  0
H  H30  1  0.92012735  0.12067529  0.82200885  1  0.574005  0  0.318438  0.340927  0  0.925563  0
H  H31  1  0.07983437  0.32200721  0.62067863  1  0.574215  0  0.318542  0.340991  0  0.925241  0
H  H32  1  0.55731222  0.17798733  0.24214948  1  0.588665  0  0.318493  0.341072  0  0.925466  0
H  H33  1  0.55731965  0.37932023  0.20052312  1  0.595324  0  0.318484  0.340871  0  0.925638  0
H  H34  1  0.44268168  0.12070330  0.29938096  1  0.595088  0  0.318341  0.340644  0  0.926152  0
H  H35  1  0.44268775  0.32200951  0.25786905  1  0.588174  0  0.318495  0.341018  0  0.925404  0
H  H36  1  0.44267524  0.74214467  0.67797647  1  0.588691  0  0.318482  0.340775  0  0.925895  0
H  H37  1  0.44269019  0.70050739  0.87931780  1  0.595396  0  0.318614  0.341145  0  0.925182  0
H  H38  1  0.55730611  0.79939514  0.62070363  1  0.595262  0  0.318478  0.341019  0  0.925702  0
H  H39  1  0.55732612  0.75787789  0.82201707  1  0.587881  0  0.31847  0.340786  0  0.925822  0
C  C40  1  0.18268133  0.09135211  0.40865199  1  1.556934  0  0.230459  0.60644  0  4.15193  0
C  C41  1  0.99999696  0.13651721  0.36348654  1  1.60992  0  0.229207  0.628827  0  4.124966  0
C  C42  1  0.99998712  0.90865452  0.40866669  1  1.544845  0  0.230538  0.606542  0  4.15171  0
C  C43  1  0.81732044  0.90864828  0.59135466  1  1.556968  0  0.230624  0.606652  0  4.151738  0
C  C44  1  0.00000719  0.86348738  0.63651525  1  1.609201  0  0.229115  0.628659  0  4.125499  0
C  C45  1  0.99999314  0.09134284  0.59133966  1  1.577274  0  0.230531  0.606482  0  4.151702  0
C  C46  1  0.00000182  0.59132848  0.09134760  1  1.545143  0  0.230677  0.606831  0  4.151631  0
C  C47  1  0.99999990  0.36348351  0.13651467  1  1.610511  0  0.229318  0.62899  0  4.125062  0
C  C48  1  0.81731731  0.40864907  0.09133631  1  1.557402  0  0.230575  0.606653  0  4.152063  0
C  C49  1  0.99999685  0.40864333  0.90867461  1  1.577122  0  0.230529  0.606612  0  4.151694  0
C  C50  1  0.99999558  0.63651369  0.86348298  1  1.609214  0  0.229299  0.628978  0  4.125032  0
C  C51  1  0.18267970  0.59133404  0.90864590  1  1.556908  0  0.230568  0.60663  0  4.151794  0
C  C52  1  0.00000357  0.80522247  0.69477574  1  0.067344  0  -0.015912  -0.09956  0  3.842691  0
C  C53  1  0.99999764  0.69477756  0.80522254  1  0.066946  0  -0.015933  -0.099653  0  3.842745  0
C  C54  1  0.95692248  0.77695447  0.76612291  1  0.013697  0  -0.014392  0.049162  0  3.874052  0
C  C55  1  0.04307916  0.72304600  0.73387465  1  0.013977  0  -0.014377  0.049112  0  3.87393  0
C  C56  1  0.95692190  0.72304696  0.82003086  1  -0.080711  0  -0.014408  0.049073  0  3.873978  0
C  C57  1  0.04308018  0.77695395  0.67996639  1  -0.080034  0  -0.014381  0.049036  0  3.873906  0
C  C58  1  0.99999596  0.19477671  0.30522200  1  0.066387  0  -0.01585  -0.099494  0  3.842506  0
C  C59  1  0.00000268  0.30522449  0.19477761  1  0.06708  0  -0.015902  -0.099594  0  3.842712  0
C  C60  1  0.95692107  0.17997092  0.27694530  1  -0.079925  0  -0.014519  0.048793  0  3.874312  0
C  C61  1  0.04307752  0.32003128  0.22305351  1  -0.08001  0  -0.014412  0.048954  0  3.874142  0
C  C62  1  0.95692278  0.23387902  0.22303593  1  0.013623  0  -0.014236  0.049389  0  3.873948  0
C  C63  1  0.04307659  0.26612134  0.27696254  1  0.013629  0  -0.014302  0.049247  0  3.873935  0
C  C64  1  0.99999918  0.62888142  0.12890698  1  -0.009596  0  -0.012543  0.010382  0  4.021482  0
C  C65  1  0.95668854  0.65732260  0.13484938  1  0.045539  0  -0.10364  -0.241893  0  3.95383  0
C  C66  1  0.95666871  0.69220570  0.16973307  1  0.441899  0  0.089818  0.299282  0  4.066791  0
C  C67  1  0.99999102  0.69914742  0.19918234  1  0.189425  0  -0.035947  -0.127993  0  4.150079  0
C  C68  1  0.04331713  0.66970656  0.19224672  1  0.442363  0  0.08951  0.298812  0  4.06723  0
C  C69  1  0.04330342  0.63482894  0.15735929  1  0.04427  0  -0.10338  -0.241483  0  3.954001  0
C  C70  1  0.99999512  0.73453081  0.23455895  1  -0.171907  0  -0.051635  -0.118805  0  4.237558  0
C  C71  1  0.99999196  0.76543605  0.26547271  1  -0.37817  0  -0.051505  -0.118746  0  4.237563  0
C  C72  1  0.99997897  0.80080601  0.30086273  1  0.189056  0  -0.035925  -0.127769  0  4.149718  0
C  C73  1  0.95666723  0.83026563  0.30777867  1  0.441326  0  0.089732  0.299104  0  4.066426  0
C  C74  1  0.95668409  0.86515004  0.34266079  1  0.045172  0  -0.103567  -0.241696  0  3.954005  0
C  C75  1  0.99997997  0.87108921  0.37112312  1  -0.008717  0  -0.012613  0.010364  0  4.021832  0
C  C76  1  0.04327166  0.84262443  0.36520498  1  0.043107  0  -0.103652  -0.241614  0  3.953958  0
C  C77  1  0.04328390  0.80773116  0.33033305  1  0.443343  0  0.089444  0.298547  0  4.067504  0
C  C78  1  0.00000781  0.37108493  0.87112328  1  -0.00776  0  -0.012413  0.01023  0  4.021426  0
C  C79  1  0.04332044  0.40844204  0.79937452  1  0.038968  0  -0.103725  -0.24176  0  3.953704  0
C  C80  1  0.04333710  0.37357865  0.76447396  1  0.491321  0  0.089888  0.299307  0  4.066301  0
C  C81  1  0.00001086  0.30081409  0.80085469  1  0.110319  0  -0.035901  -0.127852  0  4.149758  0
C  C82  1  0.95668586  0.26443196  0.87362094  1  0.49153  0  0.089405  0.298661  0  4.067216  0
C  C83  1  0.95670173  0.29933356  0.90848317  1  0.039488  0  -0.103474  -0.2415  0  3.953925  0
C  C84  1  0.00000165  0.26544224  0.76546795  1  -0.169521  0  -0.051556  -0.11858  0  4.237423  0
C  C85  1  0.99999391  0.23454352  0.73454734  1  -0.375781  0  -0.051531  -0.118953  0  4.237662  0
C  C86  1  0.99997777  0.19916735  0.69916482  1  0.110832  0  -0.035903  -0.127754  0  4.149776  0
C  C87  1  0.04328449  0.23555253  0.62639578  1  0.491644  0  0.089475  0.298702  0  4.067176  0
C  C88  1  0.04327198  0.20065273  0.59153182  1  0.039662  0  -0.103567  -0.241538  0  3.954097  0
C  C89  1  0.99998122  0.12889794  0.62889430  1  -0.007897  0  -0.012473  0.010387  0  4.021562  0
C  C90  1  0.95668146  0.09153550  0.70064880  1  0.037814  0  -0.103615  -0.241728  0  3.95408  0
C  C91  1  0.95666440  0.12639745  0.73555215  1  0.49232  0  0.089731  0.29916  0  4.066797  0
C  C92  1  0.74220894  0.37109870  0.12889412  1  -0.029239  0  -0.012665  0.010243  0  4.021663  0
C  C93  1  0.70781840  0.40846088  0.13482392  1  0.063572  0  -0.103399  -0.241455  0  3.954116  0
C  C94  1  0.63805494  0.37360026  0.16969997  1  0.474064  0  0.089543  0.298819  0  4.067186  0
C  C95  1  0.60166872  0.30083217  0.19915920  1  0.10085  0  -0.03592  -0.127731  0  4.149834  0
C  C96  1  0.63804857  0.26444261  0.19223941  1  0.57467  0  0.089602  0.29889  0  4.067044  0
C  C97  1  0.70781445  0.29934208  0.15735611  1  -0.039653  0  -0.103445  -0.241493  0  3.953907  0
C  C98  1  0.53091003  0.26545941  0.23453516  1  -0.423062  0  -0.051562  -0.118862  0  4.237511  0
C  C99  1  0.46909015  0.23455890  0.26543419  1  -0.107729  0  -0.051591  -0.118792  0  4.237557  0
C  C100  1  0.39833183  0.19918285  0.30079708  1  0.110357  0  -0.035835  -0.127816  0  4.149588  0
C  C101  1  0.36194956  0.23556482  0.30773904  1  0.564964  0  0.089497  0.298857  0  4.067113  0
C  C102  1  0.29218381  0.20066236  0.34262892  1  -0.039226  0  -0.103447  -0.241568  0  3.953987  0
C  C103  1  0.25779212  0.12891009  0.37107830  1  -0.02881  0  -0.012369  0.010488  0  4.021211  0
C  C104  1  0.29218259  0.09155456  0.36512032  1  0.062397  0  -0.1038  -0.241876  0  3.953783  0
C  C105  1  0.36194733  0.12641749  0.33023502  1  0.474311  0  0.089892  0.299387  0  4.066284  0
C  C106  1  0.25778939  0.62888574  0.87109345  1  -0.029047  0  -0.012522  0.010583  0  4.021253  0
C  C107  1  0.29218535  0.63481139  0.90845674  1  0.063896  0  -0.103546  -0.241494  0  3.953829  0
C  C108  1  0.36194897  0.66968416  0.87359682  1  0.473963  0  0.0895  0.298542  0  4.067001  0
C  C109  1  0.39832959  0.69914756  0.80082688  1  0.100555  0  -0.035981  -0.126647  0  4.148233  0
C  C110  1  0.36194412  0.69222773  0.76443616  1  0.574685  0  0.089536  0.298315  0  4.066701  0
C  C111  1  0.29217662  0.65734435  0.79933790  1  -0.040324  0  -0.103539  -0.2417  0  3.95378  0
C  C112  1  0.46908956  0.73453305  0.76545390  1  -0.111246  0  -0.05152  -0.119149  0  4.237247  0
C  C113  1  0.53090931  0.76543656  0.73456001  1  -0.419127  0  -0.051541  -0.11914  0  4.237284  0
C  C114  1  0.60166917  0.80080893  0.69918386  1  0.110004  0  -0.035916  -0.126712  0  4.148276  0
C  C115  1  0.63805892  0.80775126  0.73556693  1  0.565303  0  0.089497  0.298494  0  4.06697  0
C  C116  1  0.70782373  0.84263869  0.70066230  1  -0.039778  0  -0.103644  -0.241873  0  3.953985  0
C  C117  1  0.74221099  0.87108590  0.62890915  1  -0.029025  0  -0.012534  0.010427  0  4.021415  0
C  C118  1  0.70781208  0.86513337  0.59155399  1  0.06352  0  -0.103582  -0.241844  0  3.953653  0
C  C119  1  0.63804750  0.83025130  0.62641704  1  0.474545  0  0.089866  0.298978  0  4.066326  0
Br  Br120  1  0.89621927  0.80888118  0.79489564  1  0.02467  0  0.039215  -0.019171  0  1.605244  0
Br  Br121  1  0.10378546  0.69112237  0.70510186  1  0.024708  0  0.039196  -0.019173  0  1.605229  0
Br  Br122  1  0.89622122  0.69112063  0.91266226  1  0.030396  0  0.0392  -0.019182  0  1.6052  0
Br  Br123  1  0.10378359  0.80888093  0.58733601  1  0.030309  0  0.039169  -0.019189  0  1.605228  0
Br  Br124  1  0.89621818  0.08734235  0.30886095  1  0.025112  0  0.039167  -0.019129  0  1.605183  0
Br  Br125  1  0.10377929  0.41265924  0.19113802  1  0.026137  0  0.039148  -0.019171  0  1.605212  0
Br  Br126  1  0.89622569  0.20510716  0.19109357  1  0.029897  0  0.039143  -0.019251  0  1.605065  0
Br  Br127  1  0.10377937  0.29489421  0.30889942  1  0.029006  0  0.039155  -0.019236  0  1.605102  0
O  O128  1  0.00000004  0.00000244  0.49999914  1  -1.234031  0  -0.572084  -1.030537  0  2.530995  0
O  O129  1  0.15366952  0.02625749  0.43235640  1  -1.16048  0  -0.312564  -0.543383  0  2.339116  0
O  O130  1  0.03980312  0.15381427  0.38597781  1  -1.177368  0  -0.313842  -0.541245  0  2.487305  0
O  O131  1  0.95859255  0.93235463  0.41397437  1  -1.162181  0  -0.312832  -0.543798  0  2.338544  0
O  O132  1  0.15366981  0.12742666  0.41397622  1  -1.161867  0  -0.312733  -0.543573  0  2.338934  0
O  O133  1  0.04138395  0.91397721  0.43236367  1  -1.161714  0  -0.312533  -0.543263  0  2.338914  0
O  O134  1  0.96017996  0.07421508  0.38599205  1  -1.176973  0  -0.314014  -0.541505  0  2.486844  0
O  O135  1  0.84632978  0.93235186  0.52625641  1  -1.160409  0  -0.312624  -0.543562  0  2.338938  0
O  O136  1  0.96021442  0.88598952  0.65381404  1  -1.176896  0  -0.313845  -0.541271  0  2.487364  0
O  O137  1  0.84633803  0.91396630  0.62743011  1  -1.162049  0  -0.312862  -0.543592  0  2.338791  0
O  O138  1  0.03980907  0.88598598  0.57421514  1  -1.177022  0  -0.313877  -0.541223  0  2.487033  0
O  O139  1  0.04138485  0.12742198  0.52624981  1  -1.178229  0  -0.312651  -0.543461  0  2.338908  0
O  O140  1  0.95860773  0.02624686  0.62742376  1  -1.177751  0  -0.312745  -0.543576  0  2.33884  0
O  O141  1  0.99999996  0.49999908  0.00000119  1  -1.234027  0  -0.572106  -1.030504  0  2.530889  0
O  O142  1  0.95860369  0.58600918  0.06765177  1  -1.162099  0  -0.312608  -0.543501  0  2.339225  0
O  O143  1  0.03982004  0.42578644  0.11400660  1  -1.176966  0  -0.314058  -0.541537  0  2.486831  0
O  O144  1  0.84632755  0.37257222  0.08602218  1  -1.161938  0  -0.312779  -0.543698  0  2.339018  0
O  O145  1  0.04140266  0.56763723  0.08603160  1  -1.162139  0  -0.312818  -0.543729  0  2.338424  0
O  O146  1  0.84633092  0.47374445  0.06763147  1  -1.160619  0  -0.312677  -0.543514  0  2.339013  0
O  O147  1  0.96019186  0.34618641  0.11402772  1  -1.178021  0  -0.313872  -0.541352  0  2.487441  0
O  O148  1  0.95860235  0.37256583  0.97376469  1  -1.17824  0  -0.312834  -0.543598  0  2.338578  0
O  O149  1  0.03978415  0.61400787  0.84618399  1  -1.176842  0  -0.31388  -0.541321  0  2.487178  0
O  O150  1  0.04138422  0.47373737  0.87259113  1  -1.177556  0  -0.312589  -0.54351  0  2.339318  0
O  O151  1  0.96019898  0.61402037  0.92578402  1  -1.177008  0  -0.313984  -0.541425  0  2.486795  0
O  O152  1  0.15367171  0.56763649  0.97374136  1  -1.160392  0  -0.312628  -0.543504  0  2.338935  0
O  O153  1  0.15366291  0.58601889  0.87256782  1  -1.161776  0  -0.312845  -0.543764  0  2.33882  0
O  O154  1  0.08591061  0.67489273  0.21952621  1  -1.09405  0  -0.348565  -0.420992  0  2.239404  0
O  O155  1  0.91407675  0.71947932  0.17490562  1  -1.094687  0  -0.34849  -0.420449  0  2.240222  0
O  O156  1  0.08586173  0.78043408  0.32518073  1  -1.09478  0  -0.348548  -0.420794  0  2.23981  0
O  O157  1  0.91409114  0.82510202  0.28047748  1  -1.09403  0  -0.3487  -0.421298  0  2.239439  0
O  O158  1  0.91408865  0.19456539  0.91102819  1  -1.104204  0  -0.34849  -0.420983  0  2.239317  0
O  O159  1  0.08592503  0.41098962  0.69460531  1  -1.104898  0  -0.34867  -0.420963  0  2.239536  0
O  O160  1  0.91409037  0.08898373  0.80542144  1  -1.103313  0  -0.34858  -0.421035  0  2.239753  0
O  O161  1  0.08586441  0.30542574  0.58898151  1  -1.103315  0  -0.348575  -0.420884  0  2.23934  0
O  O162  1  0.60559078  0.19457165  0.21953418  1  -1.110206  0  -0.348614  -0.421127  0  2.239593  0
O  O163  1  0.60559780  0.41101352  0.17486411  1  -1.116542  0  -0.348583  -0.420832  0  2.239617  0
O  O164  1  0.39440313  0.08900859  0.32505405  1  -1.116662  0  -0.348589  -0.420865  0  2.240157  0
O  O165  1  0.39440981  0.30543203  0.28046512  1  -1.109809  0  -0.348593  -0.421024  0  2.239525  0
O  O166  1  0.39439614  0.71952395  0.69456265  1  -1.110096  0  -0.34851  -0.420695  0  2.240031  0
O  O167  1  0.39441148  0.67484420  0.91101335  1  -1.116518  0  -0.348701  -0.421209  0  2.239518  0
O  O168  1  0.60558474  0.82507074  0.58900658  1  -1.117032  0  -0.348753  -0.421271  0  2.239842  0
O  O169  1  0.60560590  0.78047795  0.80543631  1  -1.10914  0  -0.348494  -0.420744  0  2.239969  0
