# generated using pymatgen
data_Co3H30C28(N5O)4
_symmetry_space_group_name_H-M   'P 1'
_cell_length_a   6.77223138
_cell_length_b   12.80131499
_cell_length_c   20.91171487
_cell_angle_alpha   90.00031275
_cell_angle_beta   89.99887664
_cell_angle_gamma   101.11157251
_symmetry_Int_Tables_number   1
_chemical_formula_structural   Co3H30C28(N5O)4
_chemical_formula_sum   'Co6 H60 C56 N40 O8'
_cell_volume   1778.92383323
_cell_formula_units_Z   2
loop_
 _symmetry_equiv_pos_site_id
 _symmetry_equiv_pos_as_xyz
  1  'x, y, z'
loop_
 _atom_site_type_symbol
 _atom_site_label
 _atom_site_symmetry_multiplicity
 _atom_site_fract_x
 _atom_site_fract_y
 _atom_site_fract_z
 _atom_site_occupancy
 _atom_site_pbe_bader_charge
 _atom_site_pbe_bader_spin_density
 _atom_site_pbe_cm5_charge
 _atom_site_pbe_ddec_charge
 _atom_site_pbe_ddec_spin_density
 _atom_site_pbe_ddec_sum_bond_order
 _atom_site_pbe_magmom
Co  Co0  1  0.50001167  0.99998319  0.50002270  1  1.246384  2.574105  0.692693  0.716996  2.783102  2.660219  2.554
Co  Co1  1  0.00002381  0.49997827  0.99997335  1  1.246461  2.574173  0.692842  0.71718  2.783182  2.660428  2.555
Co  Co2  1  0.01286639  0.04069291  0.44334865  1  1.189773  2.563896  0.620532  0.732799  2.776813  2.615391  2.547
Co  Co3  1  0.48717661  0.45927132  0.94323655  1  1.188628  2.564115  0.62113  0.733241  2.777287  2.617121  2.547
Co  Co4  1  0.98715665  0.95928762  0.55677683  1  1.188044  2.564175  0.621206  0.73341  2.777422  2.617108  2.547
Co  Co5  1  0.51286334  0.54066593  0.05664791  1  1.189527  2.563805  0.620589  0.732825  2.776784  2.615509  2.547
H  H6  1  0.75633535  0.86596456  0.47120432  1  0.629736  0.0001  0.27972  0.346598  0.000324  1.012439  0.001
H  H7  1  0.74376137  0.63393653  0.97104915  1  0.62815  0.000106  0.279543  0.346423  0.000324  1.01329  0.001
H  H8  1  0.24374858  0.13395313  0.52894029  1  0.628096  0.000104  0.279466  0.34634  0.000322  1.013464  0.001
H  H9  1  0.25627855  0.36596318  0.02878415  1  0.630055  9.8e-05  0.279859  0.346772  0.000321  1.012166  0.001
H  H10  1  0.34588913  0.19628111  0.41858279  1  0.634542  0.000416  0.285538  0.340873  0.000396  1.022064  0.001
H  H11  1  0.15413243  0.30368485  0.91851819  1  0.635491  0.000414  0.285603  0.340703  0.000396  1.022359  0.001
H  H12  1  0.65410589  0.80373321  0.58147287  1  0.635241  0.000416  0.285583  0.340687  0.000397  1.022327  0.001
H  H13  1  0.84588274  0.69623824  0.08141362  1  0.634566  0.000416  0.285506  0.340821  0.000397  1.022129  0.001
H  H14  1  0.14105139  0.22928634  0.40022632  1  0.630325  -0.000325  0.293394  0.349942  -0.000299  1.001305  0.0
H  H15  1  0.35885537  0.27053920  0.90019091  1  0.629269  -0.000321  0.293387  0.349757  -0.000297  1.001607  0.0
H  H16  1  0.85883575  0.77057796  0.59979157  1  0.629755  -0.000322  0.293506  0.349998  -0.000297  1.001272  0.0
H  H17  1  0.64102907  0.72925084  0.09976576  1  0.630186  -0.000324  0.293345  0.349981  -0.000299  1.001279  0.0
H  H18  1  0.87756171  0.79044301  0.38930952  1  0.455875  -1.7e-05  0.288861  0.265515  -0.000239  1.034314  0.0
H  H19  1  0.62247460  0.70956945  0.88934522  1  0.455473  -1.6e-05  0.288827  0.265286  -0.000239  1.034594  0.0
H  H20  1  0.12243310  0.20957451  0.61063951  1  0.455229  -1.7e-05  0.288784  0.265279  -0.00024  1.034578  0.0
H  H21  1  0.37753002  0.29042801  0.11067027  1  0.455468  -1.7e-05  0.288892  0.265374  -0.00024  1.034698  0.0
H  H22  1  0.62581865  0.77063405  0.40095113  1  0.447243  1e-05  0.286671  0.262801  -8.1e-05  1.039341  0.0
H  H23  1  0.87421274  0.72938647  0.90097717  1  0.447344  1e-05  0.286706  0.262647  -8e-05  1.039322  0.0
H  H24  1  0.37417485  0.22940265  0.59900842  1  0.447942  9e-06  0.286767  0.262811  -8.1e-05  1.039231  0.0
H  H25  1  0.12579197  0.27061498  0.09905410  1  0.447156  1e-05  0.286649  0.262716  -8.1e-05  1.039363  0.0
H  H26  1  0.19761654  0.46675985  0.13955878  1  0.480879  -3.9e-05  0.292503  0.271125  -4.1e-05  1.026044  0.0
H  H27  1  0.30231556  0.03322463  0.63955879  1  0.480573  -3.7e-05  0.292489  0.271011  -3.9e-05  1.026167  0.0
H  H28  1  0.80237066  0.53322339  0.86043472  1  0.480417  -3.8e-05  0.292587  0.271168  -3.9e-05  1.026002  0.0
H  H29  1  0.69758196  0.96676339  0.36043757  1  0.480676  -3.9e-05  0.292455  0.271103  -4e-05  1.026049  0.0
H  H30  1  0.42179369  0.45979596  0.17066741  1  0.472342  -0.000768  0.29505  0.269694  -0.00076  1.023245  -0.001
H  H31  1  0.07836834  0.04030080  0.67075686  1  0.471087  -0.000768  0.295087  0.269617  -0.00076  1.023511  -0.001
H  H32  1  0.57841773  0.54030273  0.82923523  1  0.470796  -0.000767  0.295052  0.269634  -0.000759  1.023304  -0.001
H  H33  1  0.92175578  0.95981623  0.32932128  1  0.471809  -0.000767  0.295118  0.269846  -0.00076  1.023215  -0.001
H  H34  1  0.07772777  0.65727888  0.40983143  1  0.056001  1.2e-05  0.097275  0.107289  -3.3e-05  1.013377  0.0
H  H35  1  0.42232620  0.84270059  0.90991493  1  0.053574  1.3e-05  0.097339  0.107201  -3.3e-05  1.013289  0.0
H  H36  1  0.92227444  0.34271621  0.59011425  1  0.056357  1.2e-05  0.097345  0.10734  -3.3e-05  1.013103  0.0
H  H37  1  0.57768407  0.15725129  0.09018329  1  0.056175  1.2e-05  0.097253  0.10733  -3.3e-05  1.013273  0.0
H  H38  1  0.43024033  0.59448403  0.42270146  1  0.081247  -5.1e-05  0.100897  0.112791  -7.2e-05  1.002986  0.0
H  H39  1  0.06979616  0.90549802  0.92273672  1  0.080416  -5e-05  0.100911  0.112749  -7.2e-05  1.002863  0.0
H  H40  1  0.56975851  0.40551748  0.57728200  1  0.081008  -5.1e-05  0.100979  0.112735  -7.2e-05  1.002969  0.0
H  H41  1  0.93019655  0.09445802  0.07733281  1  0.08082  -5e-05  0.100898  0.112838  -7.2e-05  1.00307  0.0
H  H42  1  0.07605972  0.46450297  0.42031279  1  0.072107  5.9e-05  0.103407  0.104272  1.8e-05  1.008026  0.0
H  H43  1  0.42397913  0.03548840  0.92040865  1  0.071825  5.9e-05  0.103343  0.104005  1.8e-05  1.008088  0.0
H  H44  1  0.92393836  0.53550414  0.57961854  1  0.07232  5.9e-05  0.103378  0.104187  1.8e-05  1.008033  0.0
H  H45  1  0.57602282  0.96447234  0.07971492  1  0.07162  5.9e-05  0.10341  0.104382  1.8e-05  1.007944  0.0
H  H46  1  0.42930657  0.40219212  0.43367155  1  0.098391  0.000246  0.103567  0.104583  0.000109  1.010153  0.0
H  H47  1  0.07071528  0.09781061  0.93371868  1  0.098317  0.000246  0.103449  0.104528  0.000109  1.0103  0.0
H  H48  1  0.57067446  0.59782791  0.56630378  1  0.098694  0.000246  0.103484  0.104471  0.000109  1.010302  0.0
H  H49  1  0.92925785  0.90216317  0.06637477  1  0.098735  0.000246  0.103415  0.10445  0.000109  1.010087  0.0
H  H50  1  0.99652708  0.74954793  0.24635045  1  0.081734  0.000132  0.104906  0.108175  -2.7e-05  0.999661  0.0
H  H51  1  0.50349700  0.75049387  0.74636935  1  0.082084  0.000132  0.104862  0.108271  -2.7e-05  0.99945  0.0
H  H52  1  0.00340200  0.25043023  0.75362775  1  0.082058  0.000132  0.104929  0.108196  -2.7e-05  0.999722  0.0
H  H53  1  0.49651471  0.24958899  0.25365906  1  0.081538  0.000132  0.104883  0.108112  -2.7e-05  0.999785  0.0
H  H54  1  0.60591502  0.74776613  0.30602637  1  0.057543  9.6e-05  0.101425  0.093697  -1.8e-05  1.051438  0.0
H  H55  1  0.89417383  0.75232556  0.80610736  1  0.056821  9.7e-05  0.101536  0.094067  -1.7e-05  1.051246  0.0
H  H56  1  0.39413091  0.25234359  0.69389588  1  0.056791  9.7e-05  0.101564  0.094224  -1.7e-05  1.051044  0.0
H  H57  1  0.10589712  0.24778395  0.19398895  1  0.057856  9.7e-05  0.101534  0.093792  -1.7e-05  1.051165  0.0
H  H58  1  0.01660841  0.60689784  0.16900911  1  0.08419  0.00011  0.103303  0.118865  -0.000162  1.018334  0.0
H  H59  1  0.48335846  0.89314575  0.66901493  1  0.08421  0.00011  0.103287  0.118834  -0.000162  1.018392  0.0
H  H60  1  0.98335449  0.39309121  0.83098822  1  0.084463  0.00011  0.103413  0.118919  -0.000162  1.018353  0.0
H  H61  1  0.51656369  0.10693470  0.33099866  1  0.084355  0.000109  0.103335  0.118822  -0.000162  1.018121  0.0
H  H62  1  0.62416334  0.60343969  0.23003756  1  0.077172  -8e-06  0.107654  0.122518  -0.000194  0.985499  0.0
H  H63  1  0.87587836  0.89663308  0.73009333  1  0.076834  -7e-06  0.107751  0.122576  -0.000194  0.985512  0.0
H  H64  1  0.37589060  0.39666038  0.76991434  1  0.076571  -7e-06  0.107812  0.122683  -0.000194  0.985535  0.0
H  H65  1  0.12413268  0.10347056  0.26998433  1  0.077482  -8e-06  0.107625  0.122497  -0.000194  0.985633  0.0
C  C66  1  0.75414418  0.63958161  0.41634139  1  0.396781  0.002493  0.095646  0.303215  0.00128  4.054328  0.001
C  C67  1  0.74588688  0.86041419  0.91639500  1  0.397428  0.00249  0.095755  0.303041  0.001279  4.054082  0.001
C  C68  1  0.24584696  0.36043035  0.58359998  1  0.396947  0.002491  0.095712  0.303158  0.001279  4.053815  0.001
C  C69  1  0.25410811  0.13956260  0.08366450  1  0.395969  0.002495  0.095761  0.303406  0.00128  4.054198  0.001
C  C70  1  0.93550424  0.60098448  0.41470818  1  -0.022265  0.001295  -0.106742  -0.19866  0.000665  3.978141  0.001
C  C71  1  0.56452430  0.89900095  0.91479510  1  -0.020033  0.001295  -0.106626  -0.198177  0.000665  3.978519  0.001
C  C72  1  0.06448713  0.39901310  0.58521981  1  -0.022437  0.001295  -0.10657  -0.198196  0.000664  3.977973  0.001
C  C73  1  0.43546178  0.10096073  0.08530217  1  -0.021026  0.001294  -0.106686  -0.198635  0.000664  3.978271  0.001
C  C74  1  0.57184697  0.56588969  0.42177230  1  -0.014989  0.000809  -0.105012  -0.199213  0.000387  3.985099  0.0
C  C75  1  0.92818661  0.93410211  0.92181351  1  -0.014209  0.000802  -0.104949  -0.198747  0.000383  3.984732  0.0
C  C76  1  0.42814398  0.43411429  0.57819251  1  -0.014725  0.000801  -0.105096  -0.199049  0.000383  3.985493  0.0
C  C77  1  0.07180073  0.06586276  0.07824980  1  -0.014351  0.000809  -0.104979  -0.199377  0.000387  3.985713  0.0
C  C78  1  0.93449970  0.49302675  0.42036368  1  -0.050619  0.001144  -0.085626  -0.088855  0.000598  4.002477  0.001
C  C79  1  0.56553434  0.00694722  0.92045597  1  -0.050823  0.001141  -0.086115  -0.089413  0.000597  4.003368  0.001
C  C80  1  0.06548706  0.50696288  0.57956048  1  -0.052024  0.001142  -0.086013  -0.08964  0.000597  4.002926  0.001
C  C81  1  0.43447425  0.99300787  0.07965039  1  -0.05052  0.001145  -0.085623  -0.089129  0.000598  4.002349  0.001
C  C82  1  0.57151647  0.45787734  0.42761334  1  -0.032194  0.001599  -0.086412  -0.0934  0.000864  4.011783  0.001
C  C83  1  0.92853320  0.04211489  0.92765802  1  -0.033507  0.0016  -0.086306  -0.093744  0.000864  4.011664  0.001
C  C84  1  0.42848647  0.54212333  0.57234860  1  -0.033273  0.001601  -0.086303  -0.093481  0.000865  4.011881  0.001
C  C85  1  0.07146999  0.95786023  0.07240960  1  -0.033451  0.001598  -0.086376  -0.093095  0.000863  4.011475  0.001
C  C86  1  0.75249587  0.41953594  0.42781881  1  -0.035802  0.002671  -0.025555  -0.020541  0.001351  4.063044  0.002
C  C87  1  0.74752975  0.08043653  0.92788915  1  -0.034722  0.002666  -0.02522  -0.019856  0.001349  4.062516  0.002
C  C88  1  0.24748038  0.58045698  0.57211540  1  -0.034848  0.002665  -0.025313  -0.019714  0.001348  4.06257  0.002
C  C89  1  0.25245920  0.91950995  0.07218660  1  -0.035282  0.002671  -0.025418  -0.020517  0.001352  4.06243  0.002
C  C90  1  0.75247942  0.30750002  0.43900947  1  0.901861  0.007648  0.220649  0.249082  0.004617  4.056206  0.007
C  C91  1  0.74752922  0.19247981  0.93904768  1  0.904022  0.007645  0.22062  0.248787  0.004619  4.056634  0.007
C  C92  1  0.24747687  0.69248349  0.56094290  1  0.902716  0.00765  0.220509  0.248339  0.00462  4.056374  0.007
C  C93  1  0.25243700  0.80747646  0.06099986  1  0.902089  0.007647  0.220431  0.248982  0.004617  4.056241  0.007
C  C94  1  0.28641166  0.83534699  0.33315538  1  0.92046  0.00478  0.221154  0.248853  0.002798  4.06327  0.004
C  C95  1  0.21365388  0.66471368  0.83316788  1  0.921679  0.004783  0.220931  0.248571  0.0028  4.063807  0.004
C  C96  1  0.71358771  0.16470084  0.66682329  1  0.922912  0.004783  0.220944  0.248751  0.0028  4.063457  0.004
C  C97  1  0.78641243  0.33535034  0.16684140  1  0.920324  0.00478  0.221128  0.248827  0.002797  4.063634  0.004
C  C98  1  0.29833091  0.75775427  0.28311915  1  -0.004588  0.016851  -0.022595  -0.015106  0.008584  4.06652  0.011
C  C99  1  0.20170990  0.74234085  0.78315303  1  -0.003551  0.016873  -0.022538  -0.015107  0.008593  4.065819  0.011
C  C100  1  0.70164717  0.24232569  0.71684040  1  -0.004471  0.016865  -0.02253  -0.015245  0.008589  4.065781  0.011
C  C101  1  0.79833297  0.25777609  0.21688686  1  -0.004944  0.016849  -0.022739  -0.015012  0.008583  4.066737  0.011
C  C102  1  0.13447347  0.71784803  0.24306167  1  -0.041433  -0.003829  -0.08401  -0.08972  -0.004777  3.984463  -0.003
C  C103  1  0.36557669  0.78223094  0.74308412  1  -0.042901  -0.003834  -0.084068  -0.090113  -0.004783  3.983923  -0.003
C  C104  1  0.86550616  0.28218719  0.75691222  1  -0.042022  -0.003834  -0.083957  -0.089656  -0.004783  3.984228  -0.003
C  C105  1  0.63445672  0.21788448  0.25695194  1  -0.04203  -0.00383  -0.083833  -0.089871  -0.004778  3.984085  -0.003
C  C106  1  0.47547064  0.71647595  0.27666759  1  -0.034878  -0.003298  -0.090232  -0.10143  -0.004172  4.00778  -0.003
C  C107  1  0.02457169  0.78362952  0.77672664  1  -0.034479  -0.003298  -0.090408  -0.102022  -0.004172  4.008058  -0.003
C  C108  1  0.52453618  0.28363571  0.72327187  1  -0.034646  -0.003298  -0.090422  -0.102189  -0.004172  4.007672  -0.003
C  C109  1  0.97545140  0.21649718  0.22334529  1  -0.03503  -0.003297  -0.09044  -0.101694  -0.00417  4.007961  -0.003
C  C110  1  0.14558494  0.63708342  0.19948306  1  0.015949  0.014437  -0.101317  -0.188599  0.007097  3.94922  0.009
C  C111  1  0.35440217  0.86297124  0.69949485  1  0.015439  0.01445  -0.101202  -0.188196  0.007102  3.949688  0.009
C  C112  1  0.85439481  0.36294461  0.80049992  1  0.015115  0.014449  -0.101421  -0.188622  0.007102  3.949811  0.009
C  C113  1  0.64555330  0.13711132  0.30052399  1  0.016757  0.014427  -0.101402  -0.188181  0.007092  3.949104  0.009
C  C114  1  0.48660669  0.63532055  0.23399373  1  -0.022176  0.013926  -0.094568  -0.165705  0.00676  3.951126  0.009
C  C115  1  0.01340512  0.86475714  0.73404116  1  -0.022825  0.013935  -0.094347  -0.165144  0.006763  3.951144  0.009
C  C116  1  0.51340973  0.36477426  0.76595769  1  -0.022894  0.013934  -0.094488  -0.165422  0.006763  3.950871  0.009
C  C117  1  0.98658374  0.13534270  0.26601976  1  -0.022266  0.013927  -0.094388  -0.165487  0.006761  3.951469  0.009
C  C118  1  0.32045643  0.59346468  0.19538138  1  0.348099  -0.004885  0.094136  0.296991  -0.00634  4.005396  -0.005
C  C119  1  0.17953652  0.90657794  0.69541403  1  0.347826  -0.004885  0.093886  0.296311  -0.006342  4.007258  -0.005
C  C120  1  0.67955853  0.40657023  0.80458200  1  0.346352  -0.004887  0.093949  0.296702  -0.006343  4.006528  -0.005
C  C121  1  0.82040563  0.09348956  0.30462442  1  0.347195  -0.004884  0.094091  0.296684  -0.00634  4.006478  -0.005
N  N122  1  0.75747548  0.74837683  0.41395917  1  -1.247193  0.004138  -0.599644  -0.601884  0.001613  3.379484  0.003
N  N123  1  0.74255446  0.75161577  0.91400478  1  -1.247449  0.004126  -0.599671  -0.601474  0.001606  3.379493  0.003
N  N124  1  0.24251663  0.25162633  0.58598412  1  -1.247027  0.004125  -0.599701  -0.601615  0.001605  3.379071  0.003
N  N125  1  0.25743570  0.24835626  0.08603224  1  -1.246502  0.004134  -0.59973  -0.601738  0.001611  3.379509  0.003
N  N126  1  0.91837502  0.26321537  0.43976061  1  -0.652717  0.003818  -0.210066  -0.262302  -0.000312  3.229576  0.003
N  N127  1  0.58162581  0.23675973  0.93976797  1  -0.65278  0.003825  -0.210026  -0.261859  -0.000314  3.229759  0.003
N  N128  1  0.08159848  0.73678556  0.56022237  1  -0.652214  0.003816  -0.21014  -0.262043  -0.000318  3.229489  0.003
N  N129  1  0.41833937  0.76319015  0.06024227  1  -0.651871  0.003816  -0.21006  -0.262547  -0.000312  3.229878  0.003
N  N130  1  0.85203097  0.16113271  0.45508937  1  -0.20621  0.051342  -0.124434  -0.059641  0.029017  3.573912  0.047
N  N131  1  0.64797354  0.33886157  0.95502062  1  -0.206627  0.051406  -0.124727  -0.060096  0.029048  3.57469  0.047
N  N132  1  0.14797395  0.83887673  0.54496055  1  -0.206405  0.051388  -0.124483  -0.059671  0.029039  3.57431  0.047
N  N133  1  0.35200053  0.66111460  0.04490210  1  -0.207154  0.051334  -0.124425  -0.059457  0.029012  3.573923  0.047
N  N134  1  0.58679679  0.23306454  0.45310915  1  -0.674256  0.006734  -0.20655  -0.249856  0.001923  3.246312  0.004
N  N135  1  0.91319111  0.26693227  0.95310925  1  -0.674273  0.006759  -0.20654  -0.249773  0.00194  3.246446  0.004
N  N136  1  0.41315979  0.76693094  0.54687335  1  -0.674312  0.006754  -0.206493  -0.249534  0.001935  3.246333  0.004
N  N137  1  0.08676846  0.73304083  0.04687995  1  -0.674363  0.006723  -0.206487  -0.249791  0.001913  3.246258  0.004
N  N138  1  0.65422269  0.14303178  0.46241075  1  -0.213734  0.054146  -0.121186  -0.060841  0.029699  3.570671  0.048
N  N139  1  0.84576401  0.35697466  0.96234893  1  -0.21432  0.054192  -0.121213  -0.060797  0.029724  3.570856  0.048
N  N140  1  0.34575742  0.85697469  0.53762436  1  -0.214407  0.05421  -0.121216  -0.060885  0.029727  3.571193  0.048
N  N141  1  0.15420184  0.64301436  0.03757140  1  -0.214001  0.054155  -0.121256  -0.060914  0.029707  3.570978  0.048
N  N142  1  0.17910888  0.94002675  0.39895299  1  -0.200051  0.042953  -0.116808  -0.050332  0.024066  3.538574  0.04
N  N143  1  0.32092079  0.55991936  0.89888842  1  -0.199733  0.04303  -0.117136  -0.050557  0.024116  3.539711  0.04
N  N144  1  0.82089086  0.05993961  0.60109407  1  -0.198545  0.042987  -0.117166  -0.050517  0.024106  3.539584  0.04
N  N145  1  0.67910649  0.43999324  0.10102474  1  -0.198988  0.042928  -0.11652  -0.050103  0.024059  3.538402  0.04
N  N146  1  0.36620987  0.93653173  0.41449201  1  -0.178092  0.049373  -0.111767  -0.045613  0.027009  3.551852  0.045
N  N147  1  0.13383561  0.56340071  0.91444681  1  -0.177623  0.049411  -0.11175  -0.045507  0.027028  3.551798  0.045
N  N148  1  0.63381261  0.06341366  0.58553353  1  -0.178354  0.049401  -0.111557  -0.045253  0.027022  3.551931  0.045
N  N149  1  0.86621228  0.43651171  0.08549265  1  -0.178476  0.049375  -0.111979  -0.045767  0.02701  3.551953  0.045
N  N150  1  0.12390155  0.87739834  0.34786782  1  -0.710731  0.005031  -0.217172  -0.276444  0.001333  3.242192  0.004
N  N151  1  0.37615457  0.62262570  0.84784376  1  -0.711825  0.005044  -0.216953  -0.276178  0.001337  3.24293  0.004
N  N152  1  0.87610448  0.12263266  0.65214433  1  -0.712155  0.005029  -0.217119  -0.276269  0.001326  3.242704  0.004
N  N153  1  0.62388967  0.37737860  0.15211579  1  -0.711459  0.005022  -0.217206  -0.276342  0.001329  3.242696  0.004
N  N154  1  0.43805257  0.87124101  0.37467189  1  -0.699623  0.007554  -0.211122  -0.264583  0.003038  3.2558  0.006
N  N155  1  0.06201513  0.62875664  0.87467040  1  -0.698093  0.007564  -0.211064  -0.264458  0.003043  3.255714  0.006
N  N156  1  0.56196404  0.12875316  0.62531396  1  -0.698551  0.007554  -0.211212  -0.264816  0.003037  3.255999  0.006
N  N157  1  0.93806255  0.37124258  0.12532166  1  -0.699088  0.007549  -0.211105  -0.264703  0.003036  3.255866  0.006
N  N158  1  0.33509051  0.51066365  0.15264629  1  -1.249182  0.063232  -0.595569  -0.58978  0.033789  3.416667  0.052
N  N159  1  0.16485149  0.98937054  0.65268745  1  -1.247417  0.063305  -0.595522  -0.589275  0.033834  3.418097  0.052
N  N160  1  0.66490425  0.48937624  0.84730847  1  -1.245448  0.063336  -0.59562  -0.589562  0.033849  3.417363  0.052
N  N161  1  0.83504739  0.01067338  0.34734669  1  -1.247972  0.06323  -0.595577  -0.589913  0.03379  3.417077  0.052
O  O162  1  0.77237598  0.94075515  0.48570297  1  -1.209064  0.238192  -0.553265  -0.818761  0.126907  2.40386  0.212
O  O163  1  0.72769193  0.55913504  0.98552996  1  -1.208183  0.23828  -0.553132  -0.818545  0.126874  2.403399  0.212
O  O164  1  0.22766225  0.05914777  0.51446412  1  -1.208061  0.238247  -0.553035  -0.818689  0.126878  2.403744  0.212
O  O165  1  0.27233214  0.44075442  0.01428804  1  -1.209503  0.238183  -0.553462  -0.818907  0.126897  2.404067  0.212
O  O166  1  0.21907467  0.17211505  0.39358186  1  -1.254926  0.066611  -0.573135  -0.72728  0.034572  2.195359  0.056
O  O167  1  0.28094406  0.32774624  0.89350792  1  -1.254812  0.066611  -0.573226  -0.726855  0.034575  2.195399  0.056
O  O168  1  0.78092457  0.82778262  0.60647524  1  -1.255008  0.066616  -0.573277  -0.727048  0.034579  2.195316  0.056
O  O169  1  0.71904240  0.67207406  0.10640189  1  -1.254759  0.06663  -0.573063  -0.727341  0.034577  2.195756  0.056
