# generated using pymatgen
data_ZnH7C8NO6
_symmetry_space_group_name_H-M   'P 1'
_cell_length_a   4.91909076
_cell_length_b   10.89236158
_cell_length_c   17.22468144
_cell_angle_alpha   89.99997310
_cell_angle_beta   89.99996609
_cell_angle_gamma   89.99990256
_symmetry_Int_Tables_number   1
_chemical_formula_structural   ZnH7C8NO6
_chemical_formula_sum   'Zn4 H28 C32 N4 O24'
_cell_volume   922.90730544
_cell_formula_units_Z   4
loop_
 _symmetry_equiv_pos_site_id
 _symmetry_equiv_pos_as_xyz
  1  'x, y, z'
loop_
 _atom_site_type_symbol
 _atom_site_label
 _atom_site_symmetry_multiplicity
 _atom_site_fract_x
 _atom_site_fract_y
 _atom_site_fract_z
 _atom_site_occupancy
 _atom_site_hle17_bader_spin_density
 _atom_site_hle17_ddec_charge
 _atom_site_hle17_ddec_spin_density
 _atom_site_hle17_ddec_sum_bond_order
 _atom_site_hle17_magmom
 _atom_site_hse06_10hf_bader_spin_density
 _atom_site_hse06_10hf_ddec_charge
 _atom_site_hse06_10hf_ddec_spin_density
 _atom_site_hse06_10hf_ddec_sum_bond_order
 _atom_site_hse06_10hf_magmom
 _atom_site_hse06_bader_spin_density
 _atom_site_hse06_ddec_charge
 _atom_site_hse06_ddec_spin_density
 _atom_site_hse06_ddec_sum_bond_order
 _atom_site_hse06_magmom
 _atom_site_pbe_bader_spin_density
 _atom_site_pbe_cm5_charge
 _atom_site_pbe_ddec_charge
 _atom_site_pbe_ddec_spin_density
 _atom_site_pbe_ddec_sum_bond_order
 _atom_site_pbe_magmom
Zn  Zn0  1  0.01931761  0.27343271  0.47811620  1  0  1.197006  0  1.684118  0  0  1.033219  0  2.146095  0  0  1.083066  0  2.08175  0  0  0.691531  0.997802  0  2.190724  0
Zn  Zn1  1  0.51931562  0.72656747  0.52188411  1  0  1.196973  0  1.684164  0  0  1.033209  0  2.146114  0  0  1.08304  0  2.081788  0  0  0.691529  0.997793  0  2.190742  0
Zn  Zn2  1  0.51931807  0.77343262  0.02188240  1  0  1.197001  0  1.684168  0  0  1.033226  0  2.146117  0  0  1.083055  0  2.081797  0  0  0.691543  0.99781  0  2.190744  0
Zn  Zn3  1  0.01931922  0.22656756  0.97811733  1  0  1.196997  0  1.684188  0  0  1.033208  0  2.146168  0  0  1.08305  0  2.081829  0  0  0.691525  0.997796  0  2.190797  0
H  H4  1  0.11490795  0.48455306  0.57473276  1  0  0.448797  0  0.851051  0  0  0.415851  0  0.916721  0  0  0.42717  0  0.90036  0  0  0.29779  0.407873  0  0.928235  0
H  H5  1  0.61490898  0.51544613  0.42526696  1  0  0.448693  0  0.851184  0  0  0.415795  0  0.916787  0  0  0.427114  0  0.900427  0  0  0.297767  0.407817  0  0.9283  0
H  H6  1  0.61490962  0.98455541  0.92526801  1  0  0.44867  0  0.851224  0  0  0.415776  0  0.916821  0  0  0.427094  0  0.900462  0  0  0.297757  0.407799  0  0.928333  0
H  H7  1  0.11491137  0.01544561  0.07473287  1  0  0.448749  0  0.851111  0  0  0.415828  0  0.916748  0  0  0.427147  0  0.900386  0  0  0.29778  0.407849  0  0.928261  0
H  H8  1  0.85635599  0.49534843  0.51696152  1  0  0.433301  0  0.858319  0  0  0.403179  0  0.924587  0  0  0.413166  0  0.910042  0  0  0.299068  0.396079  0  0.934919  0
H  H9  1  0.35635506  0.50465057  0.48303873  1  0  0.433288  0  0.858326  0  0  0.403168  0  0.9246  0  0  0.413154  0  0.910057  0  0  0.299058  0.396068  0  0.934932  0
H  H10  1  0.35635769  0.99534929  0.98303920  1  0  0.433303  0  0.858327  0  0  0.403184  0  0.924582  0  0  0.41317  0  0.91004  0  0  0.299062  0.396085  0  0.934914  0
H  H11  1  0.85635945  0.00465155  0.01696105  1  0  0.43332  0  0.858292  0  0  0.403207  0  0.924545  0  0  0.413193  0  0.910001  0  0  0.299073  0.396107  0  0.934876  0
H  H12  1  0.87657926  0.62283878  0.25675988  1  0  0.10305  0  0.934606  0  0  0.112665  0  0.99664  0  0  0.116412  0  0.992442  0  0  0.10944  0.109877  0  0.999681  0
H  H13  1  0.37657829  0.37716112  0.74324095  1  0  0.10306  0  0.934624  0  0  0.11268  0  0.996649  0  0  0.116427  0  0.992452  0  0  0.109454  0.109892  0  0.999691  0
H  H14  1  0.37657928  0.12283905  0.24323870  1  0  0.103045  0  0.934666  0  0  0.112671  0  0.996689  0  0  0.11642  0  0.99249  0  0  0.109444  0.109884  0  0.999729  0
H  H15  1  0.87658030  0.87716268  0.75676155  1  0  0.10302  0  0.934599  0  0  0.112639  0  0.996632  0  0  0.116388  0  0.992432  0  0  0.109425  0.109852  0  0.999672  0
H  H16  1  0.09636593  0.70673095  0.13642564  1  0  0.141673  0  0.955783  0  0  0.146585  0  1.02283  0  0  0.151481  0  1.020201  0  0  0.111739  0.143054  0  1.02503  0
H  H17  1  0.59636894  0.29326825  0.86357466  1  0  0.141657  0  0.955765  0  0  0.146573  0  1.022814  0  0  0.151469  0  1.020185  0  0  0.111774  0.143042  0  1.025013  0
H  H18  1  0.59637165  0.20673349  0.36357239  1  0  0.141639  0  0.95579  0  0  0.146552  0  1.02283  0  0  0.151447  0  1.020202  0  0  0.11175  0.143021  0  1.025031  0
H  H19  1  0.09637339  0.79326754  0.63642849  1  0  0.141657  0  0.955775  0  0  0.146563  0  1.022828  0  0  0.151458  0  1.020201  0  0  0.111759  0.143034  0  1.02503  0
H  H20  1  0.44290619  0.32374771  0.25382348  1  0  0.096296  0  0.952838  0  0  0.104801  0  1.022306  0  0  0.107065  0  1.019543  0  0  0.127588  0.103101  0  1.024316  0
H  H21  1  0.94290596  0.67625215  0.74617618  1  0  0.096254  0  0.952822  0  0  0.104765  0  1.022297  0  0  0.107028  0  1.019534  0  0  0.127582  0.103066  0  1.024306  0
H  H22  1  0.94289806  0.82374561  0.24617504  1  0  0.096262  0  0.952865  0  0  0.104788  0  1.022307  0  0  0.10705  0  1.019545  0  0  0.127581  0.103088  0  1.024315  0
H  H23  1  0.44290189  0.17625516  0.75382404  1  0  0.09627  0  0.95287  0  0  0.104783  0  1.022327  0  0  0.107047  0  1.019565  0  0  0.127577  0.103084  0  1.024336  0
H  H24  1  0.76462837  0.30962396  0.15917148  1  0  0.118402  0  0.908524  0  0  0.133282  0  0.965903  0  0  0.134637  0  0.965748  0  0  0.124489  0.132297  0  0.966108  0
H  H25  1  0.26463008  0.69037511  0.84082762  1  0  0.118406  0  0.908509  0  0  0.133281  0  0.965896  0  0  0.134636  0  0.965741  0  0  0.124488  0.132296  0  0.966101  0
H  H26  1  0.26462224  0.80962125  0.34082765  1  0  0.118373  0  0.908515  0  0  0.133255  0  0.965878  0  0  0.134621  0  0.965731  0  0  0.124473  0.13227  0  0.966087  0
H  H27  1  0.76463011  0.19037782  0.65917262  1  0  0.118429  0  0.90846  0  0  0.133293  0  0.965847  0  0  0.134651  0  0.965695  0  0  0.124515  0.132308  0  0.966053  0
H  H28  1  0.80486126  0.42742212  0.08861864  1  0  0.138218  0  0.924675  0  0  0.14476  0  0.991704  0  0  0.14817  0  0.989174  0  0  0.126545  0.142284  0  0.993675  0
H  H29  1  0.30485718  0.57257784  0.91138162  1  0  0.138241  0  0.924658  0  0  0.144784  0  0.991684  0  0  0.148193  0  0.989154  0  0  0.126553  0.142307  0  0.993656  0
H  H30  1  0.30485905  0.92742028  0.41137987  1  0  0.138214  0  0.924626  0  0  0.144749  0  0.991652  0  0  0.148166  0  0.989132  0  0  0.126536  0.142276  0  0.993623  0
H  H31  1  0.80486142  0.07257785  0.58862039  1  0  0.138228  0  0.924646  0  0  0.144776  0  0.991656  0  0  0.148186  0  0.989133  0  0  0.126549  0.142302  0  0.993627  0
C  C32  1  0.01460522  0.42039446  0.33732403  1  0  0.666137  0  3.928754  0  0  0.614854  0  4.222132  0  0  0.650075  0  4.215579  0  0  0.209362  0.590986  0  4.225903  0
C  C33  1  0.51460350  0.57960480  0.66267628  1  0  0.666088  0  3.928733  0  0  0.61475  0  4.222139  0  0  0.649972  0  4.215587  0  0  0.20932  0.590884  0  4.225908  0
C  C34  1  0.51460337  0.92039335  0.16267569  1  0  0.666082  0  3.928612  0  0  0.614806  0  4.221978  0  0  0.650028  0  4.215426  0  0  0.209369  0.590939  0  4.22575  0
C  C35  1  0.01460738  0.07960867  0.83732404  1  0  0.666246  0  3.928489  0  0  0.614978  0  4.221842  0  0  0.650199  0  4.21529  0  0  0.20947  0.591112  0  4.225618  0
C  C36  1  0.14796318  0.46874576  0.26566057  1  0  -0.150484  0  3.788931  0  0  -0.130915  0  4.041604  0  0  -0.147189  0  4.064516  0  0  -0.034483  -0.120655  0  4.026374  0
C  C37  1  0.64796353  0.53125340  0.73433972  1  0  -0.150509  0  3.789037  0  0  -0.130786  0  4.041551  0  0  -0.147059  0  4.064468  0  0  -0.034442  -0.120527  0  4.026319  0
C  C38  1  0.64795712  0.96874642  0.23433912  1  0  -0.150452  0  3.788877  0  0  -0.130874  0  4.041555  0  0  -0.147147  0  4.064467  0  0  -0.034468  -0.120614  0  4.026324  0
C  C39  1  0.14796349  0.03125549  0.76566117  1  0  -0.150628  0  3.788927  0  0  -0.131071  0  4.041624  0  0  -0.147343  0  4.064532  0  0  -0.034534  -0.120812  0  4.026397  0
C  C40  1  0.05143908  0.57768361  0.23026368  1  0  0.012242  0  3.736732  0  0  -0.022494  0  3.998345  0  0  -0.012317  0  4.013154  0  0  -0.06893  -0.028721  0  3.988137  0
C  C41  1  0.55144179  0.42231562  0.76973604  1  0  0.012223  0  3.736844  0  0  -0.022567  0  3.998442  0  0  -0.012393  0  4.013254  0  0  -0.068922  -0.028794  0  3.988234  0
C  C42  1  0.55143685  0.07768440  0.26973323  1  0  0.012152  0  3.736834  0  0  -0.022605  0  3.998464  0  0  -0.01243  0  4.013272  0  0  -0.068927  -0.028832  0  3.988253  0
C  C43  1  0.05144198  0.92231667  0.73026649  1  0  0.012341  0  3.736659  0  0  -0.022383  0  3.998253  0  0  -0.012209  0  4.01306  0  0  -0.068858  -0.028609  0  3.988044  0
C  C44  1  0.17163810  0.62379113  0.16457130  1  0  -0.246737  0  3.685241  0  0  -0.264318  0  3.949058  0  0  -0.277769  0  3.966273  0  0  -0.100563  -0.255876  0  3.937677  0
C  C45  1  0.67164085  0.37620801  0.83542840  1  0  -0.246724  0  3.685153  0  0  -0.264314  0  3.948981  0  0  -0.277768  0  3.966204  0  0  -0.10066  -0.255873  0  3.937601  0
C  C46  1  0.67163777  0.12379187  0.33542616  1  0  -0.246656  0  3.68504  0  0  -0.264206  0  3.948842  0  0  -0.277663  0  3.966078  0  0  -0.100608  -0.255762  0  3.937454  0
C  C47  1  0.17164321  0.87620728  0.66457471  1  0  -0.246789  0  3.685114  0  0  -0.264345  0  3.948901  0  0  -0.277804  0  3.966138  0  0  -0.100651  -0.255902  0  3.937516  0
C  C48  1  0.38989201  0.55965988  0.12777061  1  0  0.518139  0  3.796626  0  0  0.47644  0  4.069218  0  0  0.504836  0  4.073431  0  0  0.226918  0.457592  0  4.065667  0
C  C49  1  0.88989444  0.44034093  0.87222906  1  0  0.51814  0  3.796532  0  0  0.47646  0  4.0691  0  0  0.504855  0  4.073316  0  0  0.226966  0.457611  0  4.06555  0
C  C50  1  0.88989364  0.05966059  0.37222683  1  0  0.518117  0  3.796345  0  0  0.476405  0  4.068993  0  0  0.504801  0  4.073203  0  0  0.226884  0.457557  0  4.065437  0
C  C51  1  0.38989688  0.94033930  0.62777342  1  0  0.518161  0  3.796323  0  0  0.476454  0  4.068957  0  0  0.504849  0  4.073167  0  0  0.226914  0.457606  0  4.065401  0
C  C52  1  0.35925848  0.40810870  0.23022710  1  0  0.120493  0  3.626666  0  0  0.063686  0  3.885823  0  0  0.078349  0  3.899045  0  0  0.0635  0.054262  0  3.876779  0
C  C53  1  0.85925649  0.59189122  0.76977199  1  0  0.120665  0  3.626561  0  0  0.063792  0  3.885718  0  0  0.078453  0  3.898942  0  0  0.063543  0.054367  0  3.876676  0
C  C54  1  0.85925234  0.90810750  0.26977199  1  0  0.120617  0  3.626677  0  0  0.063795  0  3.885842  0  0  0.07846  0  3.89906  0  0  0.063551  0.054371  0  3.876798  0
C  C55  1  0.35925450  0.09189333  0.73022827  1  0  0.120647  0  3.626642  0  0  0.063826  0  3.88582  0  0  0.078488  0  3.899041  0  0  0.063568  0.054402  0  3.876779  0
C  C56  1  0.65556545  0.37083388  0.11929266  1  0  -0.170771  0  3.61251  0  0  -0.236089  0  3.867663  0  0  -0.235979  0  3.872594  0  0  -0.055309  -0.236161  0  3.864495  0
C  C57  1  0.15556325  0.62916619  0.88070704  1  0  -0.170802  0  3.612553  0  0  -0.236122  0  3.867719  0  0  -0.236007  0  3.872645  0  0  -0.055321  -0.236192  0  3.864552  0
C  C58  1  0.15555721  0.87083298  0.38070589  1  0  -0.170713  0  3.612559  0  0  -0.23597  0  3.867626  0  0  -0.235917  0  3.872626  0  0  -0.055297  -0.23605  0  3.864471  0
C  C59  1  0.65556133  0.12916617  0.61929382  1  0  -0.170864  0  3.612598  0  0  -0.236163  0  3.86773  0  0  -0.236069  0  3.872678  0  0  -0.055367  -0.236235  0  3.864563  0
C  C60  1  0.49566822  0.29481648  0.05983440  1  0  0.715272  0  3.802626  0  0  0.665262  0  4.099542  0  0  0.699732  0  4.091397  0  0  0.228496  0.641763  0  4.104389  0
C  C61  1  0.99566546  0.70518425  0.94016466  1  0  0.715273  0  3.802665  0  0  0.665253  0  4.099595  0  0  0.699721  0  4.09145  0  0  0.228499  0.641749  0  4.104441  0
C  C62  1  0.99566173  0.79481698  0.44016469  1  0  0.715183  0  3.8028  0  0  0.665143  0  4.099741  0  0  0.699625  0  4.091603  0  0  0.22846  0.641645  0  4.10458  0
C  C63  1  0.49566585  0.20518099  0.55983554  1  0  0.715305  0  3.802737  0  0  0.665289  0  4.099639  0  0  0.699761  0  4.091498  0  0  0.228474  0.641785  0  4.104484  0
N  N64  1  0.47248671  0.44988658  0.16349842  1  0  -0.117718  0  3.479898  0  0  -0.024762  0  3.695129  0  0  -0.044537  0  3.718052  0  0  -0.22786  -0.011811  0  3.67947  0
N  N65  1  0.97248677  0.55011325  0.83650123  1  0  -0.117815  0  3.479813  0  0  -0.024862  0  3.695074  0  0  -0.044639  0  3.717996  0  0  -0.227905  -0.011911  0  3.679417  0
N  N66  1  0.97248043  0.94988533  0.33650006  1  0  -0.117808  0  3.47986  0  0  -0.024864  0  3.695125  0  0  -0.044625  0  3.718054  0  0  -0.227857  -0.011911  0  3.679469  0
N  N67  1  0.47248695  0.05011358  0.66349960  1  0  -0.117747  0  3.479799  0  0  -0.02478  0  3.695045  0  0  -0.044548  0  3.717969  0  0  -0.227842  -0.011827  0  3.679389  0
O  O68  1  0.14131575  0.33512180  0.37443357  1  0  -0.66413  0  2.049806  0  0  -0.594714  0  2.323391  0  0  -0.624429  0  2.308866  0  0  -0.324358  -0.573893  0  2.332693  0
O  O69  1  0.64131378  0.66487828  0.62556672  1  0  -0.664123  0  2.049712  0  0  -0.594709  0  2.323327  0  0  -0.624417  0  2.308789  0  0  -0.324358  -0.573884  0  2.332622  0
O  O70  1  0.64131601  0.83511980  0.12556616  1  0  -0.6641  0  2.049665  0  0  -0.594707  0  2.323286  0  0  -0.624417  0  2.308754  0  0  -0.324367  -0.573884  0  2.332584  0
O  O71  1  0.14132166  0.16488120  0.87443413  1  0  -0.664135  0  2.049673  0  0  -0.59474  0  2.323278  0  0  -0.624452  0  2.308746  0  0  -0.324354  -0.573905  0  2.332549  0
O  O72  1  0.78714830  0.46586823  0.35450976  1  0  -0.626561  0  1.991422  0  0  -0.574525  0  2.219014  0  0  -0.598959  0  2.208857  0  0  -0.316732  -0.557532  0  2.225536  0
O  O73  1  0.28715100  0.53412991  0.64548992  1  0  -0.626563  0  1.991472  0  0  -0.574511  0  2.219111  0  0  -0.598945  0  2.208954  0  0  -0.316712  -0.557518  0  2.225632  0
O  O74  1  0.28714460  0.96586568  0.14548990  1  0  -0.626565  0  1.991446  0  0  -0.574516  0  2.219029  0  0  -0.598951  0  2.208873  0  0  -0.316734  -0.557523  0  2.22555  0
O  O75  1  0.78715063  0.03413521  0.85451036  1  0  -0.62662  0  1.991345  0  0  -0.574586  0  2.218936  0  0  -0.599021  0  2.20878  0  0  -0.316818  -0.557596  0  2.225458  0
O  O76  1  0.62137454  0.23641405  0.00749381  1  0  -0.64394  0  2.076282  0  0  -0.574722  0  2.348954  0  0  -0.602828  0  2.331807  0  0  -0.308285  -0.555063  0  2.360204  0
O  O77  1  0.12137364  0.76358513  0.99250590  1  0  -0.643929  0  2.076215  0  0  -0.574698  0  2.348868  0  0  -0.602802  0  2.331724  0  0  -0.308254  -0.555034  0  2.360116  0
O  O78  1  0.12136810  0.73641674  0.49250595  1  0  -0.643899  0  2.076275  0  0  -0.574658  0  2.348917  0  0  -0.602759  0  2.331768  0  0  -0.308249  -0.554994  0  2.360161  0
O  O79  1  0.62137195  0.26358152  0.50749377  1  0  -0.643975  0  2.076273  0  0  -0.574726  0  2.348873  0  0  -0.602831  0  2.331728  0  0  -0.308259  -0.555061  0  2.360119  0
O  O80  1  0.23881384  0.29433826  0.06695967  1  0  -0.630406  0  2.055773  0  0  -0.560623  0  2.317198  0  0  -0.589702  0  2.304167  0  0  -0.307822  -0.540367  0  2.325507  0
O  O81  1  0.73881312  0.70566359  0.93303886  1  0  -0.630413  0  2.055853  0  0  -0.56062  0  2.317268  0  0  -0.589696  0  2.304237  0  0  -0.307857  -0.540366  0  2.325593  0
O  O82  1  0.73880736  0.79433601  0.43303947  1  0  -0.630386  0  2.055812  0  0  -0.560601  0  2.317243  0  0  -0.589675  0  2.304206  0  0  -0.307831  -0.540339  0  2.325551  0
O  O83  1  0.23881146  0.20566216  0.56696022  1  0  -0.630426  0  2.055817  0  0  -0.560627  0  2.317205  0  0  -0.589704  0  2.304173  0  0  -0.307824  -0.540363  0  2.325516  0
O  O84  1  0.50929416  0.59089551  0.06588963  1  0  -0.587242  0  2.039311  0  0  -0.529009  0  2.293976  0  0  -0.554817  0  2.284426  0  0  -0.300657  -0.510905  0  2.299798  0
O  O85  1  0.00929267  0.40910467  0.93411069  1  0  -0.58724  0  2.039338  0  0  -0.528993  0  2.29396  0  0  -0.554797  0  2.284399  0  0  -0.30066  -0.510888  0  2.299779  0
O  O86  1  0.00929785  0.09089655  0.43410787  1  0  -0.587185  0  2.039255  0  0  -0.529005  0  2.293972  0  0  -0.554807  0  2.284409  0  0  -0.300644  -0.51091  0  2.299822  0
O  O87  1  0.50930118  0.90910271  0.56589186  1  0  -0.587213  0  2.039254  0  0  -0.529026  0  2.293959  0  0  -0.554827  0  2.284395  0  0  -0.300651  -0.510936  0  2.299821  0
O  O88  1  0.03459037  0.45476159  0.52430165  1  0  -0.870986  0  1.94514  0  0  -0.802397  0  2.154322  0  0  -0.825609  0  2.118654  0  0  -0.571465  -0.785979  0  2.179133  0
O  O89  1  0.53458915  0.54523858  0.47569866  1  0  -0.870896  0  1.945231  0  0  -0.802349  0  2.15436  0  0  -0.825559  0  2.118695  0  0  -0.571445  -0.785927  0  2.179164  0
O  O90  1  0.53459194  0.95476390  0.97569856  1  0  -0.870888  0  1.94527  0  0  -0.802337  0  2.15438  0  0  -0.825546  0  2.118715  0  0  -0.571431  -0.785919  0  2.17919  0
O  O91  1  0.03459368  0.04523718  0.02430059  1  0  -0.870976  0  1.945152  0  0  -0.8024  0  2.154283  0  0  -0.82561  0  2.118615  0  0  -0.571465  -0.785982  0  2.179093  0
