# generated using pymatgen
data_AlH18(C9O2)3
_symmetry_space_group_name_H-M   'P 1'
_cell_length_a   4.02059277
_cell_length_b   24.49980646
_cell_length_c   24.49979648
_cell_angle_alpha   120.00036216
_cell_angle_beta   90.00017050
_cell_angle_gamma   90.00017127
_symmetry_Int_Tables_number   1
_chemical_formula_structural   AlH18(C9O2)3
_chemical_formula_sum   'Al2 H36 C54 O12'
_cell_volume   2089.99026889
_cell_formula_units_Z   2
loop_
 _symmetry_equiv_pos_site_id
 _symmetry_equiv_pos_as_xyz
  1  'x, y, z'
loop_
 _atom_site_type_symbol
 _atom_site_label
 _atom_site_symmetry_multiplicity
 _atom_site_fract_x
 _atom_site_fract_y
 _atom_site_fract_z
 _atom_site_occupancy
 _atom_site_pbe_bader_charge
 _atom_site_pbe_bader_spin_density
 _atom_site_pbe_cm5_charge
 _atom_site_pbe_ddec_charge
 _atom_site_pbe_ddec_spin_density
 _atom_site_pbe_ddec_sum_bond_order
 _atom_site_pbe_magmom
Al  Al0  1  0.99999608  0.49999999  0.49999823  1  2.505674  0  0.427634  1.601769  0  2.56701  0
Al  Al1  1  0.99999129  0.16666532  0.83333480  1  2.505624  0  0.427581  1.601809  0  2.566991  0
H  H2  1  0.41703891  0.49991749  0.67328830  1  0.087387  0  0.103842  0.109743  0  0.994459  0
H  H3  1  0.58296647  0.32671565  0.50008641  1  0.087495  0  0.103853  0.109863  0  0.994316  0
H  H4  1  0.41706316  0.16675251  0.66004708  1  0.087516  0  0.103856  0.1098  0  0.994577  0
H  H5  1  0.58292747  0.33995397  0.83325048  1  0.087409  0  0.103822  0.10975  0  0.994606  0
H  H6  1  0.15601818  0.45956733  0.76264954  1  0.0275  0  0.091607  0.088943  0  1.024521  0
H  H7  1  0.53004557  0.50005583  0.77217349  1  0.026233  0  0.09334  0.089545  0  0.979721  0
H  H8  1  0.84400219  0.23735273  0.54043346  1  0.027407  0  0.091576  0.088897  0  1.024542  0
H  H9  1  0.46997230  0.22782993  0.49994705  1  0.026233  0  0.093387  0.089587  0  0.979741  0
H  H10  1  0.15607380  0.20709137  0.57067785  1  0.028157  0  0.091589  0.088866  0  1.024515  0
H  H11  1  0.53012516  0.16661567  0.56116386  1  0.025935  0  0.093332  0.089549  0  0.979799  0
H  H12  1  0.84394910  0.42932368  0.79291021  1  0.027714  0  0.09159  0.088892  0  1.02445  0
H  H13  1  0.46989527  0.43883917  0.83338933  1  0.026092  0  0.093323  0.089543  0  0.979766  0
H  H14  1  0.41703384  0.67336822  0.50008397  1  0.030451  0  0.103882  0.109834  0  0.994346  0
H  H15  1  0.58293391  0.67336940  0.67328945  1  0.079728  0  0.103805  0.109677  0  0.994309  0
H  H16  1  0.41707468  0.99329455  0.83324569  1  0.03046  0  0.10383  0.109765  0  0.994582  0
H  H17  1  0.58292918  0.99329317  0.66004236  1  0.079796  0  0.103814  0.109745  0  0.994488  0
H  H18  1  0.15601666  0.80307938  0.54043115  1  0.013154  0  0.091602  0.088938  0  1.024523  0
H  H19  1  0.53004045  0.77211278  0.49994408  1  0.035134  0  0.093365  0.089561  0  0.979801  0
H  H20  1  0.84399443  0.80308231  0.76265077  1  0.012288  0  0.091581  0.088894  0  1.024575  0
H  H21  1  0.46995985  0.77212042  0.77217529  1  0.03263  0  0.093384  0.089564  0  0.979832  0
H  H22  1  0.15607182  0.86358940  0.79290831  1  0.012835  0  0.09155  0.088813  0  1.024587  0
H  H23  1  0.53012429  0.89455021  0.83338721  1  0.034627  0  0.093306  0.089518  0  0.979785  0
H  H24  1  0.84396579  0.86357838  0.57067444  1  0.012106  0  0.091657  0.089001  0  1.024442  0
H  H25  1  0.46993158  0.89454455  0.56115798  1  0.032665  0  0.093385  0.089592  0  0.979731  0
H  H26  1  0.41705646  0.32671277  0.32663038  1  0.079761  0  0.103857  0.109767  0  0.994432  0
H  H27  1  0.58295892  0.49991619  0.32662859  1  0.030534  0  0.103861  0.109811  0  0.994262  0
H  H28  1  0.41708837  0.33995754  0.00670703  1  0.079829  0  0.103818  0.109708  0  0.994436  0
H  H29  1  0.58291809  0.16675104  0.00670243  1  0.030387  0  0.103801  0.10976  0  0.994622  0
H  H30  1  0.15601332  0.23734473  0.19691681  1  0.012005  0  0.0916  0.088942  0  1.024492  0
H  H31  1  0.53005042  0.22782460  0.22788169  1  0.032549  0  0.093355  0.089554  0  0.979766  0
H  H32  1  0.84400839  0.45956353  0.19692038  1  0.013052  0  0.091579  0.088882  0  1.024509  0
H  H33  1  0.46998459  0.50005294  0.22788464  1  0.035114  0  0.09335  0.08951  0  0.979773  0
H  H34  1  0.15607167  0.42932307  0.13641525  1  0.012295  0  0.091592  0.088878  0  1.02441  0
H  H35  1  0.53012576  0.43883897  0.10545369  1  0.031869  0  0.093334  0.089545  0  0.979724  0
H  H36  1  0.84394835  0.20709314  0.13641517  1  0.012817  0  0.091612  0.088922  0  1.024485  0
H  H37  1  0.46991330  0.16660976  0.10544987  1  0.035091  0  0.093332  0.089504  0  0.979769  0
C  C38  1  0.49999384  0.45176371  0.40352673  1  1.531885  0  0.277621  0.661539  0  4.053035  0
C  C39  1  0.50000018  0.45176471  0.54823714  1  1.605832  0  0.277615  0.661544  0  4.053061  0
C  C40  1  0.49999153  0.59647225  0.54823437  1  1.607645  0  0.27761  0.661515  0  4.053118  0
C  C41  1  0.49999782  0.21490079  0.78509799  1  1.605825  0  0.277722  0.661745  0  4.052961  0
C  C42  1  0.49998161  0.07019198  0.78509714  1  1.607316  0  0.277571  0.661425  0  4.053006  0
C  C43  1  0.49999422  0.21490297  0.92980722  1  1.608496  0  0.277574  0.661556  0  4.053142  0
C  C44  1  0.42458787  0.45245545  0.75266267  1  -0.038114  0  -0.157146  -0.185704  0  3.978625  0
C  C45  1  0.57543001  0.24734018  0.54754639  1  -0.011054  0  -0.157243  -0.185877  0  3.978614  0
C  C46  1  0.42463137  0.21421045  0.58067192  1  -0.037983  0  -0.157061  -0.185614  0  3.978539  0
C  C47  1  0.57538158  0.41932920  0.78579072  1  -0.010909  0  -0.15707  -0.185699  0  3.978596  0
C  C48  1  0.45513459  0.44898905  0.64856842  1  -0.058631  0  -0.087686  -0.165846  0  3.976156  0
C  C49  1  0.46687667  0.41689859  0.68207526  1  -0.038447  0  -0.006888  0.084142  0  3.956518  0
C  C50  1  0.54489568  0.35143740  0.55101627  1  -0.058906  0  -0.087762  -0.166224  0  3.97617  0
C  C51  1  0.53315114  0.31792889  0.58310600  1  -0.038602  0  -0.006828  0.084438  0  3.956381  0
C  C52  1  0.45512292  0.21768026  0.68477099  1  -0.059377  0  -0.087701  -0.165983  0  3.976322  0
C  C53  1  0.46688981  0.24977332  0.65126157  1  -0.038098  0  -0.006929  0.084253  0  3.956495  0
C  C54  1  0.54487267  0.31523111  0.78232328  1  -0.05915  0  -0.087743  -0.166022  0  3.976186  0
C  C55  1  0.53313062  0.34874139  0.75023013  1  -0.038232  0  -0.006821  0.084363  0  3.95646  0
C  C56  1  0.50001512  0.41674589  0.58326007  1  -0.069912  0  -0.008854  -0.012033  0  4.004135  0
C  C57  1  0.50002262  0.35064663  0.64935694  1  0.043424  0  -0.007926  -0.024458  0  3.944677  0
C  C58  1  0.49999780  0.24992318  0.75007721  1  -0.069979  0  -0.008832  -0.012073  0  4.004306  0
C  C59  1  0.50002015  0.31602279  0.68398163  1  0.160693  0  -0.007942  -0.024438  0  3.94499  0
C  C60  1  0.42459152  0.80020439  0.54754319  1  -0.009085  0  -0.157167  -0.185744  0  3.978749  0
C  C61  1  0.57542695  0.80020832  0.75266473  1  -0.026359  0  -0.157149  -0.185733  0  3.97853  0
C  C62  1  0.42462919  0.86646158  0.78579062  1  -0.008128  0  -0.156995  -0.185481  0  3.978525  0
C  C63  1  0.57540601  0.86645593  0.58066783  1  -0.02593  0  -0.157229  -0.185873  0  3.978708  0
C  C64  1  0.45509362  0.69957864  0.55101504  1  0.06859  0  -0.087771  -0.166094  0  3.976412  0
C  C65  1  0.46687387  0.76517123  0.58310133  1  -0.065865  0  -0.006922  0.084256  0  3.956524  0
C  C66  1  0.54485992  0.69958229  0.64856795  1  -0.057187  0  -0.087618  -0.165711  0  3.976412  0
C  C67  1  0.53314364  0.76516939  0.68207115  1  0.032164  0  -0.006976  0.084151  0  3.95647  0
C  C68  1  0.45514049  0.96709099  0.78232007  1  0.068575  0  -0.08769  -0.1659  0  3.976154  0
C  C69  1  0.46690403  0.90148550  0.75022466  1  -0.065636  0  -0.006881  0.084188  0  3.956622  0
C  C70  1  0.54487509  0.96708936  0.68476777  1  -0.05725  0  -0.087697  -0.165917  0  3.976185  0
C  C71  1  0.53315203  0.90148458  0.65125773  1  0.032375  0  -0.006753  0.084319  0  3.956377  0
C  C72  1  0.49997259  0.66651543  0.58326117  1  -0.055918  0  -0.008833  -0.012145  0  4.00411  0
C  C73  1  0.50001916  0.79870994  0.64935504  1  -0.081317  0  -0.00782  -0.024267  0  3.944188  0
C  C74  1  0.49999557  0.00015061  0.75007261  1  -0.055992  0  -0.008866  -0.012112  0  4.004529  0
C  C75  1  0.50004001  0.86795915  0.68397906  1  0.040262  0  -0.008033  -0.024556  0  3.945395  0
C  C76  1  0.42458329  0.24733351  0.19979213  1  -0.026066  0  -0.157166  -0.185821  0  3.978511  0
C  C77  1  0.57542855  0.45245337  0.19979349  1  -0.008794  0  -0.157167  -0.185725  0  3.978508  0
C  C78  1  0.42462897  0.41932734  0.13354006  1  -0.025418  0  -0.157089  -0.185626  0  3.97856  0
C  C79  1  0.57539346  0.21420956  0.13353936  1  -0.008651  0  -0.157102  -0.185651  0  3.978607  0
C  C80  1  0.45512047  0.35143196  0.30041894  1  -0.057927  0  -0.087697  -0.165967  0  3.976431  0
C  C81  1  0.46685911  0.31792713  0.23483018  1  0.032156  0  -0.006947  0.084262  0  3.956284  0
C  C82  1  0.54488174  0.44898354  0.30041893  1  0.068496  0  -0.087681  -0.165978  0  3.976452  0
C  C83  1  0.53313878  0.41689870  0.23483059  1  -0.065948  0  -0.007001  0.084195  0  3.95647  0
C  C84  1  0.45514746  0.31523186  0.03291197  1  -0.057043  0  -0.087653  -0.165769  0  3.976209  0
C  C85  1  0.46688546  0.34873992  0.09851385  1  0.032072  0  -0.006888  0.084167  0  3.956616  0
C  C86  1  0.54487216  0.21767658  0.03290687  1  0.068519  0  -0.087696  -0.166087  0  3.976032  0
C  C87  1  0.53311859  0.24977186  0.09851414  1  -0.06589  0  -0.006821  0.084417  0  3.956423  0
C  C88  1  0.49999535  0.41674172  0.33348361  1  0.021113  0  -0.008856  -0.012106  0  4.004045  0
C  C89  1  0.49999848  0.35064134  0.20128821  1  -0.08144  0  -0.00776  -0.02425  0  3.943941  0
C  C90  1  0.50000266  0.24992685  0.99984846  1  -0.055991  0  -0.008893  -0.012116  0  4.004425  0
C  C91  1  0.49999254  0.31601750  0.13203961  1  0.04079  0  -0.007973  -0.02452  0  3.945279  0
O  O92  1  0.73400664  0.56887116  0.56034815  1  -1.254488  0  -0.238727  -0.600237  0  2.350031  0
O  O93  1  0.73400970  0.49148167  0.43112828  1  -1.257678  0  -0.238735  -0.600256  0  2.349983  0
O  O94  1  0.73400997  0.43965014  0.50851939  1  -1.256341  0  -0.238766  -0.600301  0  2.349995  0
O  O95  1  0.26599804  0.56887142  0.50851569  1  -1.257967  0  -0.238817  -0.600352  0  2.350024  0
O  O96  1  0.26598541  0.49147918  0.56034845  1  -1.256208  0  -0.238758  -0.600322  0  2.349999  0
O  O97  1  0.26598372  0.43964995  0.43112785  1  -1.254517  0  -0.238777  -0.60029  0  2.349985  0
O  O98  1  0.73398646  0.17518863  0.90220741  1  -1.258595  0  -0.238618  -0.600175  0  2.350067  0
O  O99  1  0.73400858  0.22701310  0.82481111  1  -1.256196  0  -0.238752  -0.60034  0  2.350047  0
O  O100  1  0.73398952  0.09779816  0.77298608  1  -1.254277  0  -0.238626  -0.600156  0  2.349967  0
O  O101  1  0.26597136  0.22701670  0.90220324  1  -1.254643  0  -0.238801  -0.600377  0  2.349838  0
O  O102  1  0.26596450  0.09779265  0.82481471  1  -1.25758  0  -0.23885  -0.600318  0  2.349792  0
O  O103  1  0.26598211  0.17518389  0.77298377  1  -1.256055  0  -0.238846  -0.600467  0  2.349933  0
