# generated using pymatgen
data_Nd2H41Pt2C53N19O10
_symmetry_space_group_name_H-M   'P 1'
_cell_length_a   13.83258617
_cell_length_b   14.20881549
_cell_length_c   17.86051080
_cell_angle_alpha   113.41845818
_cell_angle_beta   107.80447795
_cell_angle_gamma   89.96696362
_symmetry_Int_Tables_number   1
_chemical_formula_structural   Nd2H41Pt2C53N19O10
_chemical_formula_sum   'Nd4 H82 Pt4 C106 N38 O20'
_cell_volume   3037.41557748
_cell_formula_units_Z   2
loop_
 _symmetry_equiv_pos_site_id
 _symmetry_equiv_pos_as_xyz
  1  'x, y, z'
loop_
 _atom_site_type_symbol
 _atom_site_label
 _atom_site_symmetry_multiplicity
 _atom_site_fract_x
 _atom_site_fract_y
 _atom_site_fract_z
 _atom_site_occupancy
 _atom_site_pbe_bader_charge
 _atom_site_pbe_bader_spin_density
 _atom_site_pbe_cm5_charge
 _atom_site_pbe_ddec_charge
 _atom_site_pbe_ddec_spin_density
 _atom_site_pbe_ddec_sum_bond_order
 _atom_site_pbe_magmom
Nd  Nd0  1  0.93883215  0.91165688  0.69989871  1  2.204895  0  1.537716  1.89597  0  2.276573  0
Nd  Nd1  1  0.56134721  0.21159944  0.30016051  1  2.205137  0  1.537256  1.897666  0  2.273431  0
Nd  Nd2  1  0.06116656  0.08834223  0.30010112  1  2.204857  0  1.537712  1.896015  0  2.276478  0
Nd  Nd3  1  0.43865216  0.78840148  0.69984035  1  2.205104  0  1.537254  1.897598  0  2.273604  0
H  H4  1  0.03653186  0.76937077  0.53946184  1  0.099693  0  0.119856  0.087628  0  1.024148  0
H  H5  1  0.46364644  0.22980847  0.46066403  1  0.118791  0  0.119966  0.087221  0  1.024718  0
H  H6  1  0.96346878  0.23062647  0.46053378  1  0.099533  0  0.119814  0.087566  0  1.024229  0
H  H7  1  0.53634891  0.77019090  0.53933373  1  0.118742  0  0.119982  0.087278  0  1.024785  0
H  H8  1  0.14569227  0.77646530  0.45349150  1  0.137805  0  0.108428  0.116766  0  1.02588  0
H  H9  1  0.35412801  0.32273727  0.54632258  1  0.131463  0  0.108194  0.115835  0  1.026274  0
H  H10  1  0.85430948  0.22353543  0.54650452  1  0.137828  0  0.108429  0.116776  0  1.025922  0
H  H11  1  0.64587267  0.67726501  0.45367809  1  0.131653  0  0.108192  0.115812  0  1.026282  0
H  H12  1  0.21909206  0.95128138  0.47453117  1  0.109451  0  0.111068  0.110859  0  1.001737  0
H  H13  1  0.28044705  0.47636834  0.52497945  1  0.1181  0  0.110986  0.110732  0  1.002379  0
H  H14  1  0.78091351  0.04872211  0.52547305  1  0.109555  0  0.111112  0.110966  0  1.001653  0
H  H15  1  0.71954896  0.52363171  0.47501822  1  0.118161  0  0.110983  0.110694  0  1.002358  0
H  H16  1  0.17773844  0.10877616  0.57855920  1  0.090139  0  0.111506  0.12123  0  1.026481  0
H  H17  1  0.32189972  0.52976316  0.42092597  1  0.101359  0  0.111698  0.12148  0  1.026733  0
H  H18  1  0.82226669  0.89122564  0.42144566  1  0.090216  0  0.111534  0.121239  0  1.026483  0
H  H19  1  0.67809954  0.47023771  0.57907406  1  0.101394  0  0.111674  0.121447  0  1.026698  0
H  H20  1  0.10309853  0.22433187  0.63384154  1  0.137353  0  0.109059  0.118966  0  1.056417  0
H  H21  1  0.39697480  0.59030286  0.36617385  1  0.142842  0  0.108907  0.118807  0  1.055397  0
H  H22  1  0.89690005  0.77566439  0.36615466  1  0.137424  0  0.10908  0.119018  0  1.056305  0
H  H23  1  0.60302286  0.40970040  0.63382781  1  0.142949  0  0.108921  0.118867  0  1.055393  0
H  H24  1  0.06232686  0.37426691  0.74423918  1  0.075156  0  0.111286  0.103247  0  0.991682  0
H  H25  1  0.43799362  0.63006804  0.25595052  1  0.092694  0  0.111426  0.103415  0  0.991871  0
H  H26  1  0.93767453  0.62572882  0.25575494  1  0.07532  0  0.111295  0.103315  0  0.991527  0
H  H27  1  0.56200348  0.36993291  0.74405037  1  0.092697  0  0.111442  0.103438  0  0.991837  0
H  H28  1  0.00475119  0.34845346  0.85531143  1  0.067184  0  0.104515  0.1039  0  1.023595  0
H  H29  1  0.49542433  0.49322056  0.14475628  1  0.061989  0  0.104872  0.104359  0  1.023147  0
H  H30  1  0.99524557  0.65154712  0.14468134  1  0.06695  0  0.104534  0.103913  0  1.023549  0
H  H31  1  0.50457461  0.50677922  0.85524577  1  0.061987  0  0.104862  0.104347  0  1.023146  0
H  H32  1  0.99386736  0.32430364  0.95512656  1  0.038567  0  0.103901  0.104676  0  1.019159  0
H  H33  1  0.50565296  0.36894455  0.04458883  1  0.05283  0  0.103743  0.104541  0  1.01844  0
H  H34  1  0.00612421  0.67569745  0.04486748  1  0.038652  0  0.103926  0.104716  0  1.019225  0
H  H35  1  0.49434357  0.63105094  0.95541357  1  0.052722  0  0.103713  0.104478  0  1.018387  0
H  H36  1  0.94758745  0.28211195  0.06381948  1  0.102514  0  0.113706  0.111864  0  0.973495  0
H  H37  1  0.55193515  0.21800155  0.93588959  1  0.112617  0  0.113404  0.111288  0  0.974181  0
H  H38  1  0.05241345  0.71789135  0.93617835  1  0.10254  0  0.113691  0.111813  0  0.973474  0
H  H39  1  0.44805869  0.78199600  0.06411176  1  0.112526  0  0.113413  0.111304  0  0.974111  0
H  H40  1  0.91220455  0.09683060  0.03495626  1  0.110566  0  0.106452  0.107352  0  1.057931  0
H  H41  1  0.58748582  0.06164129  0.96492932  1  0.110808  0  0.106478  0.107249  0  1.05834  0
H  H42  1  0.08780231  0.90317257  0.96504610  1  0.110456  0  0.106467  0.107414  0  1.05786  0
H  H43  1  0.41250801  0.93835514  0.03507091  1  0.111217  0  0.106441  0.107218  0  1.058342  0
H  H44  1  0.92162978  0.95969517  0.89630981  1  0.095129  0  0.119116  0.07709  0  1.04154  0
H  H45  1  0.57840526  0.06329700  0.10373298  1  0.105773  0  0.118991  0.076599  0  1.042067  0
H  H46  1  0.07837263  0.04030588  0.10369120  1  0.095077  0  0.119144  0.07712  0  1.041542  0
H  H47  1  0.42159238  0.93670142  0.89626926  1  0.105785  0  0.119012  0.076573  0  1.042058  0
H  H48  1  0.75359459  0.85539412  0.52693289  1  0.654622  0  0.294746  0.391133  0  0.954461  0
H  H49  1  0.74663760  0.32846539  0.47316008  1  0.660614  0  0.2945  0.390951  0  0.954547  0
H  H50  1  0.24640695  0.14460727  0.47306767  1  0.654565  0  0.294748  0.391153  0  0.954428  0
H  H51  1  0.25336352  0.67153858  0.52683997  1  0.66065  0  0.294493  0.390971  0  0.954518  0
H  H52  1  0.82865214  0.77478385  0.50549137  1  0.625771  0  0.296051  0.389778  0  0.951794  0
H  H53  1  0.67181452  0.26914769  0.49465680  1  0.631628  0  0.29592  0.389779  0  0.951524  0
H  H54  1  0.17135103  0.22521850  0.49451094  1  0.625718  0  0.296006  0.389705  0  0.951893  0
H  H55  1  0.32818671  0.73085522  0.50534296  1  0.631608  0  0.295897  0.389779  0  0.951514  0
H  H56  1  0.82604763  0.77919021  0.76837074  1  0.626906  0  0.292372  0.364286  0  0.985571  0
H  H57  1  0.67416523  0.01062684  0.23174982  1  0.6246  0  0.292651  0.364707  0  0.984813  0
H  H58  1  0.17395065  0.22080925  0.23162633  1  0.626883  0  0.292353  0.364261  0  0.985602  0
H  H59  1  0.32583456  0.98937093  0.76825100  1  0.62465  0  0.292657  0.364666  0  0.984844  0
H  H60  1  0.74801493  0.85003932  0.74223425  1  0.647923  0  0.303336  0.400631  0  0.927427  0
H  H61  1  0.75213429  0.10754552  0.25787683  1  0.645881  0  0.303434  0.400639  0  0.927705  0
H  H62  1  0.25198357  0.14996025  0.25776448  1  0.647939  0  0.303352  0.400646  0  0.927406  0
H  H63  1  0.24786475  0.89245320  0.74212493  1  0.645781  0  0.30345  0.400628  0  0.927705  0
H  H64  1  0.17189662  0.59228005  0.18287691  1  0.050756  0  0.107295  0.104468  0  0.985746  0
H  H65  1  0.32770431  0.40935498  0.81686514  1  0.069595  0  0.107451  0.104717  0  0.984912  0
H  H66  1  0.82810652  0.40771839  0.81712146  1  0.050493  0  0.107314  0.104506  0  0.985724  0
H  H67  1  0.67229058  0.59064046  0.18313101  1  0.069905  0  0.10741  0.104712  0  0.98487  0
H  H68  1  0.12867051  0.56373971  0.30030115  1  0.134786  0  0.105633  0.115125  0  1.029915  0
H  H69  1  0.37125722  0.26353715  0.69959435  1  0.132634  0  0.105311  0.11412  0  1.029842  0
H  H70  1  0.87133471  0.43626138  0.69969834  1  0.13479  0  0.105595  0.115114  0  1.029873  0
H  H71  1  0.62873996  0.73646049  0.30040400  1  0.132644  0  0.105299  0.114114  0  1.029797  0
H  H72  1  0.13006884  0.38766160  0.29847816  1  0.102661  0  0.115595  0.088941  0  1.008896  0
H  H73  1  0.36980696  0.08925769  0.70143259  1  0.102238  0  0.115562  0.088861  0  1.009279  0
H  H74  1  0.86993194  0.61234017  0.70152278  1  0.10266  0  0.115648  0.088953  0  1.009017  0
H  H75  1  0.63019489  0.91074050  0.29856709  1  0.10223  0  0.115557  0.088911  0  1.009147  0
H  H76  1  0.21579459  0.44030302  0.06976634  1  0.093537  0  0.103131  0.108018  0  1.023215  0
H  H77  1  0.28367176  0.37045622  0.92991481  1  0.099742  0  0.103092  0.108244  0  1.023688  0
H  H78  1  0.78420800  0.55969367  0.93023184  1  0.093596  0  0.103058  0.10795  0  1.023317  0
H  H79  1  0.71632617  0.62954048  0.07008259  1  0.09971  0  0.103074  0.108235  0  1.023599  0
H  H80  1  0.20495979  0.13883843  0.11369589  1  0.116972  0  0.107766  0.105525  0  1.06628  0
H  H81  1  0.29474173  0.02518737  0.88612894  1  0.079462  0  0.108111  0.106253  0  1.066223  0
H  H82  1  0.79504218  0.86116149  0.88630630  1  0.116984  0  0.107774  0.105558  0  1.066317  0
H  H83  1  0.70526056  0.97481160  0.11387463  1  0.079169  0  0.10811  0.106249  0  1.066061  0
H  H84  1  0.24984090  0.99236383  0.99986561  1  0.081806  0  0.106669  0.102309  0  1.02989  0
H  H85  1  0.75016107  0.00763609  0.00013659  1  0.081778  0  0.106674  0.102306  0  1.029886  0
Pt  Pt86  1  0.08073624  0.53011016  0.62084175  1  0.518431  0  0.526128  0.087594  0  4.719407  0
Pt  Pt87  1  0.41956139  0.90917848  0.37918073  1  0.524459  0  0.526226  0.087058  0  4.719236  0
Pt  Pt88  1  0.91926218  0.46989327  0.37916008  1  0.518231  0  0.5261  0.087601  0  4.718825  0
Pt  Pt89  1  0.58044180  0.09082443  0.62082214  1  0.524508  0  0.526239  0.087048  0  4.719209  0
C  C90  1  0.00999172  0.65221221  0.62947454  1  0.858732  0  0.020191  0.110034  0  3.959177  0
C  C91  1  0.49050114  0.02262803  0.37072313  1  0.851721  0  0.019691  0.109949  0  3.960053  0
C  C92  1  0.99000925  0.34778372  0.37052753  1  0.859128  0  0.0202  0.109999  0  3.95944  0
C  C93  1  0.50950671  0.97737655  0.62928219  1  0.852654  0  0.019677  0.110013  0  3.960015  0
C  C94  1  0.71440329  0.04839859  0.66508014  1  0.847807  0  0.016473  0.110354  0  3.940821  0
C  C95  1  0.78527323  0.38340488  0.33484414  1  0.855718  0  0.01678  0.110744  0  3.940626  0
C  C96  1  0.28559955  0.95160360  0.33491968  1  0.847805  0  0.016433  0.110304  0  3.940816  0
C  C97  1  0.21471922  0.61659756  0.66515203  1  0.855454  0  0.016799  0.110792  0  3.940228  0
C  C98  1  0.14842729  0.40492143  0.60789251  1  0.815018  0  -0.010857  0.039015  0  3.982436  0
C  C99  1  0.35153864  0.79699311  0.39190853  1  0.813574  0  -0.011322  0.039921  0  3.983275  0
C  C100  1  0.85157018  0.59508564  0.39211142  1  0.815366  0  -0.010743  0.039107  0  3.982607  0
C  C101  1  0.64846236  0.20301024  0.60809012  1  0.813153  0  -0.011354  0.039857  0  3.983477  0
C  C102  1  0.94450626  0.44646726  0.57147326  1  0.830979  0  -0.00961  0.029386  0  4.018355  0
C  C103  1  0.55573715  0.87468224  0.42858054  1  0.830899  0  -0.009041  0.030331  0  4.019967  0
C  C104  1  0.05550148  0.55353578  0.42853518  1  0.831157  0  -0.009643  0.029316  0  4.019052  0
C  C105  1  0.44426405  0.12531639  0.57142036  1  0.8309  0  -0.009006  0.030414  0  4.01986  0
C  C106  1  0.06847949  0.84366902  0.54648039  1  0.495464  0  0.057849  0.117662  0  3.922783  0
C  C107  1  0.43152936  0.29696895  0.45347705  1  0.515019  0  0.058062  0.117709  0  3.923506  0
C  C108  1  0.93152322  0.15633031  0.45351579  1  0.495832  0  0.057896  0.117667  0  3.922757  0
C  C109  1  0.56846893  0.70303331  0.54652283  1  0.51509  0  0.058052  0.117634  0  3.923565  0
C  C110  1  0.12947543  0.84788734  0.49821063  1  -0.036779  0  -0.07365  -0.108936  0  3.927352  0
C  C111  1  0.37033201  0.34939536  0.50157384  1  -0.095824  0  -0.07338  -0.10736  0  3.926604  0
C  C112  1  0.87052373  0.15211403  0.50178914  1  -0.036913  0  -0.07365  -0.108903  0  3.927346  0
C  C113  1  0.62966791  0.65060562  0.49842554  1  -0.095999  0  -0.073362  -0.107285  0  3.926531  0
C  C114  1  0.16973998  0.94438476  0.50987969  1  0.00315  0  -0.054692  -0.003298  0  3.911271  0
C  C115  1  0.32991314  0.43413762  0.48975314  1  0.009886  0  -0.054726  -0.00302  0  3.910829  0
C  C116  1  0.83026665  0.05561718  0.49011989  1  0.002973  0  -0.054725  -0.003414  0  3.911499  0
C  C117  1  0.67008322  0.56586483  0.51024926  1  0.009903  0  -0.05475  -0.003047  0  3.910978  0
C  C118  1  0.14644506  0.03282568  0.56842798  1  -0.025011  0  -0.074061  -0.147964  0  3.912375  0
C  C119  1  0.35326719  0.46402583  0.43119758  1  -0.041941  0  -0.074869  -0.148957  0  3.912977  0
C  C120  1  0.85355834  0.96717622  0.43157543  1  -0.024936  0  -0.074144  -0.14799  0  3.91232  0
C  C121  1  0.64673231  0.53597830  0.56880185  1  -0.042241  0  -0.074836  -0.148894  0  3.912985  0
C  C122  1  0.08458763  0.02252592  0.61466021  1  0.475656  0  0.121511  0.170461  0  3.994756  0
C  C123  1  0.41527725  0.40754818  0.38512497  1  0.464391  0  0.122277  0.170182  0  3.995402  0
C  C124  1  0.91541399  0.97747104  0.38533669  1  0.475689  0  0.121624  0.170508  0  3.994577  0
C  C125  1  0.58472452  0.59245388  0.61487781  1  0.463252  0  0.122298  0.170344  0  3.995275  0
C  C126  1  0.06048758  0.11459953  0.67931300  1  0.470174  0  0.133331  0.197679  0  3.976555  0
C  C127  1  0.43936406  0.43502196  0.32050485  1  0.514609  0  0.133405  0.198541  0  3.978296  0
C  C128  1  0.93950897  0.88540059  0.32068318  1  0.469915  0  0.133364  0.197691  0  3.976417  0
C  C129  1  0.56063912  0.56498151  0.67949857  1  0.515184  0  0.13341  0.19839  0  3.978345  0
C  C130  1  0.07527428  0.21303603  0.68080123  1  -0.008208  0  -0.074071  -0.146586  0  3.909412  0
C  C131  1  0.42471282  0.53204029  0.31914031  1  -0.035017  0  -0.073885  -0.146662  0  3.908816  0
C  C132  1  0.92472416  0.78695682  0.31919077  1  -0.007903  0  -0.074087  -0.146578  0  3.909274  0
C  C133  1  0.57528886  0.46796339  0.68086333  1  -0.035061  0  -0.073894  -0.146685  0  3.908904  0
C  C134  1  0.05312588  0.29755769  0.74336536  1  -0.032113  0  -0.062542  -0.005557  0  3.958718  0
C  C135  1  0.44698251  0.55411788  0.25666166  1  -0.046404  0  -0.062553  -0.00559  0  3.95802  0
C  C136  1  0.94687251  0.70244442  0.25662971  1  -0.032286  0  -0.0626  -0.005722  0  3.959114  0
C  C137  1  0.55301916  0.44588468  0.74334086  1  -0.046404  0  -0.062602  -0.005646  0  3.957937  0
C  C138  1  0.02066070  0.28290052  0.80482817  1  -0.008941  0  -0.077248  -0.154508  0  3.932143  0
C  C139  1  0.47934311  0.47801788  0.19512471  1  0.007802  0  -0.077812  -0.155225  0  3.931228  0
C  C140  1  0.97933483  0.71709392  0.19516619  1  -0.008976  0  -0.077319  -0.154624  0  3.932025  0
C  C141  1  0.52065910  0.52198328  0.80488027  1  0.007834  0  -0.077796  -0.155253  0  3.931028  0
C  C142  1  0.00829498  0.18281771  0.80058916  1  0.521212  0  0.128903  0.195434  0  3.989494  0
C  C143  1  0.49150128  0.38204784  0.19922077  1  0.489494  0  0.12953  0.195972  0  3.989094  0
C  C144  1  0.99170137  0.81718510  0.19940817  1  0.521478  0  0.128953  0.195627  0  3.989278  0
C  C145  1  0.50850060  0.61795539  0.80078396  1  0.489536  0  0.129523  0.196146  0  3.988931  0
C  C146  1  0.97924845  0.16326221  0.86683983  1  0.488762  0  0.128522  0.191331  0  3.974588  0
C  C147  1  0.52046377  0.29618699  0.13295636  1  0.502333  0  0.128941  0.191266  0  3.974289  0
C  C148  1  0.02074971  0.83673775  0.13315697  1  0.488992  0  0.128577  0.191406  0  3.974359  0
C  C149  1  0.47953397  0.70381148  0.86704671  1  0.502095  0  0.128891  0.191056  0  3.974481  0
C  C150  1  0.97501946  0.24395978  0.94261200  1  0.014234  0  -0.081191  -0.159582  0  3.941048  0
C  C151  1  0.52455372  0.30108783  0.05710672  1  -0.009187  0  -0.081075  -0.15913  0  3.940907  0
C  C152  1  0.02497707  0.75603866  0.05738249  1  0.013713  0  -0.081233  -0.159693  0  3.941258  0
C  C153  1  0.47544315  0.69891041  0.94289535  1  -0.009281  0  -0.081036  -0.158929  0  3.940862  0
C  C154  1  0.95002279  0.22085036  0.00380314  1  -0.030427  0  -0.061248  -0.009754  0  3.945965  0
C  C155  1  0.54953092  0.21678101  0.99594377  1  -0.04047  0  -0.060686  -0.00855  0  3.946825  0
C  C156  1  0.04997770  0.77915460  0.99619869  1  -0.030002  0  -0.061201  -0.009604  0  3.946158  0
C  C157  1  0.45046367  0.78321615  0.00405721  1  -0.039662  0  -0.060702  -0.008622  0  3.946779  0
C  C158  1  0.93028823  0.11751718  0.98798985  1  0.008907  0  -0.078529  -0.107973  0  3.930678  0
C  C159  1  0.56937667  0.12930358  0.01185570  1  -0.016608  0  -0.079191  -0.109006  0  3.929779  0
C  C160  1  0.06971492  0.88248293  0.01201021  1  0.009225  0  -0.078619  -0.10816  0  3.930685  0
C  C161  1  0.43061661  0.87069222  0.98814546  1  -0.017166  0  -0.07915  -0.109018  0  3.929869  0
C  C162  1  0.93631440  0.04157897  0.91153056  1  0.48777  0  0.058357  0.117848  0  3.966921  0
C  C163  1  0.56353358  0.12989844  0.08840743  1  0.492508  0  0.059268  0.119808  0  3.964431  0
C  C164  1  0.06368770  0.95842473  0.08847076  1  0.4875  0  0.05833  0.117839  0  3.966834  0
C  C165  1  0.43646197  0.87009732  0.91159369  1  0.492381  0  0.059231  0.119778  0  3.964656  0
C  C166  1  0.17055675  0.51598238  0.18383276  1  -0.018356  0  -0.075557  -0.038354  0  4.003267  0
C  C167  1  0.32913550  0.33212466  0.81595076  1  -0.033804  0  -0.075705  -0.039053  0  4.00325  0
C  C168  1  0.82944790  0.48401529  0.81616485  1  -0.018062  0  -0.07553  -0.038324  0  4.003022  0
C  C169  1  0.67086318  0.66787053  0.18404514  1  -0.034566  0  -0.075701  -0.039102  0  4.003319  0
C  C170  1  0.14621671  0.50093647  0.24887310  1  -0.094656  0  -0.084571  -0.130564  0  3.973607  0
C  C171  1  0.35362816  0.25212507  0.75100248  1  -0.100163  0  -0.084031  -0.128647  0  3.97213  0
C  C172  1  0.85378645  0.49906420  0.75112752  1  -0.094792  0  -0.084592  -0.130655  0  3.973658  0
C  C173  1  0.64637044  0.74787399  0.24899652  1  -0.100168  0  -0.084  -0.128607  0  3.97217  0
C  C174  1  0.14849889  0.40258857  0.24860816  1  0.510006  0  0.047207  0.091975  0  3.963418  0
C  C175  1  0.35134370  0.15403688  0.75125957  1  0.51897  0  0.047453  0.091825  0  3.962864  0
C  C176  1  0.85150339  0.59741075  0.75139033  1  0.509965  0  0.047107  0.091963  0  3.963443  0
C  C177  1  0.64865770  0.84595850  0.24873962  1  0.519025  0  0.047468  0.091817  0  3.96292  0
C  C178  1  0.19567473  0.43298307  0.12174249  1  -0.038467  0  -0.090026  -0.170113  0  3.978573  0
C  C179  1  0.30393079  0.31121383  0.87801905  1  -0.04874  0  -0.089615  -0.169771  0  3.980351  0
C  C180  1  0.80432865  0.56701659  0.87825867  1  -0.038528  0  -0.089969  -0.170052  0  3.978332  0
C  C181  1  0.69606672  0.68878342  0.12198124  1  -0.048466  0  -0.089553  -0.169666  0  3.980555  0
C  C182  1  0.19750329  0.33677581  0.12661369  1  0.491985  0  0.119345  0.173939  0  3.97655  0
C  C183  1  0.30222677  0.21016386  0.87322315  1  0.509901  0  0.119118  0.17274  0  3.978113  0
C  C184  1  0.80249942  0.66322261  0.87338700  1  0.492008  0  0.11939  0.173993  0  3.976323  0
C  C185  1  0.69777202  0.78983195  0.12677414  1  0.509784  0  0.119052  0.172622  0  3.978343  0
C  C186  1  0.22518872  0.24764345  0.06106768  1  0.501373  0  0.11555  0.170721  0  4.008437  0
C  C187  1  0.27461524  0.18659677  0.93882633  1  0.536771  0  0.11564  0.172686  0  4.005787  0
C  C188  1  0.77481172  0.75235500  0.93893304  1  0.501386  0  0.115558  0.170786  0  4.008352  0
C  C189  1  0.72538345  0.81339954  0.06117069  1  0.536844  0  0.11571  0.172816  0  4.005817  0
C  C190  1  0.22439914  0.15006109  0.06312509  1  -0.050171  0  -0.081243  -0.142318  0  3.918776  0
C  C191  1  0.27537571  0.08692317  0.93673433  1  -0.050614  0  -0.081589  -0.144315  0  3.918406  0
C  C192  1  0.77560185  0.84993855  0.93687527  1  -0.050135  0  -0.081252  -0.142404  0  3.918787  0
C  C193  1  0.72462546  0.91307210  0.06326320  1  -0.050177  0  -0.081604  -0.144325  0  3.918439  0
C  C194  1  0.24987516  0.06904149  0.99991758  1  0.017044  0  -0.07623  -0.031174  0  3.960963  0
C  C195  1  0.75012507  0.93095538  0.00008544  1  0.017123  0  -0.076208  -0.031125  0  3.961086  0
N  N196  1  0.96757151  0.72464042  0.63403845  1  -1.385297  0  -0.456729  -0.473159  0  3.209062  0
N  N197  1  0.53298011  0.09047567  0.36624282  1  -1.379795  0  -0.456117  -0.473168  0  3.208356  0
N  N198  1  0.03242086  0.27536441  0.36596478  1  -1.385671  0  -0.45671  -0.473092  0  3.209575  0
N  N199  1  0.46702719  0.90952715  0.63376230  1  -1.380705  0  -0.456087  -0.473182  0  3.208363  0
N  N200  1  0.79245499  0.01810331  0.68622692  1  -1.381038  0  -0.452144  -0.467106  0  3.204999  0
N  N201  1  0.70731441  0.33189090  0.31365930  1  -1.388622  0  -0.452421  -0.467823  0  3.204679  0
N  N202  1  0.20754513  0.98189554  0.31377187  1  -1.381007  0  -0.452111  -0.467074  0  3.204984  0
N  N203  1  0.29268134  0.66812146  0.68633751  1  -1.388399  0  -0.452468  -0.467856  0  3.204183  0
N  N204  1  0.18620669  0.32859405  0.59609860  1  -1.351714  0  -0.358959  -0.385595  0  3.081261  0
N  N205  1  0.31348220  0.73249678  0.40352234  1  -1.353491  0  -0.358724  -0.386717  0  3.081418  0
N  N206  1  0.81379552  0.67140822  0.40390751  1  -1.351983  0  -0.35912  -0.385723  0  3.081513  0
N  N207  1  0.68651748  0.26750353  0.59647482  1  -1.353087  0  -0.358725  -0.386692  0  3.081648  0
N  N208  1  0.86170745  0.40035948  0.54014119  1  -1.351479  0  -0.341701  -0.366123  0  3.118365  0
N  N209  1  0.63856118  0.85999158  0.46002074  1  -1.351096  0  -0.342082  -0.36666  0  3.122072  0
N  N210  1  0.13828811  0.59963685  0.45986049  1  -1.351681  0  -0.341687  -0.366059  0  3.119074  0
N  N211  1  0.36143868  0.14000120  0.53997585  1  -1.351034  0  -0.342118  -0.366728  0  3.121992  0
N  N212  1  0.12061940  0.85710487  0.81304473  1  0.829522  0  0.088612  0.718191  0  4.417101  0
N  N213  1  0.37977233  0.04401858  0.18695071  1  0.809629  0  0.088653  0.717416  0  4.415912  0
N  N214  1  0.87937834  0.14289564  0.18695495  1  0.829504  0  0.088659  0.718275  0  4.416831  0
N  N215  1  0.62022943  0.95598235  0.81305095  1  0.809606  0  0.088656  0.717446  0  4.415893  0
N  N216  1  0.04655690  0.92853119  0.60403621  1  -1.244398  0  -0.372195  -0.363433  0  3.460322  0
N  N217  1  0.45348939  0.32424172  0.39589799  1  -1.230734  0  -0.373237  -0.364215  0  3.459219  0
N  N218  1  0.95344472  0.07146633  0.39596125  1  -1.244534  0  -0.372292  -0.363474  0  3.460439  0
N  N219  1  0.54650979  0.67576132  0.60410345  1  -1.230003  0  -0.373255  -0.364287  0  3.459196  0
N  N220  1  0.02472259  0.09975954  0.73683334  1  -1.227482  0  -0.35939  -0.398494  0  3.423966  0
N  N221  1  0.47504333  0.36264538  0.26292829  1  -1.210318  0  -0.359635  -0.39887  0  3.426005  0
N  N222  1  0.97527361  0.90023726  0.26316261  1  -1.227638  0  -0.359414  -0.39859  0  3.424335  0
N  N223  1  0.52496019  0.63735882  0.73707820  1  -1.210404  0  -0.359614  -0.398886  0  3.425902  0
N  N224  1  0.96014220  0.06295716  0.85216510  1  -1.236293  0  -0.376666  -0.370338  0  3.490085  0
N  N225  1  0.53969676  0.21065196  0.14774120  1  -1.239307  0  -0.377372  -0.372003  0  3.490249  0
N  N226  1  0.03985620  0.93704347  0.14783393  1  -1.236477  0  -0.376646  -0.370338  0  3.49006  0
N  N227  1  0.46029935  0.78934667  0.85226125  1  -1.239358  0  -0.377314  -0.371829  0  3.490183  0
N  N228  1  0.17386864  0.32216990  0.18978813  1  -1.205497  0  -0.300993  -0.28547  0  3.336396  0
N  N229  1  0.32592529  0.13243940  0.81008587  1  -1.223333  0  -0.301418  -0.285765  0  3.337792  0
N  N230  1  0.82613301  0.67783098  0.81021269  1  -1.20543  0  -0.300985  -0.285517  0  3.336186  0
N  N231  1  0.67407504  0.86755844  0.18991346  1  -1.22351  0  -0.301457  -0.285851  0  3.337812  0
N  N232  1  0.24992072  0.26511244  0.99996131  1  -1.209084  0  -0.30799  -0.338334  0  3.320972  0
N  N233  1  0.75007798  0.73488556  0.00003740  1  -1.208971  0  -0.308027  -0.338429  0  3.321028  0
O  O234  1  0.13010925  0.89873782  0.76242124  1  -0.610925  0  -0.228626  -0.526477  0  2.099846  0
O  O235  1  0.37008953  0.13615351  0.23757425  1  -0.603943  0  -0.228018  -0.525817  0  2.096757  0
O  O236  1  0.86988925  0.10126287  0.23757862  1  -0.610874  0  -0.2286  -0.526454  0  2.099817  0
O  O237  1  0.62991146  0.86384613  0.76242611  1  -0.603944  0  -0.228035  -0.525875  0  2.096798  0
O  O238  1  0.03106880  0.84973921  0.81827360  1  -0.56051  0  -0.219954  -0.48746  0  2.065253  0
O  O239  1  0.46941146  0.03147076  0.18191245  1  -0.562724  0  -0.220211  -0.487472  0  2.067667  0
O  O240  1  0.96893068  0.15026064  0.18172697  1  -0.560442  0  -0.220074  -0.487603  0  2.065015  0
O  O241  1  0.53058888  0.96852932  0.81808913  1  -0.562723  0  -0.220183  -0.487461  0  2.067645  0
O  O242  1  0.19372128  0.82711172  0.85329992  1  -0.468498  0  -0.137221  -0.363697  0  1.937578  0
O  O243  1  0.30672783  0.97379831  0.14648836  1  -0.454524  0  -0.138008  -0.363822  0  1.936041  0
O  O244  1  0.80627950  0.17288893  0.14669990  1  -0.468532  0  -0.137166  -0.363658  0  1.937564  0
O  O245  1  0.69327229  0.02620166  0.85351155  1  -0.454513  0  -0.138018  -0.363828  0  1.93604  0
O  O246  1  0.82234863  0.83820841  0.55368167  1  -1.286551  0  -0.670238  -0.873792  0  2.160071  0
O  O247  1  0.67808294  0.28431509  0.44641826  1  -1.296824  0  -0.669146  -0.873158  0  2.159838  0
O  O248  1  0.17765327  0.16179741  0.44632023  1  -1.286421  0  -0.670202  -0.873752  0  2.160059  0
O  O249  1  0.32191742  0.71568814  0.55358105  1  -1.296787  0  -0.66909  -0.873157  0  2.159846  0
O  O250  1  0.81629465  0.82966997  0.74140056  1  -1.282702  0  -0.641647  -0.828528  0  2.096901  0
O  O251  1  0.68391334  0.08805327  0.25879688  1  -1.280823  0  -0.642447  -0.829461  0  2.096985  0
O  O252  1  0.18370309  0.17032942  0.25859800  1  -1.282686  0  -0.641653  -0.828556  0  2.096942  0
O  O253  1  0.31608657  0.91194567  0.74120589  1  -1.280746  0  -0.642473  -0.829385  0  2.097067  0
