# generated using pymatgen
data_ZnH27C38N5O4
_symmetry_space_group_name_H-M   'P 1'
_cell_length_a   7.89142487
_cell_length_b   14.98654729
_cell_length_c   33.81309116
_cell_angle_alpha   89.99999854
_cell_angle_beta   89.99994558
_cell_angle_gamma   103.70118534
_symmetry_Int_Tables_number   1
_chemical_formula_structural   ZnH27C38N5O4
_chemical_formula_sum   'Zn4 H108 C152 N20 O16'
_cell_volume   3885.12022314
_cell_formula_units_Z   4
loop_
 _symmetry_equiv_pos_site_id
 _symmetry_equiv_pos_as_xyz
  1  'x, y, z'
loop_
 _atom_site_type_symbol
 _atom_site_label
 _atom_site_symmetry_multiplicity
 _atom_site_fract_x
 _atom_site_fract_y
 _atom_site_fract_z
 _atom_site_occupancy
 _atom_site_pbe_bader_charge
 _atom_site_pbe_bader_spin_density
 _atom_site_pbe_cm5_charge
 _atom_site_pbe_ddec_charge
 _atom_site_pbe_ddec_spin_density
 _atom_site_pbe_ddec_sum_bond_order
 _atom_site_pbe_magmom
Zn  Zn0  1  0.11742083  0.31769826  0.14946576  1  1.256657  0  0.698468  0.784207  0  2.385242  0
Zn  Zn1  1  0.38258710  0.68230252  0.64946645  1  1.256741  0  0.698448  0.784292  0  2.384969  0
Zn  Zn2  1  0.88258296  0.68230023  0.85053409  1  1.256895  0  0.698452  0.784311  0  2.385027  0
Zn  Zn3  1  0.61741539  0.31769872  0.35053428  1  1.256706  0  0.698496  0.784268  0  2.385251  0
H  H4  1  0.04783213  0.51885230  0.16347780  1  0.146578  0  0.142883  0.109933  0  0.992184  0
H  H5  1  0.45217797  0.48114779  0.66347759  1  0.146503  0  0.142884  0.109922  0  0.992224  0
H  H6  1  0.95217923  0.48114894  0.83652294  1  0.146503  0  0.142883  0.109926  0  0.992191  0
H  H7  1  0.54782675  0.51885277  0.33652137  1  0.146525  0  0.142887  0.109916  0  0.992211  0
H  H8  1  0.95694070  0.11301760  0.05994591  1  0.082976  0  0.103732  0.108604  0  1.015399  0
H  H9  1  0.54304273  0.88698495  0.55994490  1  0.082724  0  0.103673  0.108458  0  1.015463  0
H  H10  1  0.04304055  0.88698431  0.94005039  1  0.082393  0  0.10373  0.108545  0  1.015492  0
H  H11  1  0.45694774  0.11301491  0.44005495  1  0.08281  0  0.103713  0.108586  0  1.01539  0
H  H12  1  0.84306526  0.96765886  0.02319654  1  0.093036  0  0.102455  0.113035  0  1.014166  0
H  H13  1  0.65691802  0.03234303  0.52319463  1  0.093071  0  0.102464  0.113019  0  1.014198  0
H  H14  1  0.15691318  0.03233963  0.97680331  1  0.093211  0  0.102456  0.112976  0  1.014067  0
H  H15  1  0.34306737  0.96765683  0.47680493  1  0.092972  0  0.10248  0.11307  0  1.014144  0
H  H16  1  0.13657707  0.18303509  0.29997138  1  0.203382  0  0.122178  0.141209  0  1.051893  0
H  H17  1  0.36342640  0.81696560  0.79996793  1  0.203395  0  0.122187  0.14122  0  1.05187  0
H  H18  1  0.86342515  0.81696272  0.70003084  1  0.203377  0  0.122178  0.141143  0  1.051976  0
H  H19  1  0.63658020  0.18303632  0.20002808  1  0.203317  0  0.122185  0.141212  0  1.051916  0
H  H20  1  0.63890515  0.00439256  0.15974132  1  0.093618  0  0.095113  0.096064  0  1.040135  0
H  H21  1  0.86109308  0.99560719  0.65973787  1  0.093059  0  0.095163  0.096129  0  1.040067  0
H  H22  1  0.36109860  0.99560868  0.84025942  1  0.093641  0  0.09509  0.095987  0  1.040104  0
H  H23  1  0.13890722  0.00439198  0.34026051  1  0.093648  0  0.09511  0.096001  0  1.040163  0
H  H24  1  0.84254021  0.78033145  0.18859727  1  0.048042  0  0.10308  0.100979  0  1.011679  0
H  H25  1  0.65746673  0.21967103  0.68859654  1  0.047857  0  0.103071  0.100964  0  1.011719  0
H  H26  1  0.15746036  0.21967116  0.81140406  1  0.048418  0  0.103072  0.10093  0  1.011774  0
H  H27  1  0.34254083  0.78033021  0.31140331  1  0.048009  0  0.103123  0.101064  0  1.011727  0
H  H28  1  0.58614061  0.12084120  0.31253835  1  0.192403  0  0.132752  0.105095  0  1.071664  0
H  H29  1  0.91386264  0.87915983  0.81253726  1  0.192266  0  0.132744  0.105097  0  1.071698  0
H  H30  1  0.41386030  0.87915935  0.68746416  1  0.192298  0  0.132777  0.105145  0  1.071654  0
H  H31  1  0.08614715  0.12084072  0.18746259  1  0.192361  0  0.132773  0.105165  0  1.071581  0
H  H32  1  0.90044611  0.71795272  0.31181315  1  0.060384  0  0.099502  0.09551  0  1.028514  0
H  H33  1  0.59954960  0.28204282  0.81181273  1  0.060399  0  0.09952  0.095542  0  1.0285  0
H  H34  1  0.09955706  0.28204440  0.68818729  1  0.060412  0  0.099498  0.09552  0  1.02848  0
H  H35  1  0.40045069  0.71795635  0.18818712  1  0.060371  0  0.099504  0.095535  0  1.028522  0
H  H36  1  0.75627700  0.71307374  0.00587870  1  0.063887  0  0.105958  0.114671  0  0.98992  0
H  H37  1  0.74372372  0.28693297  0.50587795  1  0.063636  0  0.105972  0.114718  0  0.989848  0
H  H38  1  0.24372575  0.28693094  0.99412204  1  0.063712  0  0.105965  0.114686  0  0.989783  0
H  H39  1  0.25626925  0.71306963  0.49411983  1  0.064027  0  0.105969  0.114703  0  0.989806  0
H  H40  1  0.87895557  0.62732053  0.17063056  1  0.073344  0  0.10947  0.114366  0  1.007145  0
H  H41  1  0.62105840  0.37268334  0.67063072  1  0.073325  0  0.109479  0.114379  0  1.007143  0
H  H42  1  0.12105069  0.37268345  0.82937018  1  0.073293  0  0.109456  0.11434  0  1.007225  0
H  H43  1  0.37894662  0.62731790  0.32936854  1  0.073372  0  0.109493  0.114413  0  1.007116  0
H  H44  1  0.48643646  0.92323520  0.92707194  1  0.064101  0  0.091453  0.08911  0  1.055723  0
H  H45  1  0.01355250  0.07676540  0.42707098  1  0.064129  0  0.091431  0.089141  0  1.055656  0
H  H46  1  0.51354736  0.07676397  0.07292821  1  0.064055  0  0.091431  0.089168  0  1.055631  0
H  H47  1  0.98644561  0.92323171  0.57293005  1  0.064133  0  0.091448  0.089123  0  1.055688  0
H  H48  1  0.51447752  0.86131676  0.12266338  1  0.042615  0  0.095758  0.101625  0  1.036233  0
H  H49  1  0.98552279  0.13868164  0.62265932  1  0.042875  0  0.095797  0.10169  0  1.03624  0
H  H50  1  0.48552846  0.13868380  0.87733884  1  0.042653  0  0.09577  0.101657  0  1.036182  0
H  H51  1  0.01446959  0.86131684  0.37733846  1  0.042724  0  0.095778  0.101656  0  1.036185  0
H  H52  1  0.93057177  0.56457592  0.29404104  1  0.169437  0  0.105744  0.124825  0  1.06377  0
H  H53  1  0.56942432  0.43542031  0.79404091  1  0.169485  0  0.105755  0.124893  0  1.063762  0
H  H54  1  0.06943739  0.43542326  0.70595852  1  0.169682  0  0.105742  0.124835  0  1.063712  0
H  H55  1  0.43057186  0.56457818  0.20595894  1  0.169471  0  0.10574  0.124831  0  1.063785  0
H  H56  1  0.47051099  0.92430351  0.00061598  1  0.049694  0  0.101475  0.107907  0  1.020664  0
H  H57  1  0.02947704  0.07569392  0.50061586  1  0.04962  0  0.101467  0.107901  0  1.020693  0
H  H58  1  0.52946214  0.07568879  0.99938447  1  0.049509  0  0.10151  0.107945  0  1.020693  0
H  H59  1  0.97051346  0.92430320  0.49938606  1  0.049769  0  0.101468  0.107902  0  1.020703  0
H  H60  1  0.77983985  0.97548329  0.34568200  1  0.074366  0  0.113636  0.123802  0  0.980407  0
H  H61  1  0.72016044  0.02451429  0.84568007  1  0.074415  0  0.11365  0.123838  0  0.980406  0
H  H62  1  0.22015480  0.02451176  0.65432140  1  0.074398  0  0.113688  0.123858  0  0.980414  0
H  H63  1  0.27984462  0.97548420  0.15431889  1  0.074369  0  0.113672  0.123845  0  0.980381  0
H  H64  1  0.03038706  0.33859479  0.32607400  1  0.153362  0  0.122178  0.130853  0  1.008396  0
H  H65  1  0.46961502  0.66140588  0.82607201  1  0.153411  0  0.122122  0.130742  0  1.008335  0
H  H66  1  0.96961481  0.66140507  0.67392585  1  0.15335  0  0.122167  0.130854  0  1.00841  0
H  H67  1  0.53039000  0.33859536  0.17392666  1  0.153276  0  0.122208  0.130961  0  1.008413  0
H  H68  1  0.90892402  0.27824313  0.23222682  1  0.096644  0  0.119504  0.115382  0  1.022868  0
H  H69  1  0.59108910  0.72175658  0.73222639  1  0.096669  0  0.119469  0.115442  0  1.022827  0
H  H70  1  0.09107943  0.72175742  0.76777333  1  0.09661  0  0.119483  0.115374  0  1.02291  0
H  H71  1  0.40891975  0.27824191  0.26777316  1  0.096599  0  0.119463  0.115361  0  1.022903  0
H  H72  1  0.90692366  0.91682018  0.20540614  1  0.048162  0  0.101814  0.099074  0  1.017769  0
H  H73  1  0.59308512  0.08318092  0.70540394  1  0.048137  0  0.101798  0.099032  0  1.017786  0
H  H74  1  0.09308993  0.08318038  0.79459785  1  0.04808  0  0.101835  0.099106  0  1.017661  0
H  H75  1  0.40693096  0.91682238  0.29459443  1  0.048135  0  0.101786  0.099055  0  1.017772  0
H  H76  1  0.82565341  0.42169520  0.27437441  1  0.191658  0  0.125761  0.135488  0  1.043517  0
H  H77  1  0.67435288  0.57830380  0.77437455  1  0.191635  0  0.125716  0.135455  0  1.043515  0
H  H78  1  0.17434907  0.57830604  0.72562544  1  0.19164  0  0.125738  0.135454  0  1.043533  0
H  H79  1  0.32565156  0.42169332  0.22562500  1  0.191626  0  0.125735  0.135443  0  1.043538  0
H  H80  1  0.89240251  0.07213735  0.22655594  1  0.147096  0  0.106189  0.122545  0  1.045987  0
H  H81  1  0.60760714  0.92786306  0.72655314  1  0.14705  0  0.106165  0.122468  0  1.046102  0
H  H82  1  0.10760792  0.92786184  0.77344805  1  0.147196  0  0.106204  0.122501  0  1.046125  0
H  H83  1  0.39240895  0.07214025  0.27344375  1  0.147077  0  0.10617  0.122511  0  1.045964  0
H  H84  1  0.77357708  0.81732581  0.32394308  1  0.042793  0  0.103096  0.101046  0  1.011042  0
H  H85  1  0.72643056  0.18267385  0.82394233  1  0.04289  0  0.103045  0.100996  0  1.010977  0
H  H86  1  0.22642071  0.18267062  0.67605825  1  0.042891  0  0.103038  0.10102  0  1.011059  0
H  H87  1  0.27357511  0.81732602  0.17605781  1  0.042835  0  0.103045  0.100986  0  1.011078  0
H  H88  1  0.76633708  0.70875087  0.93242043  1  0.114763  0  0.101764  0.111673  0  1.02464  0
H  H89  1  0.73366237  0.29125696  0.43241942  1  0.114514  0  0.101748  0.113967  0  1.021754  0
H  H90  1  0.23367098  0.29125998  0.06758031  1  0.114614  0  0.101738  0.113943  0  1.021767  0
H  H91  1  0.26634707  0.70874566  0.56757807  1  0.114676  0  0.101755  0.111696  0  1.024543  0
H  H92  1  0.63362586  0.81507488  0.89285086  1  0.067478  0  0.092681  0.088373  0  1.046125  0
H  H93  1  0.86637127  0.18493023  0.39285012  1  0.067464  0  0.092655  0.088308  0  1.046086  0
H  H94  1  0.36638224  0.18493323  0.10714958  1  0.067436  0  0.092647  0.08829  0  1.046129  0
H  H95  1  0.13363978  0.81507033  0.60714944  1  0.067481  0  0.092688  0.088369  0  1.046126  0
H  H96  1  0.61494569  0.61503180  0.15079389  1  0.092825  0  0.095938  0.093031  0  1.05619  0
H  H97  1  0.88506019  0.38496796  0.65079518  1  0.092624  0  0.095957  0.093053  0  1.056141  0
H  H98  1  0.38504577  0.38496463  0.84920685  1  0.092817  0  0.095927  0.092991  0  1.056238  0
H  H99  1  0.11494041  0.61503190  0.34920793  1  0.092725  0  0.09592  0.092963  0  1.056195  0
H  H100  1  0.34937841  0.68496351  0.02500891  1  0.086513  0  0.108259  0.120583  0  0.993628  0
H  H101  1  0.15063137  0.31503459  0.52500966  1  0.086173  0  0.10826  0.120646  0  0.993631  0
H  H102  1  0.65063333  0.31503292  0.97498769  1  0.086271  0  0.108263  0.120641  0  0.993641  0
H  H103  1  0.84936132  0.68496458  0.47499079  1  0.086147  0  0.108304  0.120659  0  0.993521  0
H  H104  1  0.73234738  0.76523774  0.11720600  1  0.059897  0  0.098926  0.107098  0  1.016662  0
H  H105  1  0.76765419  0.23476341  0.61720524  1  0.059898  0  0.098928  0.107103  0  1.016655  0
H  H106  1  0.26764277  0.23476143  0.88279563  1  0.05974  0  0.098954  0.10718  0  1.016526  0
H  H107  1  0.23234039  0.76523714  0.38279697  1  0.059919  0  0.098947  0.107154  0  1.016692  0
H  H108  1  0.23673818  0.53470805  0.05877099  1  0.115184  0  0.106772  0.113468  0  0.990917  0
H  H109  1  0.26327049  0.46529072  0.55877142  1  0.114916  0  0.106727  0.113394  0  0.990985  0
H  H110  1  0.76327674  0.46528701  0.94122501  1  0.11493  0  0.106752  0.113446  0  0.990967  0
H  H111  1  0.73672539  0.53470708  0.44122932  1  0.115078  0  0.106693  0.113365  0  0.991002  0
C  C112  1  0.90609381  0.58593320  0.23112014  1  0.260279  0  0.095981  0.175084  0  4.006232  0
C  C113  1  0.59391263  0.41406857  0.73111942  1  0.260345  0  0.096079  0.175025  0  4.006373  0
C  C114  1  0.09391659  0.41406873  0.76887971  1  0.260365  0  0.096021  0.175022  0  4.006247  0
C  C115  1  0.40608924  0.58593130  0.26887983  1  0.260311  0  0.096018  0.175044  0  4.006303  0
C  C116  1  0.61516761  0.81993672  0.00755824  1  0.312342  0  0.08355  0.16575  0  4.05302  0
C  C117  1  0.88483026  0.18006931  0.50755687  1  0.312021  0  0.083448  0.165757  0  4.052787  0
C  C118  1  0.38482347  0.18006452  0.99244249  1  0.31211  0  0.083374  0.165546  0  4.05289  0
C  C119  1  0.11516777  0.81993330  0.49244239  1  0.312269  0  0.083556  0.165873  0  4.052925  0
C  C120  1  0.86623256  0.76211404  0.25182574  1  -0.001841  0  -0.007539  0.056724  0  3.995467  0
C  C121  1  0.63376845  0.23788429  0.75182501  1  -0.001777  0  -0.007456  0.056906  0  3.99547  0
C  C122  1  0.13376742  0.23788445  0.74817559  1  -0.001763  0  -0.007496  0.056837  0  3.995524  0
C  C123  1  0.36623815  0.76211764  0.24817484  1  -0.001794  0  -0.007523  0.056734  0  3.995512  0
C  C124  1  0.87896720  0.15350618  0.13538386  1  1.558737  0  0.195494  0.559692  0  4.23614  0
C  C125  1  0.62102638  0.84649427  0.63538253  1  1.55888  0  0.19549  0.559598  0  4.236145  0
C  C126  1  0.12103467  0.84649369  0.86461629  1  1.558747  0  0.195579  0.55993  0  4.235834  0
C  C127  1  0.37897104  0.15350696  0.36461761  1  1.558862  0  0.195517  0.559822  0  4.236288  0
C  C128  1  0.84902626  0.85474558  0.26339522  1  0.001869  0  -0.002833  0.067201  0  3.980944  0
C  C129  1  0.65097819  0.14525205  0.76339479  1  0.001915  0  -0.002866  0.067034  0  3.981216  0
C  C130  1  0.15097280  0.14525085  0.73660522  1  0.002109  0  -0.002852  0.067141  0  3.981111  0
C  C131  1  0.34903543  0.85474576  0.23660506  1  0.002491  0  -0.002844  0.067168  0  3.980938  0
C  C132  1  0.80629900  0.06823145  0.11240253  1  -0.061644  0  -0.036835  -0.072956  0  4.0211  0
C  C133  1  0.69368420  0.93177107  0.61240030  1  -0.062181  0  -0.036844  -0.073017  0  4.020916  0
C  C134  1  0.19369331  0.93177253  0.88759525  1  -0.061533  0  -0.036866  -0.073236  0  4.021293  0
C  C135  1  0.30630247  0.06822879  0.38759896  1  -0.061818  0  -0.036898  -0.073121  0  4.021232  0
C  C136  1  0.99518389  0.47186181  0.18718449  1  0.969823  0  0.148916  0.102566  0  3.889786  0
C  C137  1  0.50482597  0.52813587  0.68718527  1  0.969897  0  0.14903  0.102658  0  3.889749  0
C  C138  1  0.00482370  0.52813669  0.81281477  1  0.969751  0  0.149021  0.102689  0  3.889777  0
C  C139  1  0.49517625  0.47186193  0.31281458  1  0.969811  0  0.14902  0.102739  0  3.889832  0
C  C140  1  0.86092468  0.05711484  0.07358383  1  -0.005508  0  -0.082849  -0.066333  0  3.986015  0
C  C141  1  0.63906314  0.94288633  0.57358221  1  -0.00499  0  -0.082711  -0.066013  0  3.985885  0
C  C142  1  0.13905944  0.94288502  0.92641395  1  -0.004622  0  -0.082842  -0.066249  0  3.985888  0
C  C143  1  0.36092541  0.05711490  0.42641676  1  -0.005407  0  -0.082746  -0.066238  0  3.985983  0
C  C144  1  0.79709221  0.97575767  0.05304918  1  -0.048902  0  -0.103314  -0.193031  0  3.989693  0
C  C145  1  0.70289155  0.02424557  0.55304815  1  -0.049587  0  -0.103326  -0.19307  0  3.989648  0
C  C146  1  0.20289664  0.02424425  0.94694860  1  -0.049478  0  -0.103243  -0.192828  0  3.989495  0
C  C147  1  0.29708969  0.97575634  0.44695200  1  -0.049461  0  -0.103378  -0.193064  0  3.98962  0
C  C148  1  0.00808078  0.19535427  0.30468022  1  0.216199  0  0.002446  -0.103207  0  3.878952  0
C  C149  1  0.49192393  0.80464642  0.80467792  1  0.21623  0  0.002472  -0.103223  0  3.879006  0
C  C150  1  0.99191571  0.80464491  0.69532111  1  0.216137  0  0.002451  -0.103087  0  3.878877  0
C  C151  1  0.50809062  0.19535345  0.19532045  1  0.216027  0  0.002326  -0.103359  0  3.878666  0
C  C152  1  0.68274593  0.99592048  0.12972364  1  -0.039569  0  -0.094588  -0.090528  0  4.03011  0
C  C153  1  0.81724795  0.00408340  0.62972081  1  -0.037225  0  -0.094748  -0.090676  0  4.030089  0
C  C154  1  0.31725464  0.00408213  0.87027680  1  -0.03964  0  -0.094614  -0.090327  0  4.030103  0
C  C155  1  0.18274912  0.99591989  0.37027727  1  -0.039327  0  -0.094619  -0.090407  0  4.030077  0
C  C156  1  0.86423742  0.73441734  0.21203789  1  0.033744  0  -0.08483  -0.107062  0  3.980815  0
C  C157  1  0.63576753  0.26558376  0.71203687  1  0.033825  0  -0.084786  -0.107008  0  3.980718  0
C  C158  1  0.13576503  0.26558665  0.78796343  1  0.033325  0  -0.084827  -0.107011  0  3.980795  0
C  C159  1  0.36423906  0.73441817  0.28796268  1  0.033685  0  -0.084859  -0.10711  0  3.980852  0
C  C160  1  0.72050033  0.15958328  0.31247120  1  0.95493  0  0.137508  0.082906  0  3.911136  0
C  C161  1  0.77949880  0.84041707  0.81247014  1  0.955325  0  0.13746  0.082728  0  3.911288  0
C  C162  1  0.27949681  0.84041453  0.68753101  1  0.955064  0  0.137432  0.08273  0  3.91122  0
C  C163  1  0.22051002  0.15958417  0.18752853  1  0.955101  0  0.137449  0.082773  0  3.911254  0
C  C164  1  0.89080549  0.69876424  0.28067107  1  -0.044709  0  -0.085484  -0.105627  0  3.974504  0
C  C165  1  0.60919543  0.30123133  0.78067005  1  -0.044517  0  -0.085537  -0.10569  0  3.974619  0
C  C166  1  0.10919830  0.30123426  0.71932996  1  -0.044512  0  -0.085523  -0.105758  0  3.974674  0
C  C167  1  0.39080679  0.69876648  0.21932891  1  -0.044509  0  -0.085486  -0.105678  0  3.974528  0
C  C168  1  0.69769338  0.75901617  0.98834079  1  0.007466  0  -0.093696  -0.173441  0  3.988089  0
C  C169  1  0.80230552  0.24099094  0.48833917  1  0.007501  0  -0.093781  -0.173792  0  3.988862  0
C  C170  1  0.30230588  0.24098919  0.01166083  1  0.007356  0  -0.093699  -0.173599  0  3.988883  0
C  C171  1  0.19769155  0.75901235  0.51165949  1  0.007215  0  -0.093723  -0.17346  0  3.987956  0
C  C172  1  0.67270164  0.90302424  0.07047085  1  0.34154  0  0.098982  0.196617  0  4.02612  0
C  C173  1  0.82728338  0.09697350  0.57046890  1  0.342038  0  0.098955  0.196758  0  4.025939  0
C  C174  1  0.32728444  0.09697150  0.92952959  1  0.341642  0  0.098977  0.196684  0  4.026052  0
C  C175  1  0.17270174  0.90302293  0.42953095  1  0.341841  0  0.098983  0.196628  0  4.026056  0
C  C176  1  0.84662048  0.03382624  0.28778726  1  0.255896  0  0.090948  0.161265  0  4.017308  0
C  C177  1  0.65338414  0.96617481  0.78778504  1  0.255664  0  0.091049  0.16147  0  4.017277  0
C  C178  1  0.15337728  0.96617294  0.71221614  1  0.255604  0  0.091071  0.161464  0  4.017362  0
C  C179  1  0.34663102  0.03382643  0.21221304  1  0.255859  0  0.090928  0.161271  0  4.017168  0
C  C180  1  0.88440719  0.64769111  0.20161915  1  -0.054603  0  -0.0909  -0.170998  0  3.997317  0
C  C181  1  0.61559842  0.35231137  0.70161931  1  -0.054656  0  -0.09096  -0.171053  0  3.997445  0
C  C182  1  0.11559622  0.35231219  0.79838159  1  -0.054699  0  -0.090863  -0.170937  0  3.997344  0
C  C183  1  0.38440690  0.64769056  0.29838054  1  -0.054584  0  -0.090929  -0.171052  0  3.997342  0
C  C184  1  0.54712527  0.87766278  0.94422239  1  -0.082639  0  -0.096521  -0.070546  0  4.020994  0
C  C185  1  0.95286156  0.12233679  0.44422045  1  -0.082545  0  -0.096451  -0.070509  0  4.020792  0
C  C186  1  0.45285824  0.12233570  0.05577835  1  -0.08267  0  -0.096527  -0.07064  0  4.020907  0
C  C187  1  0.04713873  0.87766238  0.55577911  1  -0.08257  0  -0.09645  -0.070451  0  4.020978  0
C  C188  1  0.61397974  0.91549877  0.10904201  1  -0.064331  0  -0.110641  -0.203657  0  4.022831  0
C  C189  1  0.88601015  0.08450169  0.60903975  1  -0.066001  0  -0.110596  -0.203692  0  4.022955  0
C  C190  1  0.38601230  0.08450177  0.89095813  1  -0.064365  0  -0.110598  -0.203742  0  4.022839  0
C  C191  1  0.11398001  0.91549748  0.39095832  1  -0.06461  0  -0.110656  -0.203698  0  4.022628  0
C  C192  1  0.90987432  0.61165988  0.27084233  1  0.000355  0  -0.092296  -0.167408  0  3.969644  0
C  C193  1  0.59012630  0.38833775  0.77084280  1  0.000185  0  -0.092385  -0.167634  0  3.969775  0
C  C194  1  0.09013201  0.38833862  0.72915752  1  -5.9e-05  0  -0.092376  -0.167464  0  3.969743  0
C  C195  1  0.40987242  0.61166074  0.22915705  1  0.000141  0  -0.092369  -0.167455  0  3.969678  0
C  C196  1  0.53820638  0.87872479  0.98542803  1  -0.01961  0  -0.098072  -0.178833  0  3.994107  0
C  C197  1  0.96178531  0.12127751  0.48542697  1  -0.019158  0  -0.098068  -0.178892  0  3.993861  0
C  C198  1  0.46177935  0.12127301  0.01457212  1  -0.019095  0  -0.098036  -0.17879  0  3.993894  0
C  C199  1  0.03820673  0.87872304  0.51457258  1  -0.019531  0  -0.098106  -0.178909  0  3.993893  0
C  C200  1  0.80691735  0.96170052  0.31494449  1  0.002324  0  -0.084447  -0.157838  0  4.003238  0
C  C201  1  0.69308530  0.03829639  0.81494316  1  0.002482  0  -0.084498  -0.158013  0  4.00338  0
C  C202  1  0.19307733  0.03829179  0.68505595  1  0.00257  0  -0.084498  -0.157978  0  4.003322  0
C  C203  1  0.30691944  0.96170141  0.18505521  1  0.002331  0  -0.084475  -0.157881  0  4.003207  0
C  C204  1  0.95523696  0.27020486  0.31887195  1  0.421121  0  0.002327  -0.027248  0  3.975662  0
C  C205  1  0.54476499  0.72979618  0.81886917  1  0.421059  0  0.002345  -0.02718  0  3.975694  0
C  C206  1  0.04476429  0.72979364  0.68112878  1  0.421137  0  0.002308  -0.027309  0  3.975659  0
C  C207  1  0.45524407  0.27021125  0.18112832  1  0.421086  0  0.00237  -0.027224  0  3.975196  0
C  C208  1  0.92301872  0.34954910  0.22424973  1  0.485053  0  0.002441  -0.029661  0  3.999056  0
C  C209  1  0.57699505  0.65045200  0.72425019  1  0.484803  0  0.002426  -0.02977  0  3.998986  0
C  C210  1  0.07698818  0.65045352  0.77574953  1  0.484776  0  0.002501  -0.029581  0  3.999047  0
C  C211  1  0.42301350  0.34954581  0.27575025  1  0.484828  0  0.002481  -0.029661  0  3.999014  0
C  C212  1  0.87835113  0.92804032  0.23628116  1  -0.015475  0  -0.083209  -0.102756  0  3.955743  0
C  C213  1  0.62165563  0.07195938  0.73627955  1  -0.01535  0  -0.083205  -0.102674  0  3.955582  0
C  C214  1  0.12165419  0.07196160  0.76372105  1  -0.015414  0  -0.083232  -0.102749  0  3.955591  0
C  C215  1  0.37835131  0.92804048  0.26371911  1  -0.015557  0  -0.083222  -0.102773  0  3.955694  0
C  C216  1  0.87960008  0.41926070  0.24504967  1  0.228637  0  0.007594  -0.08513  0  3.864819  0
C  C217  1  0.62040695  0.58073969  0.74504982  1  0.22879  0  0.007718  -0.08515  0  3.864844  0
C  C218  1  0.12040206  0.58074260  0.75495018  1  0.228826  0  0.007544  -0.085259  0  3.865069  0
C  C219  1  0.37959968  0.41925949  0.25494973  1  0.228808  0  0.007599  -0.085093  0  3.864815  0
C  C220  1  0.87569929  0.01666721  0.24814048  1  -0.053551  0  -0.087302  -0.158389  0  3.973515  0
C  C221  1  0.62430554  0.98333112  0.74813797  1  -0.053671  0  -0.087349  -0.158423  0  3.973548  0
C  C222  1  0.12430166  0.98333060  0.75186292  1  -0.053843  0  -0.087435  -0.158521  0  3.973661  0
C  C223  1  0.37569886  0.01666875  0.25186040  1  -0.053489  0  -0.08729  -0.158393  0  3.973423  0
C  C224  1  0.80648566  0.87310208  0.30256142  1  -0.037408  0  -0.085926  -0.114537  0  3.974563  0
C  C225  1  0.69351640  0.12689622  0.80256009  1  -0.037539  0  -0.085866  -0.114387  0  3.974596  0
C  C226  1  0.19351118  0.12689504  0.69743961  1  -0.037632  0  -0.085854  -0.114428  0  3.974606  0
C  C227  1  0.30649054  0.87310365  0.19743887  1  -0.037979  0  -0.085837  -0.114391  0  3.974429  0
C  C228  1  0.70313155  0.75682999  0.94715171  1  -0.053135  0  -0.089379  -0.062425  0  3.999347  0
C  C229  1  0.79686723  0.24317646  0.44715039  1  -0.051859  0  -0.089264  -0.063798  0  3.998962  0
C  C230  1  0.29687087  0.24317674  0.05284843  1  -0.051896  0  -0.0893  -0.063844  0  3.999042  0
C  C231  1  0.20314159  0.75682478  0.55284620  1  -0.052044  0  -0.089367  -0.062477  0  3.999262  0
C  C232  1  0.62900526  0.81671892  0.92504431  1  -0.034244  0  -0.096778  -0.08839  0  3.99732  0
C  C233  1  0.87098635  0.18328548  0.42504504  1  -0.035489  0  -0.09674  -0.088474  0  3.998275  0
C  C234  1  0.37098924  0.18328712  0.07495613  1  -0.035237  0  -0.096737  -0.088481  0  3.998142  0
C  C235  1  0.12901740  0.81671576  0.57495510  1  -0.035419  0  -0.096806  -0.088425  0  3.997377  0
C  C236  1  0.55741788  0.63159053  0.12331430  1  0.00168  0  -0.094276  -0.090235  0  4.022545  0
C  C237  1  0.94259096  0.36840993  0.62331439  1  0.001959  0  -0.094312  -0.090241  0  4.022465  0
C  C238  1  0.44257769  0.36840658  0.87668584  1  0.001695  0  -0.094262  -0.090187  0  4.022619  0
C  C239  1  0.05741345  0.63158994  0.37668753  1  0.001668  0  -0.094218  -0.09005  0  4.022454  0
C  C240  1  0.54587273  0.73621114  0.06929943  1  0.336253  0  0.097636  0.19307  0  4.026251  0
C  C241  1  0.95412935  0.26379073  0.56929892  1  0.336324  0  0.097627  0.193114  0  4.026265  0
C  C242  1  0.45412153  0.26378872  0.93069983  1  0.336244  0  0.097613  0.193076  0  4.026238  0
C  C243  1  0.04586015  0.73620982  0.43070063  1  0.336106  0  0.097528  0.193016  0  4.026419  0
C  C244  1  0.40719107  0.66984830  0.05273603  1  -0.040937  0  -0.097517  -0.182191  0  3.988536  0
C  C245  1  0.09282174  0.33015117  0.55273650  1  -0.040483  0  -0.097536  -0.182254  0  3.988478  0
C  C246  1  0.59281402  0.33014745  0.94726145  1  -0.040627  0  -0.097473  -0.18226  0  3.988586  0
C  C247  1  0.90717825  0.66984732  0.44726454  1  -0.040366  0  -0.097553  -0.182221  0  3.988396  0
C  C248  1  0.62192829  0.71532303  0.10473333  1  -0.063667  0  -0.106225  -0.194681  0  4.01668  0
C  C249  1  0.87807587  0.28467813  0.60473225  1  -0.063575  0  -0.106194  -0.194676  0  4.016725  0
C  C250  1  0.37806155  0.28467545  0.89526800  1  -0.063669  0  -0.106239  -0.194697  0  4.016702  0
C  C251  1  0.12192347  0.71532174  0.39526819  1  -0.063368  0  -0.106215  -0.194752  0  4.016814  0
C  C252  1  0.34949781  0.47766292  0.12884621  1  1.54903  0  0.192326  0.551193  0  4.248834  0
C  C253  1  0.15050329  0.52233375  0.62884607  1  1.548724  0  0.192332  0.551249  0  4.248775  0
C  C254  1  0.65049365  0.52233351  0.87115128  1  1.549339  0  0.192412  0.551413  0  4.248908  0
C  C255  1  0.84949132  0.47766405  0.37115467  1  1.549067  0  0.192356  0.55133  0  4.248873  0
C  C256  1  0.34482214  0.58583584  0.07143501  1  -0.029083  0  -0.084549  -0.076657  0  3.997678  0
C  C257  1  0.15518774  0.41416293  0.57143457  1  -0.028813  0  -0.08456  -0.076622  0  3.997724  0
C  C258  1  0.65518011  0.41415922  0.92856277  1  -0.028782  0  -0.084607  -0.076634  0  3.997904  0
C  C259  1  0.84481036  0.58583419  0.42856616  1  -0.029079  0  -0.084489  -0.076598  0  3.997564  0
C  C260  1  0.41787838  0.56569977  0.10720606  1  -0.108367  0  -0.035149  -0.061815  0  4.010366  0
C  C261  1  0.08213100  0.43430104  0.60720593  1  -0.108652  0  -0.035085  -0.061755  0  4.010531  0
C  C262  1  0.58212068  0.43429666  0.89279349  1  -0.108253  0  -0.035172  -0.061922  0  4.010637  0
C  C263  1  0.91787087  0.56569883  0.39279510  1  -0.108501  0  -0.035112  -0.06178  0  4.01035  0
N  N264  1  0.92521289  0.49668573  0.22114413  1  -1.26445  0  -0.218331  0.017227  0  3.782396  0
N  N265  1  0.57479459  0.50331261  0.72114548  1  -1.264443  0  -0.218508  0.017375  0  3.782379  0
N  N266  1  0.07479340  0.50331551  0.77885454  1  -1.264348  0  -0.218401  0.01729  0  3.782406  0
N  N267  1  0.42520762  0.49668519  0.27885496  1  -1.264356  0  -0.218399  0.017176  0  3.782524  0
N  N268  1  0.60869101  0.82075940  0.04981998  1  -1.254338  0  -0.250631  -0.149936  0  3.669663  0
N  N269  1  0.89130387  0.17924316  0.54981831  1  -1.254376  0  -0.250627  -0.150168  0  3.669519  0
N  N270  1  0.39129565  0.17924046  0.95018135  1  -1.254491  0  -0.250638  -0.150041  0  3.669383  0
N  N271  1  0.10868087  0.82075807  0.45018183  1  -1.253932  0  -0.250599  -0.150138  0  3.669866  0
N  N272  1  0.99515115  0.38318662  0.18841478  1  -1.230279  0  -0.353021  -0.28216  0  3.617065  0
N  N273  1  0.50485998  0.61681106  0.68841437  1  -1.230175  0  -0.353008  -0.282208  0  3.617025  0
N  N274  1  0.00485518  0.61681188  0.81158566  1  -1.230127  0  -0.353017  -0.282215  0  3.617013  0
N  N275  1  0.49514604  0.38318675  0.31158577  1  -1.230222  0  -0.353031  -0.282233  0  3.617139  0
N  N276  1  0.85739970  0.12586307  0.30081476  1  -1.278276  0  -0.227813  0.006605  0  3.811452  0
N  N277  1  0.64260328  0.87413728  0.80081195  1  -1.278418  0  -0.227795  0.006702  0  3.811209  0
N  N278  1  0.14259871  0.87413473  0.69918923  1  -1.278163  0  -0.227773  0.006669  0  3.811113  0
N  N279  1  0.35740681  0.12586396  0.19918494  1  -1.278165  0  -0.227717  0.006742  0  3.811173  0
N  N280  1  0.77567322  0.24714906  0.32345511  1  -1.233231  0  -0.355513  -0.288124  0  3.591564  0
N  N281  1  0.72432994  0.75285472  0.82345347  1  -1.233284  0  -0.355468  -0.288036  0  3.591763  0
N  N282  1  0.22432861  0.75285356  0.67654652  1  -1.233145  0  -0.355488  -0.288075  0  3.591857  0
N  N283  1  0.27567539  0.24714721  0.17654638  1  -1.233063  0  -0.355505  -0.288154  0  3.591676  0
O  O284  1  0.97104150  0.22210471  0.11574707  1  -1.169629  0  -0.332299  -0.541287  0  2.309095  0
O  O285  1  0.52895439  0.77789507  0.61574547  1  -1.169665  0  -0.332305  -0.541074  0  2.30871  0
O  O286  1  0.02895784  0.77789515  0.88425100  1  -1.169733  0  -0.332294  -0.541194  0  2.308756  0
O  O287  1  0.47104118  0.22210205  0.38425378  1  -1.169722  0  -0.332301  -0.541278  0  2.30924  0
O  O288  1  0.85407945  0.15442490  0.17234469  1  -1.211229  0  -0.33412  -0.584391  0  2.201578  0
O  O289  1  0.64592691  0.84557897  0.67234336  1  -1.211156  0  -0.334089  -0.584364  0  2.201694  0
O  O290  1  0.14592845  0.84557428  0.82765457  1  -1.211273  0  -0.334196  -0.584519  0  2.201415  0
O  O291  1  0.35407650  0.15442433  0.32765767  1  -1.211163  0  -0.334147  -0.584499  0  2.201746  0
O  O292  1  0.41430193  0.46463125  0.16178108  1  -1.195722  0  -0.329012  -0.573755  0  2.198515  0
O  O293  1  0.08570025  0.53536814  0.66178124  1  -1.195643  0  -0.328968  -0.573738  0  2.198549  0
O  O294  1  0.58570155  0.53536655  0.83822143  1  -1.19608  0  -0.328949  -0.573657  0  2.199008  0
O  O295  1  0.91429970  0.46463309  0.33822068  1  -1.195665  0  -0.329024  -0.5738  0  2.198547  0
O  O296  1  0.22025181  0.41923585  0.11253893  1  -1.171747  0  -0.336778  -0.550645  0  2.2859  0
O  O297  1  0.27976004  0.58076770  0.61253846  1  -1.171687  0  -0.336816  -0.550496  0  2.285049  0
O  O298  1  0.77975605  0.58076608  0.88746033  1  -1.171804  0  -0.336849  -0.550591  0  2.285019  0
O  O299  1  0.72024244  0.41923354  0.38746139  1  -1.171807  0  -0.336794  -0.550754  0  2.28583  0
