# generated using pymatgen
data_ZnH12C18SN2O7
_symmetry_space_group_name_H-M   'P 1'
_cell_length_a   9.72270340
_cell_length_b   16.30583096
_cell_length_c   19.85228109
_cell_angle_alpha   89.99969260
_cell_angle_beta   91.72197423
_cell_angle_gamma   89.99982578
_symmetry_Int_Tables_number   1
_chemical_formula_structural   ZnH12C18SN2O7
_chemical_formula_sum   'Zn4 H48 C72 S4 N8 O28'
_cell_volume   3145.89498249
_cell_formula_units_Z   4
loop_
 _symmetry_equiv_pos_site_id
 _symmetry_equiv_pos_as_xyz
  1  'x, y, z'
loop_
 _atom_site_type_symbol
 _atom_site_label
 _atom_site_symmetry_multiplicity
 _atom_site_fract_x
 _atom_site_fract_y
 _atom_site_fract_z
 _atom_site_occupancy
 _atom_site_pbe_bader_charge
 _atom_site_pbe_bader_spin_density
 _atom_site_pbe_cm5_charge
 _atom_site_pbe_ddec_charge
 _atom_site_pbe_ddec_spin_density
 _atom_site_pbe_ddec_sum_bond_order
 _atom_site_pbe_magmom
Zn  Zn0  1  0.41945149  0.07947897  0.06032904  1  1.253632  0  0.696881  0.773509  0  2.378731  0
Zn  Zn1  1  0.58055114  0.57947663  0.43967019  1  1.253568  0  0.696893  0.773508  0  2.378718  0
Zn  Zn2  1  0.58055901  0.92051985  0.93967202  1  1.253731  0  0.69691  0.773531  0  2.378663  0
Zn  Zn3  1  0.41944289  0.42052035  0.56033019  1  1.253674  0  0.696874  0.773461  0  2.378823  0
H  H4  1  0.02986160  0.11308277  0.76458556  1  0.61522  0  0.350435  0.398892  0  0.842359  0
H  H5  1  0.97014295  0.61308230  0.73541501  1  0.615311  0  0.350436  0.398905  0  0.842412  0
H  H6  1  0.97014681  0.88691605  0.23541346  1  0.615338  0  0.350441  0.398956  0  0.84237  0
H  H7  1  0.02984377  0.38692204  0.26457824  1  0.615413  0  0.350407  0.398997  0  0.842373  0
H  H8  1  0.29081408  0.90998315  0.26663040  1  0.116581  0  0.112615  0.1251  0  1.000434  0
H  H9  1  0.70918472  0.40998261  0.23336835  1  0.11661  0  0.112621  0.1251  0  1.000447  0
H  H10  1  0.70918305  0.09001812  0.73337102  1  0.116648  0  0.11264  0.125145  0  1.000453  0
H  H11  1  0.29080930  0.59001621  0.76663103  1  0.116561  0  0.112624  0.125059  0  1.000522  0
H  H12  1  0.15949064  0.16780124  0.91112906  1  0.117254  0  0.113927  0.127445  0  1.009378  0
H  H13  1  0.84050843  0.66779707  0.58886919  1  0.117084  0  0.113944  0.127493  0  1.00931  0
H  H14  1  0.84051672  0.83220125  0.08886844  1  0.117369  0  0.11395  0.127487  0  1.009383  0
H  H15  1  0.15948555  0.33220604  0.41112817  1  0.117172  0  0.113931  0.127406  0  1.009346  0
H  H16  1  0.63573332  0.95791105  0.09462845  1  0.178166  0  0.123357  0.106358  0  1.018322  0
H  H17  1  0.36426728  0.45791244  0.40537011  1  0.178262  0  0.123348  0.106274  0  1.018387  0
H  H18  1  0.36426899  0.04208531  0.90537505  1  0.178156  0  0.123344  0.106282  0  1.018457  0
H  H19  1  0.63572363  0.54208699  0.59462772  1  0.17823  0  0.12339  0.106353  0  1.018453  0
H  H20  1  0.25686188  0.01300804  0.17359520  1  0.164357  0  0.121174  0.104834  0  1.004168  0
H  H21  1  0.74313904  0.51300615  0.32640279  1  0.165109  0  0.121198  0.104872  0  1.004141  0
H  H22  1  0.74313935  0.98699200  0.82640475  1  0.164342  0  0.121186  0.104851  0  1.004179  0
H  H23  1  0.25685085  0.48699389  0.67359604  1  0.165014  0  0.121176  0.104823  0  1.004191  0
H  H24  1  0.68270023  0.84997142  0.18168149  1  0.102684  0  0.109343  0.12032  0  1.024679  0
H  H25  1  0.31729787  0.34997408  0.31831801  1  0.102719  0  0.109342  0.120321  0  1.024697  0
H  H26  1  0.31729798  0.15002617  0.81832296  1  0.102698  0  0.109361  0.120383  0  1.024635  0
H  H27  1  0.68269716  0.65002289  0.68168087  1  0.102691  0  0.109388  0.120332  0  1.024589  0
H  H28  1  0.72481578  0.21330054  0.87216386  1  0.140516  0  0.11324  0.122033  0  1.001421  0
H  H29  1  0.27518405  0.71330080  0.62783319  1  0.140615  0  0.113233  0.121936  0  1.001492  0
H  H30  1  0.27519056  0.78670012  0.12783464  1  0.140466  0  0.113268  0.122076  0  1.001357  0
H  H31  1  0.72480893  0.28670538  0.37216617  1  0.140575  0  0.113282  0.12209  0  1.00137  0
H  H32  1  0.86164273  0.08218193  0.05015777  1  0.115436  0  0.110038  0.117312  0  0.999044  0
H  H33  1  0.13835472  0.58218154  0.44983938  1  0.115379  0  0.110047  0.117358  0  0.998948  0
H  H34  1  0.13836563  0.91781566  0.94983823  1  0.11532  0  0.110025  0.117336  0  0.998956  0
H  H35  1  0.86164239  0.41782157  0.55016053  1  0.11545  0  0.110017  0.117343  0  0.998968  0
H  H36  1  0.29969855  0.76989209  0.28699436  1  0.121164  0  0.111299  0.12823  0  1.02299  0
H  H37  1  0.70030107  0.26989169  0.21300904  1  0.121295  0  0.11133  0.128304  0  1.023068  0
H  H38  1  0.70030069  0.23010796  0.71301010  1  0.121341  0  0.111307  0.128243  0  1.022989  0
H  H39  1  0.29969819  0.73010774  0.78699694  1  0.12119  0  0.111299  0.128207  0  1.023036  0
H  H40  1  0.73638179  0.82350378  0.29375799  1  0.093013  0  0.107907  0.109552  0  1.01708  0
H  H41  1  0.26362056  0.32350360  0.20624117  1  0.093036  0  0.107883  0.10949  0  1.017058  0
H  H42  1  0.26361740  0.17649381  0.70624345  1  0.092956  0  0.107892  0.109543  0  1.017087  0
H  H43  1  0.73637960  0.67649215  0.79375675  1  0.09292  0  0.107915  0.109509  0  1.017096  0
H  H44  1  0.34826700  0.65912280  0.37026339  1  0.109531  0  0.123896  0.097698  0  0.983429  0
H  H45  1  0.65174043  0.15912121  0.12974007  1  0.109471  0  0.123968  0.097837  0  0.983227  0
H  H46  1  0.65173428  0.34087724  0.62973958  1  0.109577  0  0.123922  0.097725  0  0.983371  0
H  H47  1  0.34827115  0.84087700  0.87026402  1  0.109586  0  0.12393  0.097732  0  0.983421  0
H  H48  1  0.76705166  0.70699670  0.37387108  1  0.15666  0  0.124341  0.102023  0  0.991357  0
H  H49  1  0.23295134  0.20699465  0.12612960  1  0.156681  0  0.124313  0.101969  0  0.991232  0
H  H50  1  0.23294856  0.29300150  0.62613037  1  0.156653  0  0.124351  0.102028  0  0.991397  0
H  H51  1  0.76705500  0.79299864  0.87386889  1  0.156585  0  0.124327  0.101969  0  0.991366  0
C  C52  1  0.94495178  0.19107819  0.88385805  1  -0.237077  0  -0.025705  -0.119793  0  4.053838  0
C  C53  1  0.05504922  0.69107402  0.61613961  1  -0.237199  0  -0.025686  -0.119699  0  4.053773  0
C  C54  1  0.05505972  0.80892246  0.11614100  1  -0.237568  0  -0.025622  -0.119574  0  4.053476  0
C  C55  1  0.94494682  0.30893155  0.38385777  1  -0.237614  0  -0.025784  -0.119648  0  4.053791  0
C  C56  1  0.13808309  0.09419552  0.03200616  1  1.577613  0  0.200473  0.559008  0  4.241455  0
C  C57  1  0.86191637  0.59419126  0.46799246  1  1.577619  0  0.200528  0.559005  0  4.241221  0
C  C58  1  0.86192634  0.90580575  0.96799236  1  1.577902  0  0.200505  0.558942  0  4.241599  0
C  C59  1  0.13807866  0.40580755  0.53200642  1  1.577317  0  0.200502  0.558946  0  4.241378  0
C  C60  1  0.02212293  0.12254982  0.98564620  1  -0.04549  0  -0.010201  -0.01139  0  3.943727  0
C  C61  1  0.97787742  0.62254712  0.51435277  1  -0.045508  0  -0.010217  -0.011387  0  3.94355  0
C  C62  1  0.97788855  0.87745145  0.01435185  1  -0.04759  0  -0.010219  -0.011281  0  3.943623  0
C  C63  1  0.02211659  0.37745415  0.48564610  1  -0.0474  0  -0.010197  -0.011267  0  3.94345  0
C  C64  1  0.49197181  0.87247748  0.23269961  1  0.02638  0  0.018469  0.110794  0  3.968751  0
C  C65  1  0.50803033  0.37247769  0.26730186  1  0.026456  0  0.01845  0.11082  0  3.968788  0
C  C66  1  0.50802847  0.12752256  0.76730537  1  0.026014  0  0.018448  0.110783  0  3.968787  0
C  C67  1  0.49196475  0.62752113  0.73269954  1  0.026551  0  0.018443  0.110699  0  3.968767  0
C  C68  1  0.37047355  0.91900758  0.22993815  1  -0.044485  0  -0.077942  -0.170292  0  3.935211  0
C  C69  1  0.62952520  0.41900878  0.27006055  1  -0.044779  0  -0.077874  -0.170192  0  3.935261  0
C  C70  1  0.62952564  0.08099185  0.77006329  1  -0.044514  0  -0.077927  -0.170283  0  3.935374  0
C  C71  1  0.37046675  0.58099127  0.72993880  1  -0.04476  0  -0.077844  -0.170055  0  3.935104  0
C  C72  1  0.05259025  0.16069893  0.92476930  1  0.011002  0  -0.074747  -0.100126  0  3.939848  0
C  C73  1  0.94740679  0.66069772  0.57522795  1  0.010979  0  -0.074754  -0.100224  0  3.939895  0
C  C74  1  0.94741814  0.83929744  0.07522821  1  0.010998  0  -0.074827  -0.10034  0  3.93963  0
C  C75  1  0.05258722  0.33930478  0.42477092  1  0.011058  0  -0.074706  -0.100094  0  3.939643  0
C  C76  1  0.56351425  0.94615813  0.13449143  1  0.417212  0  0.054957  0.109794  0  3.904133  0
C  C77  1  0.43648540  0.44615782  0.36550818  1  0.41711  0  0.054994  0.109914  0  3.904125  0
C  C78  1  0.43648806  0.05384007  0.86551156  1  0.41709  0  0.054928  0.109829  0  3.904295  0
C  C79  1  0.56351067  0.55383977  0.63449122  1  0.417218  0  0.054867  0.109698  0  3.904291  0
C  C80  1  0.35091172  0.97668406  0.17912128  1  0.433919  0  0.051543  0.095406  0  3.930108  0
C  C81  1  0.64908982  0.47668244  0.32087821  1  0.433352  0  0.051479  0.095285  0  3.930082  0
C  C82  1  0.64909054  0.02331659  0.82087919  1  0.43387  0  0.051522  0.095334  0  3.93023  0
C  C83  1  0.35090417  0.52331515  0.67911965  1  0.433321  0  0.051531  0.095354  0  3.930058  0
C  C84  1  0.58975388  0.88717598  0.18364505  1  0.00657  0  -0.07444  -0.158072  0  3.904998  0
C  C85  1  0.41024298  0.38717788  0.31635377  1  0.006469  0  -0.074421  -0.158063  0  3.904929  0
C  C86  1  0.41024432  0.11282223  0.81635890  1  0.006584  0  -0.074416  -0.158126  0  3.904925  0
C  C87  1  0.58974797  0.61282278  0.68364707  1  0.006476  0  -0.074511  -0.15802  0  3.904783  0
C  C88  1  0.80802262  0.18633148  0.90274455  1  0.042265  0  -0.068431  -0.089014  0  3.934097  0
C  C89  1  0.19197321  0.68633148  0.59725056  1  0.04243  0  -0.068506  -0.088956  0  3.934436  0
C  C90  1  0.19198372  0.81366672  0.09725345  1  0.042655  0  -0.068501  -0.089177  0  3.934101  0
C  C91  1  0.80802181  0.31367286  0.40274731  1  0.042761  0  -0.068562  -0.089354  0  3.934552  0
C  C92  1  0.88494821  0.11378119  0.00351374  1  0.002137  0  -0.06174  -0.079541  0  3.880138  0
C  C93  1  0.11504905  0.61378115  0.49648226  1  0.002102  0  -0.061725  -0.079488  0  3.87998  0
C  C94  1  0.11506017  0.88621578  0.99648327  1  0.004072  0  -0.061743  -0.079621  0  3.880178  0
C  C95  1  0.88494290  0.38622319  0.50351659  1  0.004871  0  -0.061749  -0.079647  0  3.879982  0
C  C96  1  0.77807716  0.14603039  0.96277271  1  -0.014086  0  -0.008934  -0.00753  0  3.928684  0
C  C97  1  0.22192203  0.64603134  0.53722614  1  -0.014133  0  -0.008944  -0.007686  0  3.92913  0
C  C98  1  0.22193124  0.85396842  0.03722581  1  -0.013674  0  -0.008892  -0.007435  0  3.928829  0
C  C99  1  0.77807302  0.35397177  0.46277374  1  -0.014689  0  -0.008811  -0.007373  0  3.928906  0
C  C100  1  0.63012421  0.13958307  0.98279931  1  1.574532  0  0.192955  0.548539  0  4.253618  0
C  C101  1  0.36986986  0.63957898  0.51719901  1  1.574462  0  0.192855  0.548494  0  4.253644  0
C  C102  1  0.36987908  0.86042065  0.01720117  1  1.574489  0  0.192772  0.548266  0  4.253829  0
C  C103  1  0.63012417  0.36042229  0.48280137  1  1.574547  0  0.192837  0.548495  0  4.253619  0
C  C104  1  0.40450900  0.76057624  0.30636733  1  0.016938  0  -0.073181  -0.157624  0  3.906659  0
C  C105  1  0.59549273  0.26057433  0.19363563  1  0.016698  0  -0.073199  -0.157694  0  3.906757  0
C  C106  1  0.59548922  0.23942564  0.69363762  1  0.016639  0  -0.073093  -0.157588  0  3.906515  0
C  C107  1  0.40450856  0.73942204  0.80636836  1  0.016818  0  -0.073159  -0.157549  0  3.906658  0
C  C108  1  0.51465069  0.80770782  0.28369400  1  0.0289  0  0.019631  0.108067  0  3.967833  0
C  C109  1  0.48535075  0.30770902  0.21630674  1  0.029302  0  0.019555  0.107923  0  3.967952  0
C  C110  1  0.48534749  0.19228977  0.71630844  1  0.029478  0  0.019538  0.108004  0  3.967825  0
C  C111  1  0.51464947  0.69228979  0.78369471  1  0.028743  0  0.01963  0.108014  0  3.967911  0
C  C112  1  0.64697918  0.78904252  0.30927750  1  -0.096107  0  -0.072763  -0.148705  0  3.923948  0
C  C113  1  0.35302442  0.28904167  0.19072334  1  -0.096546  0  -0.07274  -0.148667  0  3.92391  0
C  C114  1  0.35302107  0.21095691  0.69072597  1  -0.096299  0  -0.072737  -0.148683  0  3.924126  0
C  C115  1  0.64697782  0.71095592  0.80927561  1  -0.09583  0  -0.072748  -0.148576  0  3.924074  0
C  C116  1  0.43095539  0.69764153  0.35193607  1  0.469826  0  0.054962  0.104551  0  3.927981  0
C  C117  1  0.56904768  0.19764118  0.14806567  1  0.470154  0  0.054863  0.104442  0  3.927932  0
C  C118  1  0.56904072  0.30235790  0.64806584  1  0.470045  0  0.054857  0.104508  0  3.928  0
C  C119  1  0.43095771  0.80235641  0.85193735  1  0.469928  0  0.054923  0.104484  0  3.927979  0
C  C120  1  0.66515702  0.72475186  0.35451576  1  0.475487  0  0.059004  0.107296  0  3.915805  0
C  C121  1  0.33484589  0.22475195  0.14548434  1  0.475554  0  0.059042  0.107475  0  3.915459  0
C  C122  1  0.33484010  0.27524573  0.64548465  1  0.475474  0  0.059008  0.107325  0  3.915833  0
C  C123  1  0.66515845  0.77524319  0.85451716  1  0.475714  0  0.059019  0.107317  0  3.915775  0
S  S124  1  0.98491264  0.23326026  0.80470310  1  2.97616  0  0.541035  1.152713  0  5.968165  0
S  S125  1  0.01509944  0.73325747  0.69529449  1  2.976605  0  0.541055  1.152602  0  5.968258  0
S  S126  1  0.01510090  0.76673978  0.19529497  1  2.976778  0  0.541099  1.15271  0  5.968136  0
S  S127  1  0.98489664  0.26674625  0.30470540  1  2.9766  0  0.541086  1.15258  0  5.968417  0
N  N128  1  0.44594143  0.99003641  0.13220378  1  -1.257536  0  -0.327205  -0.233414  0  3.574945  0
N  N129  1  0.55405796  0.49003526  0.36779462  1  -1.257477  0  -0.327216  -0.233432  0  3.574897  0
N  N130  1  0.55406186  0.00996302  0.86779670  1  -1.257526  0  -0.327224  -0.233394  0  3.575028  0
N  N131  1  0.44593501  0.50996539  0.63220373  1  -1.257529  0  -0.327206  -0.233435  0  3.575085  0
N  N132  1  0.55876359  0.67964409  0.37548788  1  -1.248659  0  -0.323171  -0.231393  0  3.568392  0
N  N133  1  0.44124164  0.17964168  0.12451396  1  -1.248921  0  -0.323106  -0.231438  0  3.56845  0
N  N134  1  0.44123561  0.32035656  0.62451407  1  -1.248627  0  -0.323132  -0.231416  0  3.568447  0
N  N135  1  0.55876577  0.82035468  0.87548656  1  -1.248802  0  -0.323186  -0.231399  0  3.568237  0
O  O136  1  0.25678716  0.09316030  0.00351592  1  -1.158196  0  -0.330901  -0.544917  0  2.385684  0
O  O137  1  0.74321133  0.59315790  0.49648572  1  -1.158205  0  -0.330917  -0.544893  0  2.38558  0
O  O138  1  0.74322333  0.90684159  0.99648463  1  -1.15853  0  -0.330863  -0.544848  0  2.385789  0
O  O139  1  0.25678479  0.40684092  0.50351619  1  -1.158155  0  -0.33085  -0.544801  0  2.385699  0
O  O140  1  0.12909665  0.25385489  0.80470729  1  -1.287796  0  -0.308493  -0.539941  0  2.160276  0
O  O141  1  0.87090819  0.75385425  0.69529468  1  -1.287877  0  -0.308541  -0.539915  0  2.159798  0
O  O142  1  0.87090972  0.74614638  0.19529272  1  -1.287844  0  -0.308572  -0.539956  0  2.159817  0
O  O143  1  0.12908374  0.24615438  0.30470316  1  -1.287681  0  -0.308461  -0.539843  0  2.16002  0
O  O144  1  0.88107915  0.29040072  0.78210299  1  -1.290666  0  -0.304944  -0.510486  0  2.119714  0
O  O145  1  0.11892435  0.79039576  0.71789175  1  -1.290666  0  -0.304941  -0.510454  0  2.120162  0
O  O146  1  0.11892614  0.70960116  0.21789399  1  -1.290807  0  -0.304953  -0.510512  0  2.120027  0
O  O147  1  0.88106453  0.20960489  0.28210807  1  -1.291152  0  -0.305083  -0.510534  0  2.119846  0
O  O148  1  0.60460400  0.07748884  0.02234774  1  -1.179307  0  -0.339547  -0.58411  0  2.370926  0
O  O149  1  0.39539656  0.57749333  0.47764946  1  -1.179299  0  -0.339412  -0.583969  0  2.371093  0
O  O150  1  0.39540650  0.92250997  0.97765332  1  -1.179421  0  -0.339428  -0.583939  0  2.371139  0
O  O151  1  0.60459747  0.42251162  0.52235092  1  -1.179498  0  -0.339483  -0.584051  0  2.37095  0
O  O152  1  0.96062619  0.15509516  0.75383284  1  -1.154708  0  -0.368695  -0.551698  0  2.125541  0
O  O153  1  0.03938115  0.65509383  0.74616354  1  -1.155041  0  -0.368671  -0.551681  0  2.125711  0
O  O154  1  0.03938526  0.84490488  0.24616370  1  -1.15515  0  -0.368671  -0.551742  0  2.125666  0
O  O155  1  0.96060459  0.34490866  0.25383322  1  -1.154807  0  -0.368587  -0.551754  0  2.125959  0
O  O156  1  0.11712663  0.07694385  0.09207728  1  -1.177819  0  -0.331405  -0.560502  0  2.099823  0
O  O157  1  0.88287087  0.57694424  0.40792140  1  -1.177753  0  -0.331389  -0.560466  0  2.099869  0
O  O158  1  0.88287867  0.92305681  0.90792020  1  -1.177883  0  -0.331444  -0.560491  0  2.099815  0
O  O159  1  0.11712726  0.42305519  0.59207802  1  -1.177875  0  -0.331432  -0.56052  0  2.099898  0
O  O160  1  0.54410291  0.19049200  0.96187324  1  -1.1512  0  -0.329048  -0.530936  0  2.073903  0
O  O161  1  0.45589915  0.69049437  0.53812696  1  -1.15109  0  -0.32912  -0.531011  0  2.073604  0
O  O162  1  0.45591068  0.80951050  0.03812836  1  -1.151268  0  -0.329013  -0.530873  0  2.073707  0
O  O163  1  0.54410005  0.30950936  0.46187499  1  -1.151126  0  -0.329028  -0.530957  0  2.073777  0
