# generated using pymatgen
data_ZnH12C21N2O7
_symmetry_space_group_name_H-M   'P 1'
_cell_length_a   11.02004310
_cell_length_b   16.53429999
_cell_length_c   17.61127668
_cell_angle_alpha   89.56267402
_cell_angle_beta   90.15449201
_cell_angle_gamma   89.84946944
_symmetry_Int_Tables_number   1
_chemical_formula_structural   ZnH12C21N2O7
_chemical_formula_sum   'Zn2 H24 C42 N4 O14'
_cell_volume   3208.81141258
_cell_formula_units_Z   2
loop_
 _symmetry_equiv_pos_site_id
 _symmetry_equiv_pos_as_xyz
  1  'x, y, z'
loop_
 _atom_site_type_symbol
 _atom_site_label
 _atom_site_symmetry_multiplicity
 _atom_site_fract_x
 _atom_site_fract_y
 _atom_site_fract_z
 _atom_site_occupancy
 _atom_site_pbe_bader_charge
 _atom_site_pbe_bader_spin_density
 _atom_site_pbe_cm5_charge
 _atom_site_pbe_ddec_charge
 _atom_site_pbe_ddec_spin_density
 _atom_site_pbe_ddec_sum_bond_order
 _atom_site_pbe_magmom
Zn  Zn0  1  0.51445893  0.41712058  0.49716185  1  1.294765  0  0.668374  0.815293  0  2.448072  0
Zn  Zn1  1  0.50954175  0.58774114  0.49569791  1  1.274604  0  0.668023  0.815464  0  2.441232  0
H  H2  1  0.24167217  0.41418747  0.38173272  1  0.097508  0  0.117528  0.133389  0  1.018942  0
H  H3  1  0.79135680  0.43541759  0.36244393  1  0.13452  0  0.122804  0.145167  0  0.983635  0
H  H4  1  0.41758164  0.37251865  0.87442881  1  0.054313  0  0.106683  0.110291  0  0.986618  0
H  H5  1  0.41609065  0.37422491  0.11937817  1  0.081213  0  0.109689  0.113519  0  0.980999  0
H  H6  1  0.47237023  0.37208026  0.73651863  1  0.097722  0  0.104257  0.108402  0  1.000021  0
H  H7  1  0.46135270  0.37597907  0.25799174  1  0.106576  0  0.105119  0.11184  0  1.002988  0
H  H8  1  0.45862059  0.63125148  0.73068230  1  0.096527  0  0.102233  0.104031  0  1.007103  0
H  H9  1  0.43102666  0.63503082  0.25828694  1  0.102053  0  0.101818  0.104468  0  1.005328  0
H  H10  1  0.40325973  0.63315213  0.86855420  1  0.077404  0  0.103411  0.105536  0  0.99359  0
H  H11  1  0.38672424  0.63454512  0.11886048  1  0.057835  0  0.103507  0.105224  0  0.993311  0
H  H12  1  0.38224492  0.14127313  0.39896685  1  0.111219  0  0.124068  0.136388  0  0.967632  0
H  H13  1  0.63797823  0.13394524  0.58628409  1  0.104675  0  0.118981  0.12784  0  0.977337  0
H  H14  1  0.39559223  0.29216403  0.40243335  1  0.143365  0  0.129294  0.107582  0  0.993672  0
H  H15  1  0.63892508  0.28591457  0.58215279  1  0.133961  0  0.132327  0.107569  0  0.962619  0
H  H16  1  0.35431742  0.86721931  0.41559459  1  0.093878  0  0.121385  0.131616  0  0.972545  0
H  H17  1  0.64713112  0.86824965  0.57999884  1  0.074626  0  0.119947  0.129503  0  0.975476  0
H  H18  1  0.36290903  0.71517297  0.42041524  1  0.122974  0  0.133033  0.108722  0  0.965736  0
H  H19  1  0.64339426  0.71615631  0.57686091  1  0.14383  0  0.134502  0.113064  0  0.960194  0
H  H20  1  0.05439176  0.66701634  0.63831782  1  0.0629  0  0.094973  0.091851  0  1.01472  0
H  H21  1  0.20104697  0.66579272  0.59207961  1  0.066653  0  0.093799  0.097335  0  1.005273  0
H  H22  1  0.18958680  0.64315043  0.69165587  1  0.076589  0  0.106461  0.113891  0  0.980241  0
H  H23  1  0.94194780  0.49704729  0.70022553  1  0.067542  0  0.099311  0.098588  0  0.997971  0
H  H24  1  0.80018047  0.46822097  0.65653899  1  0.057508  0  0.097517  0.102694  0  0.991375  0
H  H25  1  0.80664767  0.55576467  0.71577921  1  0.059453  0  0.109606  0.118499  0  0.969026  0
C  C26  1  0.47902104  0.50660975  0.34911004  1  1.529895  0  0.210831  0.584047  0  4.179159  0
C  C27  1  0.50610628  0.50112425  0.64416193  1  1.544168  0  0.212331  0.586424  0  4.180801  0
C  C28  1  0.27491261  0.49555214  0.50425010  1  1.590343  0  0.217647  0.616938  0  4.182813  0
C  C29  1  0.74751654  0.50731031  0.48955673  1  1.55257  0  0.219525  0.618823  0  4.179669  0
C  C30  1  0.14318804  0.41919312  0.37907715  1  0.07319  0  -0.069516  -0.145399  0  3.904905  0
C  C31  1  0.88977734  0.43298689  0.36758690  1  0.054294  0  -0.064195  -0.135667  0  3.892486  0
C  C32  1  0.08238417  0.38465402  0.31938260  1  0.227172  0  0.079385  0.023596  0  3.956929  0
C  C33  1  0.95452387  0.39199489  0.31328295  1  0.193593  0  0.079326  0.022297  0  3.946991  0
C  C34  1  0.94919118  0.46703188  0.43128797  1  -0.029482  0  0.003139  0.073914  0  3.974411  0
C  C35  1  0.07876492  0.46054911  0.43671243  1  0.040246  0  0.003308  0.075489  0  3.974987  0
C  C36  1  0.13903439  0.49493242  0.50007768  1  0.097999  0  -0.012105  -0.147688  0  3.942638  0
C  C37  1  0.88387213  0.50566943  0.49059006  1  0.102121  0  -0.012226  -0.151737  0  3.928163  0
C  C38  1  0.07357103  0.53031321  0.55808842  1  0.502404  0  0.088428  0.139818  0  4.052663  0
C  C39  1  0.94476157  0.53625422  0.55316047  1  0.549978  0  0.087534  0.139792  0  4.045106  0
C  C40  1  0.42670064  0.42904902  0.84275072  1  -0.072721  0  -0.082838  -0.128107  0  3.947273  0
C  C41  1  0.41936312  0.43123666  0.14986413  1  0.007934  0  -0.076116  -0.109362  0  3.920231  0
C  C42  1  0.45771550  0.42874115  0.76639674  1  -0.01087  0  -0.083441  -0.088875  0  3.993724  0
C  C43  1  0.44441783  0.43219000  0.22712009  1  -0.077775  0  -0.081898  -0.081678  0  3.974572  0
C  C44  1  0.47146527  0.50168424  0.72612697  1  0.021907  0  -0.020049  -0.034292  0  3.966165  0
C  C45  1  0.44957382  0.50567482  0.26631412  1  -0.033522  0  -0.022333  -0.040697  0  3.971782  0
C  C46  1  0.44967127  0.57517659  0.76311962  1  -0.066672  0  -0.08595  -0.093852  0  4.007948  0
C  C47  1  0.42704226  0.57843162  0.22708184  1  -0.019784  0  -0.085693  -0.090489  0  4.002835  0
C  C48  1  0.41854293  0.57611065  0.83943424  1  -0.017984  0  -0.087113  -0.135588  0  3.962308  0
C  C49  1  0.40239582  0.57810062  0.14976979  1  -0.00591  0  -0.084644  -0.130506  0  3.958651  0
C  C50  1  0.40908882  0.50296377  0.88103308  1  0.105855  0  0.003278  0.148832  0  4.112281  0
C  C51  1  0.40031574  0.50441819  0.10964532  1  0.094636  0  0.004485  0.14466  0  4.104382  0
C  C52  1  0.39052494  0.50374744  0.96039153  1  -0.40726  0  -0.046561  -0.11618  0  4.118969  0
C  C53  1  0.38815610  0.50418142  0.02973820  1  0.02133  0  -0.037893  -0.095014  0  4.110425  0
C  C54  1  0.44028117  0.17073341  0.44044420  1  0.001509  0  -0.06307  -0.160159  0  3.882116  0
C  C55  1  0.58303223  0.16687406  0.54487592  1  -0.056952  0  -0.068166  -0.168205  0  3.91225  0
C  C56  1  0.44717370  0.25451730  0.44216670  1  0.506676  0  0.068051  0.11512  0  3.892071  0
C  C57  1  0.58415595  0.25071348  0.54277633  1  0.497412  0  0.06272  0.103179  0  3.92855  0
C  C58  1  0.50911970  0.12499883  0.49293803  1  0.122463  0  0.024116  0.174699  0  4.101951  0
C  C59  1  0.50468474  0.03948233  0.49403144  1  -0.196841  0  -0.023671  -0.082739  0  4.071117  0
C  C60  1  0.50202862  0.96577211  0.49583144  1  -0.177084  0  -0.027167  -0.091813  0  4.075899  0
C  C61  1  0.41935257  0.83606305  0.45218371  1  0.062733  0  -0.068236  -0.168333  0  3.905053  0
C  C62  1  0.58282081  0.83656871  0.54392983  1  0.0623  0  -0.068634  -0.169275  0  3.90571  0
C  C63  1  0.42359450  0.75220469  0.45457032  1  0.4674  0  0.063919  0.104472  0  3.925945  0
C  C64  1  0.58104678  0.75267726  0.54261323  1  0.459073  0  0.065611  0.107251  0  3.916515  0
C  C65  1  0.50101535  0.88023195  0.49744245  1  0.095038  0  0.023698  0.177358  0  4.105144  0
C  C66  1  0.14425035  0.63807576  0.63644367  1  0.355946  0  -0.137706  -0.16608  0  3.891618  0
C  C67  1  0.85687489  0.51933678  0.67467986  1  0.375927  0  -0.133658  -0.165897  0  3.88102  0
N  N68  1  0.51737273  0.29364104  0.49258443  1  -1.25815  0  -0.316503  -0.191923  0  3.507683  0
N  N69  1  0.50313536  0.71140841  0.49860778  1  -1.226929  0  -0.316482  -0.194045  0  3.515811  0
N  N70  1  0.15584031  0.34603755  0.26012932  1  0.424019  0  0.05767  0.521979  0  4.231284  0
N  N71  1  0.88502863  0.34817173  0.25529351  1  0.400469  0  0.055286  0.520205  0  4.232649  0
O  O72  1  0.48932983  0.43816007  0.38289567  1  -1.169676  0  -0.320448  -0.559956  0  2.341513  0
O  O73  1  0.52290564  0.43251187  0.61316330  1  -1.168083  0  -0.323119  -0.558451  0  2.327373  0
O  O74  1  0.49107758  0.57531445  0.38060728  1  -1.165581  0  -0.320395  -0.54688  0  2.32842  0
O  O75  1  0.51544898  0.56968511  0.61080150  1  -1.176485  0  -0.322387  -0.556254  0  2.33377  0
O  O76  1  0.32803189  0.42750789  0.50786044  1  -1.159368  0  -0.311511  -0.53398  0  2.301881  0
O  O77  1  0.69728700  0.43803820  0.49109247  1  -1.162405  0  -0.316029  -0.552451  0  2.322335  0
O  O78  1  0.32381164  0.56494325  0.50117890  1  -1.162351  0  -0.309495  -0.54593  0  2.318723  0
O  O79  1  0.69542714  0.57553071  0.48736245  1  -1.150517  0  -0.309271  -0.530966  0  2.305424  0
O  O80  1  0.13371799  0.55249543  0.62281534  1  -1.073395  0  -0.198488  -0.169805  0  2.544821  0
O  O81  1  0.88160782  0.57232352  0.61095638  1  -1.078244  0  -0.207783  -0.187567  0  2.546759  0
O  O82  1  0.23999959  0.30118481  0.28171391  1  -0.479254  0  -0.140554  -0.34901  0  1.896753  0
O  O83  1  0.13149515  0.36292599  0.19332330  1  -0.441806  0  -0.123194  -0.315406  0  1.892276  0
O  O84  1  0.79325639  0.38159466  0.22902235  1  -0.443214  0  -0.134475  -0.326621  0  1.866071  0
O  O85  1  0.92125200  0.27927239  0.23929804  1  -0.446499  0  -0.145926  -0.339774  0  1.873324  0
