# generated using pymatgen
data_CoH8(C5O2)2
_symmetry_space_group_name_H-M   'P 1'
_cell_length_a   4.87408827
_cell_length_b   9.66159585
_cell_length_c   19.63328787
_cell_angle_alpha   95.90779263
_cell_angle_beta   90.00001418
_cell_angle_gamma   89.99973060
_symmetry_Int_Tables_number   1
_chemical_formula_structural   CoH8(C5O2)2
_chemical_formula_sum   'Co4 H32 C40 O16'
_cell_volume   919.64990663
_cell_formula_units_Z   4
loop_
 _symmetry_equiv_pos_site_id
 _symmetry_equiv_pos_as_xyz
  1  'x, y, z'
loop_
 _atom_site_type_symbol
 _atom_site_label
 _atom_site_symmetry_multiplicity
 _atom_site_fract_x
 _atom_site_fract_y
 _atom_site_fract_z
 _atom_site_occupancy
 _atom_site_hle17_ddec_charge
 _atom_site_hle17_ddec_spin_density
 _atom_site_hle17_ddec_sum_bond_order
 _atom_site_hle17_magmom
 _atom_site_hse06_10hf_ddec_charge
 _atom_site_hse06_10hf_ddec_spin_density
 _atom_site_hse06_10hf_ddec_sum_bond_order
 _atom_site_hse06_10hf_magmom
 _atom_site_hse06_ddec_charge
 _atom_site_hse06_ddec_spin_density
 _atom_site_hse06_ddec_sum_bond_order
 _atom_site_hse06_magmom
 _atom_site_pbe_cm5_charge
 _atom_site_pbe_ddec_charge
 _atom_site_pbe_ddec_spin_density
 _atom_site_pbe_ddec_sum_bond_order
 _atom_site_pbe_magmom
Co  Co0  1  0.30855117  0.71246803  0.76232488  1  1.103506  2.817705  1.865574  2.544  1.076196  2.830049  2.299643  2.611  1.160437  2.873855  2.220853  2.696  0.668176  1.001058  2.787694  2.369604  2.529
Co  Co1  1  0.80855587  0.78753066  0.23767532  1  1.103509  2.817704  1.86558  2.544  1.076174  2.83005  2.299661  2.611  1.160411  2.873855  2.220871  2.696  0.668173  1.00103  2.787724  2.369615  2.529
Co  Co2  1  0.69144912  0.28753136  0.23767501  1  1.10352  2.817706  1.86557  2.544  1.076191  2.830047  2.299656  2.611  1.160435  2.873853  2.220863  2.696  0.668159  1.001053  2.787775  2.369584  2.529
Co  Co3  1  0.19144647  0.21246769  0.76232502  1  1.103455  2.817708  1.86561  2.544  1.076117  2.830052  2.29967  2.611  1.160359  2.873858  2.220885  2.696  0.668131  1.000963  2.787827  2.369596  2.529
H  H4  1  0.63838700  0.68106745  0.01858210  1  0.093579  -1.7e-05  0.965187  0.0  0.103348  -1.8e-05  1.028991  0.0  0.105666  -2.7e-05  1.029496  0.0  0.096796  0.101693  -6e-06  1.028652  0.0
H  H5  1  0.13839383  0.81893580  0.98141780  1  0.093641  -1.7e-05  0.965105  0.0  0.103401  -1.8e-05  1.02893  0.0  0.105719  -2.7e-05  1.029427  0.0  0.096814  0.101747  -6e-06  1.028591  0.0
H  H6  1  0.36160918  0.31893402  0.98141839  1  0.093617  -1.5e-05  0.965198  0.0  0.103392  -1.8e-05  1.028987  0.0  0.105706  -2.7e-05  1.029505  0.0  0.096812  0.101734  -6e-06  1.028644  0.0
H  H7  1  0.86161261  0.18106775  0.01858280  1  0.093603  -1.6e-05  0.965171  0.0  0.103366  -1.8e-05  1.02899  0.0  0.10569  -2.7e-05  1.029483  0.0  0.096801  0.10171  -6e-06  1.028647  0.0
H  H8  1  0.09054685  0.38534150  0.88353551  1  0.083915  0.000285  0.973408  0.0  0.090729  0.000647  1.044889  0.0  0.093291  0.000415  1.043075  0.0  0.09532  0.089116  0.0009  1.046139  0.0
H  H9  1  0.59054484  0.11466093  0.11646620  1  0.084057  0.000286  0.973377  0.0  0.090873  0.000647  1.044832  0.0  0.093436  0.000415  1.043017  0.0  0.095384  0.089259  0.0009  1.046087  0.0
H  H10  1  0.90945138  0.61465997  0.11646447  1  0.083982  0.000288  0.973526  0.0  0.090838  0.000647  1.044928  0.0  0.093402  0.000415  1.043113  0.0  0.095365  0.089229  0.000901  1.046185  0.0
H  H11  1  0.40945955  0.88534264  0.88353592  1  0.083966  0.000286  0.973425  0.0  0.090736  0.000647  1.044936  0.0  0.093298  0.000415  1.043123  0.0  0.095331  0.089127  0.000901  1.046193  0.0
H  H12  1  0.35953061  0.32119730  0.50919883  1  0.087558  -7e-06  0.976838  0.0  0.098601  3e-06  1.039599  0.0  0.100386  3e-06  1.040842  0.0  0.095394  0.097247  0.0  1.038917  0.0
H  H13  1  0.85953041  0.17879927  0.49080109  1  0.087545  -5e-06  0.976836  0.0  0.09859  3e-06  1.039593  0.0  0.100375  3e-06  1.040836  0.0  0.095405  0.097238  0.0  1.038909  0.0
H  H14  1  0.64046763  0.67880105  0.49080152  1  0.087586  -5e-06  0.976817  0.0  0.098633  3e-06  1.039574  0.0  0.100417  3e-06  1.040817  0.0  0.095396  0.097276  0.0  1.0389  0.0
H  H15  1  0.14046782  0.82119907  0.50919823  1  0.087556  -6e-06  0.976803  0.0  0.098593  3e-06  1.039576  0.0  0.100378  3e-06  1.040819  0.0  0.095366  0.09724  0.0  1.038895  0.0
H  H16  1  0.68723592  0.56598128  0.59789189  1  0.093913  -0.000166  0.95283  0.0  0.105574  -0.000183  1.012937  0.0  0.107936  -0.000185  1.01274  0.0  0.098781  0.103821  -0.000136  1.013292  0.0
H  H17  1  0.18723496  0.93401874  0.40210785  1  0.093935  -0.000165  0.95282  0.0  0.105621  -0.000183  1.012898  0.0  0.107984  -0.000185  1.0127  0.0  0.098796  0.103869  -0.000136  1.013255  0.0
H  H18  1  0.31276436  0.43401812  0.40210850  1  0.093907  -0.000165  0.952828  0.0  0.105567  -0.000183  1.012938  0.0  0.10793  -0.000185  1.01274  0.0  0.098775  0.103813  -0.000137  1.013293  0.0
H  H19  1  0.81276327  0.06598065  0.59789152  1  0.093896  -0.000166  0.952825  0.0  0.105551  -0.000183  1.012938  0.0  0.107913  -0.000185  1.012741  0.0  0.098767  0.103797  -0.000137  1.013293  0.0
H  H20  1  0.49144940  0.63406649  0.90205530  1  0.127577  -0.000567  0.954365  0.0  0.138423  -0.000107  1.02151  0.0  0.141022  -0.000171  1.020819  0.0  0.108975  0.136514  -4.7e-05  1.021888  0.0
H  H21  1  0.99145528  0.86593488  0.09794453  1  0.12756  -0.000569  0.954307  0.0  0.138399  -0.000107  1.021453  0.0  0.140998  -0.00017  1.020764  0.0  0.108983  0.13649  -4.7e-05  1.021828  0.0
H  H22  1  0.50854679  0.36593393  0.09794464  1  0.127584  -0.000568  0.954308  0.0  0.138425  -0.000107  1.021447  0.0  0.141024  -0.000171  1.020756  0.0  0.108987  0.136515  -4.7e-05  1.021819  0.0
H  H23  1  0.00854910  0.13406555  0.90205490  1  0.127587  -0.000568  0.954369  0.0  0.138424  -0.000107  1.021519  0.0  0.141024  -0.00017  1.020829  0.0  0.108979  0.136515  -4.8e-05  1.021893  0.0
H  H24  1  0.59694674  0.48163349  0.85384528  1  0.13265  -0.000339  0.911274  0.0  0.1472  -9e-06  0.970487  0.0  0.149287  -8.6e-05  0.969813  0.0  0.112883  0.145588  2.5e-05  0.970983  0.0
H  H25  1  0.09694324  0.01836786  0.14615435  1  0.132597  -0.000339  0.911292  0.0  0.147156  -9e-06  0.970478  0.0  0.149245  -8.6e-05  0.969801  0.0  0.112858  0.145545  2.5e-05  0.970976  0.0
H  H26  1  0.40305560  0.51836591  0.14615512  1  0.132634  -0.000338  0.91129  0.0  0.147197  -9e-06  0.970477  0.0  0.149287  -8.6e-05  0.969799  0.0  0.112883  0.145588  2.5e-05  0.970977  0.0
H  H27  1  0.90305704  0.98163361  0.85384614  1  0.132638  -0.000338  0.911307  0.0  0.14719  -9e-06  0.970505  0.0  0.149278  -8.6e-05  0.969829  0.0  0.112879  0.145579  2.5e-05  0.971007  0.0
H  H28  1  0.85992370  0.33079907  0.64381241  1  0.126784  -0.000301  0.901718  0.0  0.144068  0.000213  0.955162  0.0  0.146208  0.000134  0.954146  0.0  0.114429  0.142454  0.000273  0.955986  0.0
H  H29  1  0.35992311  0.16920062  0.35618766  1  0.126783  -0.000301  0.901717  0.0  0.144064  0.000213  0.955169  0.0  0.146205  0.000133  0.954152  0.0  0.114427  0.142451  0.000274  0.955991  0.0
H  H30  1  0.14007659  0.66920033  0.35618798  1  0.126791  -0.000302  0.901717  0.0  0.144076  0.000213  0.955155  0.0  0.146219  0.000133  0.954136  0.0  0.11443  0.142465  0.000274  0.955981  0.0
H  H31  1  0.64007512  0.83079981  0.64381228  1  0.126797  -0.000301  0.901718  0.0  0.144073  0.000213  0.955169  0.0  0.146213  0.000133  0.954155  0.0  0.11444  0.142464  0.000274  0.955996  0.0
H  H32  1  0.18804240  0.27293380  0.61709777  1  0.129677  -0.000331  0.939582  0.0  0.142488  3.6e-05  1.00146  0.0  0.145341  -5.3e-05  0.999962  0.0  0.110993  0.140364  0.000175  1.002465  0.0
H  H33  1  0.68803755  0.22706318  0.38290165  1  0.129647  -0.00033  0.939693  0.0  0.142496  3.6e-05  1.001511  0.0  0.14535  -5.4e-05  1.000011  0.0  0.110985  0.140369  0.000175  1.002511  0.0
H  H34  1  0.81195583  0.72706559  0.38290211  1  0.129684  -0.000331  0.939571  0.0  0.142491  3.6e-05  1.001451  0.0  0.145345  -5.4e-05  0.999951  0.0  0.110989  0.14037  0.000175  1.002455  0.0
H  H35  1  0.31196068  0.77293621  0.61709773  1  0.129667  -0.000331  0.939634  0.0  0.142503  3.6e-05  1.001469  0.0  0.145357  -5.3e-05  0.999968  0.0  0.110998  0.140381  0.000175  1.002475  0.0
C  C36  1  0.79696471  0.60144463  0.01010432  1  -0.122261  0.000144  3.743881  0.0  -0.138931  0.000166  3.987212  0.0  -0.14169  7.9e-05  4.00851  0.0  -0.094244  -0.137034  0.000294  3.972803  0.0
C  C37  1  0.29696876  0.89855825  0.98989556  1  -0.122366  0.000134  3.743881  0.0  -0.139074  0.000166  3.987215  0.0  -0.141835  7.8e-05  4.008496  0.0  -0.094282  -0.137175  0.000294  3.972808  0.0
C  C38  1  0.20303352  0.39855684  0.98989566  1  -0.122333  0.000107  3.743897  0.0  -0.139005  0.000166  3.987224  0.0  -0.141769  7.9e-05  4.008519  0.0  -0.094272  -0.137102  0.000293  3.972804  0.0
C  C39  1  0.70303563  0.10144427  0.01010498  1  -0.122268  0.000118  3.743689  0.0  -0.138947  0.000166  3.987004  0.0  -0.141707  7.9e-05  4.008306  0.0  -0.094249  -0.137047  0.000293  3.972584  0.0
C  C40  1  0.04855930  0.43537168  0.93478366  1  -0.111397  0.000529  3.739949  0.001  -0.130165  0.000683  3.987801  0.001  -0.132539  0.000462  4.009133  0.001  -0.094106  -0.128468  0.000988  3.973115  0.002
C  C41  1  0.54856181  0.06462980  0.06521750  1  -0.11152  0.000518  3.739909  0.001  -0.130318  0.000683  3.987771  0.001  -0.132703  0.000462  4.009097  0.001  -0.094178  -0.128622  0.000989  3.973093  0.002
C  C42  1  0.95143688  0.56463188  0.06521745  1  -0.111548  0.000492  3.740069  0.001  -0.130344  0.000683  3.987936  0.001  -0.132722  0.000462  4.009267  0.001  -0.094213  -0.128651  0.000989  3.973269  0.002
C  C43  1  0.45144463  0.93537167  0.93478299  1  -0.111422  0.000504  3.740005  0.001  -0.130159  0.000683  3.987862  0.001  -0.132533  0.000461  4.009193  0.001  -0.094127  -0.128467  0.000989  3.97319  0.002
C  C44  1  0.84345006  0.53694942  0.94391964  1  0.117138  0.000503  3.763894  0.0  0.13818  0.000511  3.99396  0.001  0.139252  0.000279  4.017778  0.0  -0.014119  0.137289  0.000829  3.977997  0.001
C  C45  1  0.34344849  0.96305127  0.05608065  1  0.117065  0.000517  3.763976  0.0  0.138169  0.000511  3.993947  0.001  0.139267  0.000279  4.017729  0.0  -0.014103  0.137271  0.000829  3.977994  0.001
C  C46  1  0.15654817  0.46305311  0.05608141  1  0.117152  0.000543  3.763835  0.0  0.138177  0.000511  3.993909  0.001  0.139257  0.000279  4.017715  0.0  -0.014098  0.13728  0.000829  3.977957  0.001
C  C47  1  0.65655179  0.03694916  0.94391979  1  0.117045  0.000532  3.763921  0.0  0.138113  0.000511  3.993949  0.001  0.139184  0.000279  4.017771  0.0  -0.014143  0.137221  0.000829  3.977987  0.001
C  C48  1  0.67550049  0.57552190  0.88449928  1  -0.332867  0.003811  3.705283  0.007  -0.375354  0.002291  3.939343  0.004  -0.382917  0.001303  3.946825  0.002  -0.157179  -0.36953  0.00341  3.934362  0.005
C  C49  1  0.17550344  0.92448024  0.11550107  1  -0.332693  0.003809  3.705326  0.007  -0.375162  0.00229  3.939349  0.004  -0.382734  0.001301  3.946827  0.002  -0.157126  -0.369334  0.003409  3.934372  0.005
C  C50  1  0.32449569  0.42447958  0.11550121  1  -0.332842  0.003809  3.705259  0.007  -0.37532  0.002291  3.93933  0.004  -0.382884  0.001303  3.946809  0.002  -0.157178  -0.369495  0.003409  3.934347  0.005
C  C51  1  0.82450094  0.07552227  0.88449896  1  -0.332829  0.003808  3.70541  0.007  -0.375302  0.002291  3.93946  0.004  -0.382867  0.001303  3.946941  0.002  -0.157156  -0.369478  0.003408  3.934473  0.005
C  C52  1  0.82531273  0.65599473  0.83373442  1  0.736928  -0.014884  3.762162  -0.012  0.70044  0.002793  4.061276  0.002  0.740766  0.002239  4.052662  0.002  0.232845  0.669887  0.001778  4.065774  0.001
C  C53  1  0.32531648  0.84400808  0.16626496  1  0.736859  -0.014879  3.762455  -0.012  0.700311  0.002793  4.061617  0.002  0.740636  0.002241  4.053003  0.002  0.232818  0.669748  0.001778  4.066124  0.001
C  C54  1  0.17468551  0.34400570  0.16626552  1  0.736932  -0.014881  3.762198  -0.012  0.700402  0.002792  4.061349  0.002  0.740726  0.002239  4.052734  0.002  0.23283  0.669851  0.001776  4.065825  0.001
C  C55  1  0.67468176  0.15599131  0.83373493  1  0.736975  -0.01488  3.762373  -0.012  0.700436  0.002792  4.061522  0.002  0.740764  0.00224  4.052903  0.002  0.232793  0.669882  0.001775  4.065992  0.001
C  C56  1  0.20115395  0.39973782  0.50521805  1  -0.127503  0.000128  3.759686  0.0  -0.145532  0.000127  4.006171  0.0  -0.148526  6.3e-05  4.028115  0.0  -0.096558  -0.143389  0.000226  3.991272  0.0
C  C57  1  0.70115449  0.10026016  0.49478142  1  -0.127426  0.00012  3.759761  0.0  -0.145461  0.000126  4.006238  0.0  -0.148455  6.3e-05  4.028182  0.0  -0.096535  -0.14332  0.000226  3.991338  0.0
C  C58  1  0.79884428  0.60026158  0.49478234  1  -0.127575  0.000111  3.759708  0.0  -0.145603  0.000127  4.006193  0.0  -0.148598  6.3e-05  4.028137  0.0  -0.09659  -0.143457  0.000226  3.991301  0.0
C  C59  1  0.29884579  0.89973817  0.50521739  1  -0.127497  0.000119  3.759633  0.0  -0.145528  0.000126  4.006128  0.0  -0.148523  6.3e-05  4.028073  0.0  -0.096513  -0.143384  0.000226  3.99123  0.0
C  C60  1  0.82547728  0.53684293  0.55508677  1  -0.110292  0.000255  3.742155  0.0  -0.131209  0.000134  3.992147  0.0  -0.133335  2.4e-05  4.012907  0.0  -0.093189  -0.129697  0.000326  3.978035  0.0
C  C61  1  0.32547609  0.96315675  0.44491246  1  -0.110322  0.000247  3.742128  0.0  -0.131261  0.000134  3.992127  0.0  -0.133389  2.3e-05  4.012886  0.0  -0.093223  -0.129751  0.000326  3.978017  0.0
C  C62  1  0.17452095  0.46315646  0.44491312  1  -0.110269  0.000239  3.742157  0.0  -0.131177  0.000134  3.992151  0.0  -0.133304  2.3e-05  4.01291  0.0  -0.093168  -0.129665  0.000326  3.978037  0.0
C  C63  1  0.67452215  0.03684158  0.55508636  1  -0.110275  0.000247  3.742182  0.0  -0.13118  0.000133  3.992165  0.0  -0.133306  2.3e-05  4.012924  0.0  -0.093171  -0.12967  0.000326  3.978053  0.0
C  C64  1  0.02724026  0.43571793  0.56103744  1  0.115055  0.000428  3.768529  0.0  0.134207  0.000483  4.004092  0.001  0.135126  0.00027  4.027829  0.0  -0.016496  0.133489  0.000694  3.988156  0.001
C  C65  1  0.52723903  0.06428151  0.43896260  1  0.11505  0.000435  3.768549  0.0  0.1342  0.000483  4.004125  0.001  0.13512  0.000271  4.027862  0.0  -0.016471  0.133482  0.000694  3.98819  0.001
C  C66  1  0.97276002  0.56428147  0.43896346  1  0.115105  0.000443  3.768537  0.0  0.134234  0.000482  4.004119  0.001  0.135155  0.00027  4.027855  0.0  -0.016443  0.133515  0.000694  3.988183  0.001
C  C67  1  0.47276125  0.93571683  0.56103672  1  0.115036  0.000437  3.768565  0.0  0.134183  0.000483  4.004135  0.001  0.135102  0.00027  4.027871  0.0  -0.01649  0.133467  0.000694  3.988201  0.001
C  C68  1  0.05982517  0.36675232  0.62577011  1  -0.328913  0.004394  3.704964  0.007  -0.372743  0.003154  3.94457  0.004  -0.379586  0.002072  3.951139  0.003  -0.15615  -0.367589  0.004117  3.940372  0.005
C  C69  1  0.55982529  0.13324809  0.37422998  1  -0.328912  0.004394  3.705055  0.007  -0.372764  0.003154  3.944632  0.004  -0.379608  0.002072  3.951203  0.003  -0.156152  -0.367601  0.004117  3.940428  0.005
C  C70  1  0.94017512  0.63324812  0.37423034  1  -0.328965  0.004395  3.704942  0.007  -0.372784  0.003154  3.944539  0.004  -0.37963  0.002073  3.951109  0.003  -0.156161  -0.367627  0.004117  3.940343  0.005
C  C71  1  0.44017295  0.86675234  0.62576995  1  -0.328947  0.004395  3.705008  0.007  -0.372777  0.003154  3.944593  0.004  -0.379619  0.002072  3.95116  0.003  -0.156182  -0.367631  0.004117  3.940407  0.005
C  C72  1  0.18067609  0.45747173  0.68606391  1  0.726297  -0.014657  3.780912  -0.012  0.69217  0.002566  4.075276  0.002  0.731559  0.001912  4.067626  0.002  0.229388  0.662493  0.001513  4.078995  0.0
C  C73  1  0.68067700  0.04252734  0.31393561  1  0.726384  -0.014656  3.780955  -0.012  0.69226  0.002566  4.075317  0.002  0.731649  0.00191  4.067663  0.002  0.229425  0.662585  0.001513  4.079036  0.0
C  C74  1  0.81932829  0.54252558  0.31393639  1  0.726403  -0.014658  3.780948  -0.012  0.692286  0.002565  4.075284  0.002  0.731677  0.00191  4.067625  0.002  0.229404  0.662603  0.001513  4.079012  0.0
C  C75  1  0.31932123  0.95747308  0.68606381  1  0.726336  -0.014655  3.781019  -0.012  0.692211  0.002566  4.075382  0.002  0.731599  0.001912  4.067731  0.002  0.229449  0.662544  0.001513  4.079092  0.0
O  O76  1  0.69534151  0.70208508  0.78413453  1  -0.658154  0.04956  2.089827  0.085  -0.632499  0.04011  2.383823  0.06  -0.672409  0.030546  2.364235  0.045  -0.321378  -0.599097  0.049989  2.396876  0.075
O  O77  1  0.19534574  0.79791595  0.21586475  1  -0.658132  0.049562  2.089927  0.085  -0.632467  0.040112  2.38395  0.06  -0.672376  0.030545  2.364367  0.045  -0.321401  -0.599059  0.049989  2.397002  0.075
O  O78  1  0.30465877  0.29791535  0.21586540  1  -0.65815  0.049561  2.089829  0.085  -0.632483  0.040111  2.383842  0.06  -0.672394  0.030545  2.364257  0.045  -0.321378  -0.599084  0.049985  2.396875  0.075
O  O79  1  0.80465044  0.20208344  0.78413513  1  -0.658132  0.04956  2.08987  0.085  -0.632482  0.04011  2.383902  0.06  -0.672388  0.030544  2.364301  0.045  -0.321356  -0.599081  0.049981  2.396923  0.075
O  O80  1  0.08418738  0.67301693  0.83989545  1  -0.618341  0.054215  2.102044  0.092  -0.580831  0.0396  2.384905  0.06  -0.622093  0.029017  2.371289  0.044  -0.302584  -0.547162  0.050503  2.393566  0.077
O  O81  1  0.58418958  0.82698542  0.16010491  1  -0.618331  0.054213  2.102073  0.092  -0.580805  0.039599  2.384981  0.06  -0.622064  0.029017  2.371367  0.044  -0.302569  -0.547128  0.050499  2.393635  0.077
O  O82  1  0.91581291  0.32698350  0.16010449  1  -0.618372  0.054214  2.102088  0.092  -0.580835  0.0396  2.384955  0.06  -0.622095  0.029018  2.371339  0.044  -0.302587  -0.547171  0.050497  2.393602  0.077
O  O83  1  0.41580865  0.17301189  0.83989487  1  -0.618404  0.054214  2.102107  0.092  -0.580834  0.0396  2.384954  0.06  -0.622097  0.029017  2.371339  0.044  -0.302559  -0.547169  0.050493  2.39359  0.077
O  O84  1  0.21289690  0.58707812  0.68129155  1  -0.619932  0.052638  2.10008  0.09  -0.586454  0.039072  2.380006  0.06  -0.626303  0.02915  2.364671  0.044  -0.303337  -0.55413  0.048933  2.390438  0.075
O  O85  1  0.71289846  0.91292080  0.31870865  1  -0.619951  0.052639  2.100104  0.09  -0.586468  0.039072  2.380031  0.06  -0.626315  0.02915  2.364693  0.044  -0.303332  -0.554145  0.048932  2.390469  0.075
O  O86  1  0.78710339  0.41291920  0.31870925  1  -0.61996  0.052639  2.100127  0.09  -0.586493  0.039072  2.380059  0.06  -0.626341  0.029149  2.364721  0.044  -0.303331  -0.554164  0.04893  2.390487  0.075
O  O87  1  0.28709772  0.08707859  0.68129123  1  -0.61991  0.052639  2.100134  0.09  -0.586425  0.039072  2.380053  0.06  -0.626277  0.02915  2.364721  0.044  -0.303348  -0.554093  0.048926  2.390452  0.075
O  O88  1  0.24426775  0.40346830  0.74071157  1  -0.644874  0.046694  2.083215  0.079  -0.61785  0.037682  2.372735  0.056  -0.65682  0.028702  2.354308  0.042  -0.314638  -0.584857  0.04747  2.384492  0.071
O  O89  1  0.74426810  0.09653064  0.25928897  1  -0.644927  0.046692  2.083269  0.079  -0.61791  0.037682  2.372797  0.056  -0.65689  0.028703  2.354388  0.042  -0.314653  -0.584922  0.047471  2.384566  0.071
O  O90  1  0.75574484  0.59652797  0.25928817  1  -0.644952  0.046693  2.083261  0.079  -0.617918  0.037683  2.372761  0.056  -0.656906  0.028704  2.354368  0.042  -0.314639  -0.584934  0.047476  2.38456  0.071
O  O91  1  0.25573013  0.90346875  0.74071040  1  -0.644899  0.046693  2.083336  0.079  -0.617886  0.037682  2.372861  0.056  -0.656866  0.028703  2.354455  0.042  -0.314654  -0.5849  0.047475  2.384639  0.071
