# generated using pymatgen
data_Co3H38C58(N5O4)2
_symmetry_space_group_name_H-M   'P 1'
_cell_length_a   11.39500176
_cell_length_b   11.88664111
_cell_length_c   15.62148919
_cell_angle_alpha   73.41218571
_cell_angle_beta   69.12621314
_cell_angle_gamma   61.68501617
_symmetry_Int_Tables_number   1
_chemical_formula_structural   Co3H38C58(N5O4)2
_chemical_formula_sum   'Co3 H38 C58 N10 O8'
_cell_volume   1722.94864348
_cell_formula_units_Z   1
loop_
 _symmetry_equiv_pos_site_id
 _symmetry_equiv_pos_as_xyz
  1  'x, y, z'
loop_
 _atom_site_type_symbol
 _atom_site_label
 _atom_site_symmetry_multiplicity
 _atom_site_fract_x
 _atom_site_fract_y
 _atom_site_fract_z
 _atom_site_occupancy
 _atom_site_pbe_bader_charge
 _atom_site_pbe_bader_spin_density
 _atom_site_pbe_cm5_charge
 _atom_site_pbe_ddec_charge
 _atom_site_pbe_ddec_spin_density
 _atom_site_pbe_ddec_sum_bond_order
 _atom_site_pbe_magmom
Co  Co0  1  0.49999563  0.50000444  0.99999854  1  1.200329  0.083678  0.812276  0.672671  0.095869  3.389857  0.083
Co  Co1  1  0.00000204  0.49999712  0.99999991  1  1.274296  2.521053  0.646527  0.853488  2.813757  2.536236  2.509
Co  Co2  1  0.99999734  0.99999820  0.00000102  1  1.088637  0.934054  0.694504  0.541428  1.038091  3.128004  0.925
H  H3  1  0.42692894  0.56799516  0.18359630  1  0.123692  8.1e-05  0.123894  0.100015  -3.8e-05  0.993214  0.0
H  H4  1  0.96819684  0.69921144  0.54437647  1  0.062398  0.000224  0.096901  0.094767  0.000118  1.015348  0.0
H  H5  1  0.38751598  0.45899539  0.34511268  1  0.066737  0.000171  0.107017  0.113005  -1.7e-05  1.003038  0.0
H  H6  1  0.32697476  0.09032450  0.36960147  1  0.035376  0.000383  0.098337  0.093506  7.2e-05  1.012882  0.0
H  H7  1  0.15734040  0.31548942  0.13849912  1  0.143162  0.001215  0.118317  0.099337  0.000116  0.996581  0.001
H  H8  1  0.30639029  0.81098847  0.05260273  1  0.132691  0.000209  0.138142  0.102985  -2.5e-05  0.97589  0.0
H  H9  1  0.16410463  0.30442616  0.29921242  1  0.060496  0.000863  0.09826  0.100468  0.000424  1.050116  0.0
H  H10  1  0.14978004  0.31361791  0.85940640  1  0.101121  0.001337  0.116594  0.088625  0.000228  1.004983  0.001
H  H11  1  0.15160532  0.30596347  0.70118587  1  0.050939  0.000841  0.096371  0.097382  0.000401  1.084498  0.0
H  H12  1  0.90780720  0.96482215  0.34198229  1  0.061234  0.000204  0.103207  0.107684  -2.8e-05  1.008726  0.0
H  H13  1  0.97418489  0.99588976  0.82333217  1  0.12806  -0.000125  0.118979  0.100042  -0.000291  1.014878  0.0
H  H14  1  0.45587405  0.31479867  0.46068552  1  0.053646  0.000267  0.100416  0.098367  1.5e-05  1.005081  0.0
H  H15  1  0.38255190  0.08246385  0.74765636  1  0.046564  0.000132  0.105874  0.108373  -5.4e-05  1.002651  0.0
H  H16  1  0.02580551  0.00412200  0.17666623  1  0.122555  -0.000127  0.119034  0.100054  -0.000291  1.014891  0.0
H  H17  1  0.03183330  0.30075253  0.45561959  1  0.062447  0.000224  0.096939  0.094886  0.000118  1.015274  0.0
H  H18  1  0.61274061  0.77951683  0.37956295  1  0.03328  0.000303  0.099519  0.096077  6e-05  1.01098  0.0
H  H19  1  0.02388604  0.30227893  0.61533252  1  0.067187  0.000137  0.097181  0.095514  7.9e-05  1.031798  0.0
H  H20  1  0.47969321  0.25690446  0.08123056  1  0.122969  8.4e-05  0.124461  0.098521  2e-06  1.005765  0.0
H  H21  1  0.25310891  0.03924369  0.90894646  1  0.128215  -3.8e-05  0.121705  0.102581  -0.000223  1.010448  0.0
H  H22  1  0.67300006  0.90970194  0.63039981  1  0.034644  0.000383  0.098293  0.093404  7.2e-05  1.012973  0.0
H  H23  1  0.45007434  0.13191057  0.23677032  1  0.075811  0.000411  0.103654  0.105888  0.000127  1.025051  0.0
H  H24  1  0.84267939  0.68450660  0.86148421  1  0.143392  0.001215  0.118331  0.099328  0.000116  0.996813  0.001
H  H25  1  0.61744379  0.91753698  0.25235185  1  0.046513  0.000133  0.105884  0.108365  -5.4e-05  1.002802  0.0
H  H26  1  0.09218537  0.03519327  0.65801741  1  0.061693  0.000203  0.103218  0.107683  -2.8e-05  1.008762  0.0
H  H27  1  0.25759813  0.99651258  0.52943479  1  0.024603  0.000434  0.099297  0.096872  0.000121  1.005653  0.0
H  H28  1  0.74687989  0.96076028  0.09106028  1  0.128061  -3.8e-05  0.12173  0.102607  -0.000223  1.010389  0.0
H  H29  1  0.61246008  0.54102821  0.65488693  1  0.066796  0.000171  0.107024  0.112987  -1.7e-05  1.003071  0.0
H  H30  1  0.52030810  0.74310106  0.91877277  1  0.122922  8.4e-05  0.124436  0.098435  2e-06  1.005712  0.0
H  H31  1  0.57306242  0.43201659  0.81640122  1  0.123752  8.1e-05  0.123851  0.099849  -3.8e-05  0.993354  0.0
H  H32  1  0.54992060  0.86809894  0.76323380  1  0.075619  0.000411  0.103616  0.105865  0.000127  1.025079  0.0
H  H33  1  0.83593245  0.69555310  0.70077185  1  0.060816  0.000863  0.098332  0.100441  0.000424  1.050168  0.0
H  H34  1  0.85021040  0.68637059  0.14060812  1  0.100929  0.001338  0.11662  0.088687  0.000228  1.004945  0.001
H  H35  1  0.69360091  0.18901477  0.94739459  1  0.132424  0.000209  0.138162  0.102988  -2.5e-05  0.975932  0.0
H  H36  1  0.97613597  0.69769095  0.38466567  1  0.067075  0.000137  0.097241  0.095637  7.9e-05  1.031635  0.0
H  H37  1  0.54410423  0.68522369  0.53932083  1  0.053166  0.000267  0.100409  0.098365  1.5e-05  1.004992  0.0
H  H38  1  0.84839739  0.69400467  0.29882962  1  0.051007  0.000841  0.096359  0.097404  0.000401  1.084538  0.0
H  H39  1  0.74239240  0.00350104  0.47056449  1  0.024496  0.000434  0.099301  0.096857  0.000121  1.00566  0.0
H  H40  1  0.38725582  0.22048698  0.62044001  1  0.032991  0.000303  0.099511  0.096116  6e-05  1.010903  0.0
C  C41  1  0.28269037  0.49080797  0.96829009  1  1.552252  0.000515  0.212366  0.549911  -0.000494  4.200004  0.001
C  C42  1  0.22902260  0.61834614  0.99477805  1  0.389861  0.000153  0.06933  -0.029598  -0.000824  4.005579  0.0
C  C43  1  0.70699018  0.93688210  0.23988503  1  -0.034551  0.009209  -0.092739  -0.185308  0.004686  3.996575  0.005
C  C44  1  0.75024549  0.93540394  0.31459162  1  -0.005743  0.007534  -0.005293  0.081353  0.003613  4.019276  0.003
C  C45  1  0.91987348  0.60447810  0.17776794  1  0.452459  -0.009272  0.043055  0.098234  -0.010074  3.957861  -0.006
C  C46  1  0.31041729  0.10485293  0.58915851  1  -0.015547  0.021623  -0.019263  0.040222  0.011097  4.012479  0.013
C  C47  1  0.88887497  0.26579164  0.00625716  1  0.402752  -0.001721  0.07723  -0.002916  -0.002814  3.967253  -0.001
C  C48  1  0.46170475  0.29657740  0.14174714  1  0.460353  0.00209  0.04281  0.079456  0.000647  3.944312  0.0
C  C49  1  0.86609247  0.96445626  0.28926685  1  -0.068636  0.010374  -0.096252  -0.190164  0.005348  3.991243  0.006
C  C50  1  0.44300717  0.22846186  0.22964395  1  -0.008118  0.006344  -0.090042  -0.182589  0.003259  3.991029  0.003
C  C51  1  0.91872229  0.60777716  0.26615164  1  -0.033557  0.005375  -0.093292  -0.184228  0.002472  3.956978  0.004
C  C52  1  0.98115470  0.61183913  0.52528496  1  -0.020588  -0.001263  -0.090972  -0.123379  -0.001395  3.993  -0.001
C  C53  1  0.77806204  0.96117413  0.14921902  1  0.43675  -0.003585  0.036264  0.065169  -0.004728  3.941348  -0.004
C  C54  1  0.00590050  0.49902858  0.31364797  1  -0.013979  -0.013161  0.005022  0.107261  -0.014078  3.9936  -0.009
C  C55  1  0.68957714  0.89515572  0.41084334  1  -0.016016  0.021623  -0.019381  0.040089  0.011097  4.012557  0.013
C  C56  1  0.43118236  0.47105535  0.19920788  1  0.403659  0.004685  0.043214  0.080646  0.002153  3.943201  0.002
C  C57  1  0.99571890  0.50086830  0.59149369  1  -0.050877  -0.000323  -0.007955  0.063292  -0.000638  3.994232  0.0
C  C58  1  0.71731654  0.50918901  0.03170713  1  1.552119  0.000517  0.212417  0.55016  -0.000493  4.199816  0.001
C  C59  1  0.26018256  0.76448590  0.03237148  1  0.954311  -0.00175  0.138839  0.143936  -0.002183  3.93944  -0.001
C  C60  1  0.73981245  0.23551725  0.96762427  1  0.954492  -0.001749  0.138823  0.143906  -0.002182  3.939507  -0.001
C  C61  1  0.97955435  0.77742998  0.97066657  1  1.59951  -0.000632  0.204938  0.551724  -0.001112  4.254874  0.0
C  C62  1  0.41093571  0.24605087  0.47524632  1  -0.073509  0.007484  -0.092976  -0.124759  0.003782  3.993913  0.004
C  C63  1  0.58905164  0.75396549  0.52475961  1  -0.072697  0.007483  -0.092882  -0.124642  0.003782  3.993985  0.004
C  C64  1  0.13390413  0.03554951  0.71073375  1  -0.069332  0.010375  -0.096242  -0.190129  0.005348  3.991329  0.006
C  C65  1  0.06560098  0.01507252  0.80270724  1  0.454169  -0.001922  0.035202  0.069807  -0.003039  3.947359  -0.003
C  C66  1  0.98547005  0.61104533  0.43532895  1  -0.03884  -0.001314  -0.088688  -0.118234  -0.001435  3.977977  -0.001
C  C67  1  0.58810958  0.59216079  0.71102819  1  0.031074  0.006058  -0.088956  -0.180709  0.003148  3.964297  0.003
C  C68  1  0.09247809  0.39135994  0.26688667  1  -0.002368  0.005592  -0.091453  -0.183118  0.002591  3.965201  0.004
C  C69  1  0.01454464  0.38892856  0.56467091  1  -0.038973  -0.001315  -0.088678  -0.118102  -0.001437  3.97833  -0.001
C  C70  1  0.02045050  0.22256514  0.02933217  1  1.599487  -0.000631  0.204985  0.551693  -0.001111  4.254894  0.0
C  C71  1  0.29901599  0.06791122  0.51507971  1  -0.024359  0.004511  -0.093383  -0.12477  0.00208  4.001149  0.001
C  C72  1  0.99412477  0.50094686  0.68635024  1  -0.01449  -0.013164  0.005026  0.107102  -0.014081  3.993891  -0.009
C  C73  1  0.93439198  0.98493532  0.19729193  1  0.459164  -0.001922  0.035223  0.069857  -0.00304  3.947256  -0.003
C  C74  1  0.60799181  0.78521344  0.59818239  1  -0.012132  0.012911  -0.017791  0.045617  0.006488  4.006  0.007
C  C75  1  0.08128961  0.39219848  0.73385561  1  -0.033414  0.005375  -0.093247  -0.18405  0.002472  3.957096  0.004
C  C76  1  0.33978734  0.12027444  0.42430618  1  -0.018309  0.006814  -0.093138  -0.12885  0.003489  4.013955  0.003
C  C77  1  0.90755093  0.60862033  0.73310453  1  -0.002651  0.005593  -0.091411  -0.182858  0.00259  3.965639  0.004
C  C78  1  0.11112761  0.73420456  0.99374001  1  0.403008  -0.001722  0.077308  -0.002824  -0.002815  3.967253  -0.001
C  C79  1  0.29300395  0.06312273  0.76011829  1  -0.034746  0.009211  -0.092766  -0.185371  0.004687  3.996314  0.005
C  C80  1  0.58204357  0.71811509  0.69237375  1  -0.064509  0.014932  0.002395  0.096491  0.007658  4.001039  0.008
C  C81  1  0.56880723  0.52895831  0.80079098  1  0.403716  0.004686  0.043389  0.081015  0.002154  3.942883  0.002
C  C82  1  0.53829712  0.70342909  0.85825458  1  0.460375  0.00209  0.042811  0.079546  0.000647  3.944088  0.0
C  C83  1  0.24975407  0.06459698  0.68540921  1  -0.005617  0.007537  -0.005271  0.081395  0.003615  4.019183  0.003
C  C84  1  0.55699428  0.77154556  0.77035896  1  -0.007882  0.006343  -0.090073  -0.1827  0.003258  3.991006  0.003
C  C85  1  0.37338756  0.19121893  0.56587589  1  -0.021623  0.002352  -0.091623  -0.124618  0.000734  4.006103  0.0
C  C86  1  0.08013115  0.39550828  0.82223771  1  0.451966  -0.009272  0.043065  0.098232  -0.010076  3.958051  -0.006
C  C87  1  0.41794543  0.28189751  0.30762931  1  -0.06447  0.014932  0.002349  0.096368  0.007658  4.001114  0.008
C  C88  1  0.70097586  0.93210132  0.48492202  1  -0.02417  0.004507  -0.093314  -0.124573  0.002078  4.001112  0.001
C  C89  1  0.77098278  0.38165493  0.00521170  1  0.389876  0.000153  0.069377  -0.029609  -0.000824  4.005633  0.0
C  C90  1  0.90955749  0.60319666  0.82267165  1  0.454759  -0.01015  0.042015  0.097547  -0.011105  3.93671  -0.007
C  C91  1  0.09046157  0.39679639  0.17731629  1  0.454788  -0.010149  0.042164  0.097817  -0.011105  3.935928  -0.007
C  C92  1  0.22192963  0.03882981  0.85078509  1  0.436353  -0.003584  0.036249  0.065191  -0.004727  3.941388  -0.004
C  C93  1  0.00430323  0.49910343  0.40850603  1  -0.051619  -0.000324  -0.007963  0.063224  -0.000639  3.994343  0.0
C  C94  1  0.01887153  0.38812970  0.47471176  1  -0.020679  -0.001263  -0.090914  -0.123474  -0.001394  3.99328  -0.001
C  C95  1  0.41188204  0.40785468  0.28897109  1  0.031416  0.00606  -0.088859  -0.180531  0.003149  3.964345  0.003
C  C96  1  0.66019654  0.87974597  0.57569533  1  -0.017938  0.006816  -0.093094  -0.128791  0.003489  4.013955  0.003
C  C97  1  0.39199325  0.21480399  0.40182198  1  -0.012185  0.012914  -0.017751  0.045706  0.006489  4.005869  0.007
C  C98  1  0.62660183  0.80879269  0.43412791  1  -0.021598  0.002353  -0.091684  -0.124637  0.000733  4.006265  0.0
N  N99  1  0.00501505  0.50140617  0.13279463  1  -1.18873  0.044749  -0.326209  -0.248703  0.024488  3.586762  0.042
N  N100  1  0.67928707  0.35999019  0.98103876  1  -1.179793  0.00013  -0.363297  -0.2755  -0.000225  3.676629  0.0
N  N101  1  0.89343703  0.98179246  0.12669607  1  -1.171463  0.008866  -0.3407  -0.173431  0.002986  3.634045  0.009
N  N102  1  0.32071287  0.64001481  0.01895284  1  -1.179737  0.000129  -0.363283  -0.275424  -0.000226  3.676477  0.0
N  N103  1  0.99499116  0.49858795  0.86720397  1  -1.188609  0.044747  -0.32619  -0.248595  0.024487  3.586786  0.042
N  N104  1  0.10655428  0.01821256  0.87330472  1  -1.17161  0.008867  -0.340607  -0.173394  0.002986  3.634157  0.009
N  N105  1  0.13373986  0.82426942  0.01687431  1  -1.150565  -0.003111  -0.35887  -0.266091  -0.003482  3.668446  -0.002
N  N106  1  0.45715878  0.41636205  0.12565261  1  -1.174808  0.013656  -0.337592  -0.180576  0.007016  3.627121  0.011
N  N107  1  0.86625772  0.17572982  0.98312222  1  -1.150253  -0.003112  -0.358801  -0.265929  -0.003483  3.668325  -0.002
N  N108  1  0.54284391  0.58364257  0.87434735  1  -1.174581  0.013655  -0.3376  -0.180553  0.007015  3.626911  0.011
O  O109  1  0.21331538  0.44893154  0.94978987  1  -1.144497  0.051547  -0.296121  -0.505751  0.027621  2.34892  0.042
O  O110  1  0.05597646  0.30394013  0.03864774  1  -1.161682  0.068745  -0.313814  -0.550727  0.037218  2.407765  0.057
O  O111  1  0.41427067  0.42126148  0.96386027  1  -1.06302  0.005446  -0.294908  -0.48511  0.0027  2.343843  0.004
O  O112  1  0.94402200  0.69605888  0.96135503  1  -1.161763  0.068748  -0.313807  -0.550754  0.03722  2.407639  0.057
O  O113  1  0.78668929  0.55106155  0.05021316  1  -1.144414  0.051547  -0.296111  -0.505832  0.02762  2.348932  0.042
O  O114  1  0.09346870  0.10069838  0.03811693  1  -1.148666  0.069052  -0.312699  -0.536198  0.036484  2.256267  0.06
O  O115  1  0.90652649  0.89929509  0.96188517  1  -1.148642  0.06906  -0.312674  -0.536193  0.036486  2.256223  0.06
O  O116  1  0.58573504  0.57873842  0.03613603  1  -1.062858  0.005448  -0.294963  -0.48523  0.002702  2.343745  0.004
