# generated using pymatgen
data_ZnH30C25NO8
_symmetry_space_group_name_H-M   'P 1'
_cell_length_a   9.57799311
_cell_length_b   10.79884593
_cell_length_c   15.88242588
_cell_angle_alpha   89.56326742
_cell_angle_beta   87.03537293
_cell_angle_gamma   90.59286353
_symmetry_Int_Tables_number   1
_chemical_formula_structural   ZnH30C25NO8
_chemical_formula_sum   'Zn2 H60 C50 N2 O16'
_cell_volume   1640.39839726
_cell_formula_units_Z   2
loop_
 _symmetry_equiv_pos_site_id
 _symmetry_equiv_pos_as_xyz
  1  'x, y, z'
loop_
 _atom_site_type_symbol
 _atom_site_label
 _atom_site_symmetry_multiplicity
 _atom_site_fract_x
 _atom_site_fract_y
 _atom_site_fract_z
 _atom_site_occupancy
 _atom_site_pbe_bader_charge
 _atom_site_pbe_bader_spin_density
 _atom_site_pbe_cm5_charge
 _atom_site_pbe_ddec_charge
 _atom_site_pbe_ddec_spin_density
 _atom_site_pbe_ddec_sum_bond_order
 _atom_site_pbe_magmom
Zn  Zn0  1  0.35160222  0.49691815  0.50362929  1  1.269948  0  0.675005  0.80223  0  2.45553  0
Zn  Zn1  1  0.64254319  0.50027246  0.49736484  1  1.271734  0  0.674569  0.81068  0  2.38731  0
H  H2  1  0.28854586  0.88575378  0.45174413  1  0.035359  0  0.095375  0.101465  0  0.983295  0
H  H3  1  0.67649476  0.89995028  0.57558157  1  0.025401  0  0.093044  0.095035  0  0.991517  0
H  H4  1  0.51834133  0.88471412  0.36614537  1  0.096459  0  0.105522  0.123542  0  0.976609  0
H  H5  1  0.67673947  0.88534810  0.41883634  1  0.103018  0  0.095836  0.106629  0  1.036771  0
H  H6  1  0.90353199  0.40431497  0.38993011  1  0.063206  0  0.11752  0.1074  0  0.972712  0
H  H7  1  0.13753789  0.34864425  0.42150037  1  0.095767  0  0.120799  0.115395  0  0.969726  0
H  H8  1  0.85724963  0.31694755  0.48092998  1  0.102236  0  0.116811  0.112931  0  0.99164  0
H  H9  1  0.09073798  0.31741514  0.52814495  1  0.092422  0  0.12142  0.11272  0  0.953943  0
H  H10  1  0.88632482  0.41366515  0.61250667  1  0.103685  0  0.134595  0.114674  0  0.933215  0
H  H11  1  0.11761302  0.46777555  0.63228902  1  0.121211  0  0.136479  0.122865  0  0.934233  0
H  H12  1  0.90848632  0.70163516  0.50013967  1  0.126708  0  0.128849  0.107016  0  0.984767  0
H  H13  1  0.14324950  0.69021341  0.45672828  1  0.134321  0  0.131241  0.115562  0  0.976501  0
H  H14  1  0.30402625  0.52576947  0.08573655  1  0.026168  0  0.094025  0.090368  0  1.018531  0
H  H15  1  0.42619404  0.33337620  0.09392731  1  0.049019  0  0.097357  0.099403  0  0.990368  0
H  H16  1  0.60841650  0.32283398  0.07671018  1  0.05483  0  0.104765  0.115705  0  0.995973  0
H  H17  1  0.38867699  0.67045033  0.07647027  1  0.084063  0  0.103251  0.116019  0  0.982222  0
H  H18  1  0.64519517  0.64424298  0.90600740  1  0.036638  0  0.098917  0.107474  0  1.001076  0
H  H19  1  0.72787567  0.50135042  0.90840775  1  0.071516  0  0.102709  0.119011  0  0.985551  0
H  H20  1  0.28663439  0.10049471  0.44422234  1  0.025449  0  0.092112  0.092997  0  0.982679  0
H  H21  1  0.66870516  0.11715574  0.57685312  1  0.052097  0  0.089335  0.081613  0  1.009032  0
H  H22  1  0.28796062  0.10942089  0.55472577  1  0.04362  0  0.093406  0.096913  0  0.984867  0
H  H23  1  0.50228406  0.11297654  0.62892230  1  0.049084  0  0.10042  0.106003  0  0.962954  0
H  H24  1  0.28328893  0.89416056  0.56284964  1  0.04298  0  0.08818  0.084659  0  1.000042  0
H  H25  1  0.51901503  0.89864504  0.63848148  1  0.012633  0  0.093419  0.092906  0  0.989098  0
H  H26  1  0.15079570  0.57285898  0.98059153  1  0.050031  0  0.097177  0.025783  0  0.973269  0
H  H27  1  0.27238590  0.32771421  0.99529707  1  0.039495  0  0.095635  0.021099  0  0.994771  0
H  H28  1  0.50391777  0.21390269  0.32609602  1  0.056853  0  0.104635  0.043102  0  0.9684  0
H  H29  1  0.78570106  0.09074949  0.46018231  1  0.036991  0  0.099551  0.029703  0  0.968919  0
H  H30  1  0.84450881  0.58659556  0.32813282  1  0.091687  0  0.110159  0.047837  0  0.996269  0
H  H31  1  0.13622953  0.48075234  0.32781553  1  0.076442  0  0.108843  0.043438  0  0.997929  0
H  H32  1  0.75531491  0.65961450  0.62756537  1  0.117244  0  0.110153  0.059419  0  1.005626  0
H  H33  1  0.22322224  0.67252081  0.63063936  1  0.11843  0  0.120408  0.072117  0  0.987768  0
H  H34  1  0.83708370  0.13837008  0.84882989  1  0.005536  0  0.084209  0.110921  0  1.00068  0
H  H35  1  0.69031010  0.03662977  0.85993701  1  0.01221  0  0.080864  0.102871  0  1.017133  0
H  H36  1  0.74913361  0.09171411  0.75844709  1  -0.015629  0  0.080723  0.107174  0  1.010826  0
H  H37  1  0.53399903  0.20608917  0.81069258  1  0.065636  0  0.085184  0.0801  0  1.00723  0
H  H38  1  0.67972858  0.30687596  0.79669267  1  0.021457  0  0.082473  0.078785  0  1.005436  0
H  H39  1  0.71937958  0.30452775  0.94700101  1  0.013821  0  0.088088  0.079875  0  1.027848  0
H  H40  1  0.60174137  0.18103785  0.96555466  1  0.03249  0  0.094603  0.092554  0  0.98031  0
H  H41  1  0.25277442  0.91175382  0.85030769  1  0.068219  0  0.087374  0.118473  0  0.996779  0
H  H42  1  0.43580746  0.93534346  0.83976043  1  0.033109  0  0.086112  0.118027  0  1.007647  0
H  H43  1  0.34051179  0.90212444  0.74954005  1  0.022165  0  0.080938  0.104094  0  1.023065  0
H  H44  1  0.46726853  0.71272414  0.79483234  1  0.033352  0  0.084948  0.078382  0  1.003738  0
H  H45  1  0.28561103  0.68751857  0.80343680  1  -0.000392  0  0.086096  0.082844  0  0.987909  0
H  H46  1  0.29222031  0.75440823  0.95873904  1  0.036981  0  0.095373  0.090836  0  0.976801  0
H  H47  1  0.47419837  0.75677767  0.94688390  1  0.052525  0  0.096803  0.095021  0  1.024916  0
H  H48  1  0.78708342  0.94209645  0.08886696  1  0.028543  0  0.078878  0.101128  0  1.011425  0
H  H49  1  0.61978782  0.93042467  0.14256361  1  -0.003146  0  0.081488  0.111127  0  1.007492  0
H  H50  1  0.77301833  0.93001695  0.20069085  1  0.015976  0  0.086729  0.123133  0  1.005366  0
H  H51  1  0.67181225  0.71539271  0.19011525  1  0.054081  0  0.084232  0.077513  0  1.010233  0
H  H52  1  0.84220852  0.72632739  0.14281408  1  0.012058  0  0.087479  0.079918  0  0.982499  0
H  H53  1  0.75139216  0.74839391  0.00158413  1  0.012955  0  0.089122  0.084243  0  0.986609  0
H  H54  1  0.57950568  0.75728477  0.04401196  1  0.00668  0  0.086382  0.078995  0  1.033397  0
H  H55  1  0.00115166  0.34290871  0.10584390  1  0.024358  0  0.085208  0.114793  0  0.997626  0
H  H56  1  0.05419278  0.49088516  0.14235418  1  -0.004456  0  0.077931  0.100027  0  1.034448  0
H  H57  1  0.99194492  0.37430693  0.21513459  1  -0.001974  0  0.081014  0.107506  0  1.015657  0
H  H58  1  0.80914840  0.53858458  0.19053853  1  0.015678  0  0.084563  0.070859  0  1.035724  0
H  H59  1  0.75398756  0.38828919  0.16698091  1  0.031338  0  0.086096  0.079147  0  0.996644  0
H  H60  1  0.81153602  0.41987210  0.01627573  1  0.006215  0  0.085728  0.075112  0  1.034267  0
H  H61  1  0.88689123  0.56487961  0.03246430  1  -0.00235  0  0.090407  0.088283  0  0.987148  0
C  C62  1  0.49622317  0.25956019  0.49288826  1  1.513989  0  0.219109  0.571329  0  4.142342  0
C  C63  1  0.64181962  0.55406133  0.93836384  1  -0.029743  0  -0.149924  -0.252077  0  3.768834  0
C  C64  1  0.66325665  0.57052008  0.03507384  1  0.026078  0  -0.001251  0.113269  0  3.634899  0
C  C65  1  0.49444089  0.47880581  0.82821264  1  -0.390673  0  0.001786  0.032127  0  3.993047  0
C  C66  1  0.52326696  0.51705469  0.17172359  1  -0.40081  0  0.000892  0.027701  0  3.99204  0
C  C67  1  0.50420808  0.51433426  0.24787674  1  0.155286  0  -0.054954  -0.233471  0  3.96481  0
C  C68  1  0.34194966  0.06854835  0.49918103  1  -0.017455  0  -0.164269  -0.179845  0  3.889792  0
C  C69  1  0.56379844  0.07583394  0.57459222  1  -0.074765  0  -0.154057  -0.171213  0  3.854888  0
C  C70  1  0.34114859  0.92604752  0.50500321  1  -0.024891  0  -0.165889  -0.181427  0  3.878753  0
C  C71  1  0.56829404  0.93296220  0.57858677  1  0.022459  0  -0.159234  -0.180099  0  3.87  0
C  C72  1  0.57146505  0.06513737  0.41340434  1  -0.026777  0  -0.016855  -0.034425  0  3.754108  0
C  C73  1  0.49286049  0.11890489  0.49397313  1  0.080201  0  -0.008814  -0.009061  0  3.781078  0
C  C74  1  0.49190710  0.87875290  0.50396805  1  0.008718  0  -0.016913  0.031185  0  3.817234  0
C  C75  1  0.49682200  0.50843229  0.33792719  1  1.627382  0  0.225434  0.680089  0  4.226693  0
C  C76  1  0.56991447  0.92160723  0.42113195  1  -0.076987  0  -0.152933  -0.225233  0  3.775582  0
C  C77  1  0.92002605  0.39657421  0.45763407  1  0.227653  0  -0.069422  -0.101902  0  3.823134  0
C  C78  1  0.07507649  0.38239795  0.47616149  1  0.202775  0  -0.065811  -0.095245  0  3.827643  0
C  C79  1  0.92614420  0.62408282  0.45687209  1  0.200535  0  0.003036  -0.039522  0  3.746942  0
C  C80  1  0.08860759  0.60391214  0.44195287  1  0.231526  0  0.004432  -0.039908  0  3.729142  0
C  C81  1  0.90874421  0.50817346  0.58902850  1  0.198498  0  0.002311  -0.033309  0  3.765464  0
C  C82  1  0.06904546  0.53184666  0.58851026  1  0.225927  0  0.007297  -0.040429  0  3.759029  0
C  C83  1  0.49519924  0.73816978  0.50586562  1  1.570415  0  0.22936  0.601222  0  4.077119  0
C  C84  1  0.49044640  0.47918834  0.66249656  1  1.632903  0  0.226156  0.677548  0  4.220588  0
C  C85  1  0.39258277  0.57511202  0.05310668  1  -0.05418  0  -0.150877  -0.252938  0  3.835791  0
C  C86  1  0.51661157  0.37310924  0.05700804  1  -0.033477  0  -0.146662  -0.245216  0  3.810251  0
C  C87  1  0.50056217  0.35390747  0.96071765  1  -0.006824  0  -0.003468  0.037889  0  3.672908  0
C  C88  1  0.37974900  0.57239387  0.95619064  1  -0.005463  0  -0.009779  0.027616  0  3.716221  0
C  C89  1  0.49324457  0.47465561  0.75206701  1  0.159198  0  -0.047302  -0.218414  0  3.970545  0
C  C90  1  0.52829868  0.51170923  0.08056265  1  0.11716  0  0.007662  0.12972  0  3.838509  0
C  C91  1  0.50126966  0.48886197  0.91859044  1  0.125461  0  0.018836  0.096044  0  3.780363  0
C  C92  1  0.23246162  0.53179536  0.93609262  1  0.933141  0  0.105623  0.27147  0  3.933578  0
C  C93  1  0.35972161  0.28614646  0.95588410  1  0.96211  0  0.107152  0.286699  0  3.893578  0
C  C94  1  0.49989378  0.11132999  0.33494753  1  0.967081  0  0.114791  0.297078  0  3.883672  0
C  C95  1  0.72352835  0.10770078  0.40363158  1  0.958155  0  0.107756  0.298122  0  3.923247  0
C  C96  1  0.86373882  0.66116279  0.37401651  1  0.967401  0  0.105999  0.288649  0  3.90046  0
C  C97  1  0.12990497  0.57830394  0.34894272  1  0.958159  0  0.102667  0.279343  0  3.902879  0
C  C98  1  0.82835623  0.59120553  0.65254335  1  0.982074  0  0.093994  0.275005  0  3.930634  0
C  C99  1  0.11224203  0.66259201  0.61527713  1  0.947779  0  0.124264  0.296393  0  3.820131  0
C  C100  1  0.61895959  0.26662056  0.92786362  1  -0.037518  0  -0.159893  -0.189357  0  3.885881  0
C  C101  1  0.63624898  0.22919075  0.83492935  1  -0.005076  0  -0.175785  -0.107628  0  3.964192  0
C  C102  1  0.73345485  0.11802793  0.82500730  1  -0.023821  0  -0.245492  -0.347272  0  3.980685  0
C  C103  1  0.38116715  0.71052597  0.92379901  1  -0.062958  0  -0.153715  -0.191176  0  3.853148  0
C  C104  1  0.37122617  0.74091369  0.82999225  1  0.005975  0  -0.173047  -0.101208  0  3.961511  0
C  C105  1  0.34890829  0.87978902  0.81676747  1  -0.117621  0  -0.244237  -0.351931  0  3.962113  0
C  C106  1  0.67976135  0.71130800  0.05259863  1  -0.039805  0  -0.164351  -0.207974  0  3.892129  0
C  C107  1  0.73368406  0.75619343  0.13649284  1  -0.030316  0  -0.171556  -0.093617  0  3.951992  0
C  C108  1  0.72816637  0.89751091  0.14246051  1  -0.022703  0  -0.247628  -0.353833  0  3.9635  0
C  C109  1  0.80068865  0.50285517  0.05573124  1  -0.005367  0  -0.161436  -0.196823  0  3.86727  0
C  C110  1  0.82785129  0.46240220  0.14620070  1  -0.00193  0  -0.172521  -0.102538  0  3.95956  0
C  C111  1  0.97706154  0.41530139  0.15265759  1  -0.042163  0  -0.247072  -0.352623  0  3.972103  0
N  N112  1  0.86328589  0.51085425  0.49963814  1  -0.961219  0  -0.319766  -0.143064  0  3.376404  0
N  N113  1  0.13195456  0.50522084  0.50186697  1  -0.967309  0  -0.320563  -0.138635  0  3.397015  0
O  O114  1  0.38322139  0.31374290  0.51491538  1  -1.175475  0  -0.311769  -0.53201  0  2.391728  0
O  O115  1  0.61290194  0.31223159  0.47250613  1  -1.17368  0  -0.307662  -0.545367  0  2.360866  0
O  O116  1  0.38062002  0.47584724  0.37492536  1  -1.150298  0  -0.3076  -0.549417  0  2.319734  0
O  O117  1  0.60900470  0.53502004  0.37438282  1  -1.151521  0  -0.305182  -0.53789  0  2.322523  0
O  O118  1  0.38267277  0.68103336  0.48989590  1  -1.169726  0  -0.312336  -0.552181  0  2.410307  0
O  O119  1  0.60967768  0.68603310  0.52159413  1  -1.180843  0  -0.312605  -0.551765  0  2.358361  0
O  O120  1  0.37624489  0.51156262  0.63109660  1  -1.159653  0  -0.309194  -0.550671  0  2.315045  0
O  O121  1  0.60363343  0.45245893  0.62036731  1  -1.149132  0  -0.307925  -0.544132  0  2.324791  0
O  O122  1  0.19830381  0.46955577  0.87678252  1  -1.080095  0  -0.251135  -0.33965  0  2.163472  0
O  O123  1  0.34113161  0.18848519  0.92024555  1  -1.082672  0  -0.249828  -0.334205  0  2.143545  0
O  O124  1  0.44163649  0.04541047  0.28549327  1  -1.07166  0  -0.250274  -0.339625  0  2.129156  0
O  O125  1  0.77968253  0.14795939  0.33809467  1  -1.09369  0  -0.267698  -0.362089  0  2.117148  0
O  O126  1  0.84245099  0.76928642  0.35743099  1  -1.059695  0  -0.23039  -0.310432  0  2.160221  0
O  O127  1  0.14744082  0.66400964  0.29912470  1  -1.056865  0  -0.245498  -0.319464  0  2.102486  0
O  O128  1  0.84626323  0.57789000  0.72753359  1  -1.088382  0  -0.267596  -0.350297  0  2.1231  0
O  O129  1  0.03114450  0.74889438  0.62046409  1  -1.058979  0  -0.226957  -0.313352  0  2.151945  0
