# generated using pymatgen
data_ZnH21C35N3O4
_symmetry_space_group_name_H-M   'P 1'
_cell_length_a   16.67536682
_cell_length_b   16.67537025
_cell_length_c   23.19661665
_cell_angle_alpha   99.84591772
_cell_angle_beta   99.84616991
_cell_angle_gamma   114.36357896
_symmetry_Int_Tables_number   1
_chemical_formula_structural   ZnH21C35N3O4
_chemical_formula_sum   'Zn4 H84 C140 N12 O16'
_cell_volume   5575.68294196
_cell_formula_units_Z   4
loop_
 _symmetry_equiv_pos_site_id
 _symmetry_equiv_pos_as_xyz
  1  'x, y, z'
loop_
 _atom_site_type_symbol
 _atom_site_label
 _atom_site_symmetry_multiplicity
 _atom_site_fract_x
 _atom_site_fract_y
 _atom_site_fract_z
 _atom_site_occupancy
 _atom_site_pbe_bader_charge
 _atom_site_pbe_bader_spin_density
 _atom_site_pbe_cm5_charge
 _atom_site_pbe_ddec_charge
 _atom_site_pbe_ddec_spin_density
 _atom_site_pbe_ddec_sum_bond_order
 _atom_site_pbe_magmom
Zn  Zn0  1  0.60544718  0.08790278  0.34120740  1  1.252299  0  0.684499  0.751904  0  2.386069  0
Zn  Zn1  1  0.91209623  0.39455389  0.15879185  1  1.252364  0  0.684495  0.751869  0  2.38613  0
Zn  Zn2  1  0.39455356  0.91209665  0.65879192  1  1.252374  0  0.684493  0.751891  0  2.386108  0
Zn  Zn3  1  0.08790383  0.60544766  0.84120808  1  1.25228  0  0.684526  0.751913  0  2.386015  0
H  H4  1  0.07169127  0.73312309  0.56603513  1  0.163764  0  0.110009  0.134897  0  1.040531  0
H  H5  1  0.26687716  0.92830626  0.93396460  1  0.163751  0  0.110003  0.134886  0  1.04053  0
H  H6  1  0.92830811  0.26687815  0.43396597  1  0.163907  0  0.110015  0.134912  0  1.040517  0
H  H7  1  0.73312358  0.07169013  0.06603392  1  0.163904  0  0.110028  0.134938  0  1.040483  0
H  H8  1  0.85205713  0.56878716  0.40388777  1  0.060074  0  0.107182  0.116338  0  1.004318  0
H  H9  1  0.43121297  0.14794248  0.09611108  1  0.060113  0  0.107175  0.116326  0  1.004284  0
H  H10  1  0.14794429  0.43121380  0.59611226  1  0.060063  0  0.107181  0.116328  0  1.00432  0
H  H11  1  0.56878504  0.85205510  0.90388768  1  0.060069  0  0.107183  0.11634  0  1.004323  0
H  H12  1  0.42603265  0.98223667  0.48490895  1  0.141583  0  0.105055  0.116576  0  1.032454  0
H  H13  1  0.01776322  0.57396995  0.01509109  1  0.14146  0  0.105058  0.116541  0  1.032482  0
H  H14  1  0.57396741  0.01776367  0.51508996  1  0.141551  0  0.105035  0.116542  0  1.032468  0
H  H15  1  0.98223685  0.42603222  0.98491237  1  0.141314  0  0.105034  0.11654  0  1.032457  0
H  H16  1  0.27401990  0.90809243  0.50272304  1  0.075404  0  0.100129  0.104815  0  1.018349  0
H  H17  1  0.09190822  0.72598239  0.99727736  1  0.075447  0  0.100076  0.104756  0  1.018264  0
H  H18  1  0.72597947  0.09190638  0.49727561  1  0.075553  0  0.100134  0.104864  0  1.018361  0
H  H19  1  0.90809185  0.27401917  0.00272472  1  0.075417  0  0.10014  0.104879  0  1.018255  0
H  H20  1  0.07024783  0.94939159  0.38991542  1  0.086421  0  0.104206  0.105941  0  1.014181  0
H  H21  1  0.05060936  0.92975440  0.11008507  1  0.086461  0  0.104178  0.10588  0  1.014175  0
H  H22  1  0.92975223  0.05060875  0.61008436  1  0.086514  0  0.104191  0.105919  0  1.01422  0
H  H23  1  0.94939001  0.07024806  0.88991489  1  0.086529  0  0.104162  0.105862  0  1.014185  0
H  H24  1  0.86536548  0.74847663  0.44941234  1  0.050539  0  0.099902  0.103706  0  1.009402  0
H  H25  1  0.25152394  0.13463535  0.05058645  1  0.050516  0  0.099903  0.103718  0  1.009308  0
H  H26  1  0.13463459  0.25152431  0.55058838  1  0.05054  0  0.099909  0.10372  0  1.009396  0
H  H27  1  0.74847612  0.86536377  0.94941145  1  0.050523  0  0.099888  0.10367  0  1.009424  0
H  H28  1  0.68756938  0.87447953  0.35854714  1  0.066409  0  0.106012  0.112315  0  0.993991  0
H  H29  1  0.12551914  0.31242921  0.14145283  1  0.066434  0  0.105996  0.112317  0  0.994025  0
H  H30  1  0.31243136  0.12552111  0.64145276  1  0.066409  0  0.105991  0.112284  0  0.994026  0
H  H31  1  0.87447887  0.68756959  0.85854651  1  0.066415  0  0.105989  0.112285  0  0.994003  0
H  H32  1  0.67684126  0.20046109  0.46609497  1  0.116374  0  0.127446  0.105947  0  0.999672  0
H  H33  1  0.79953930  0.32316058  0.03390405  1  0.11634  0  0.127419  0.105945  0  0.999673  0
H  H34  1  0.32315949  0.79953956  0.53390493  1  0.116404  0  0.127437  0.105916  0  0.999715  0
H  H35  1  0.20046145  0.67683946  0.96609492  1  0.116366  0  0.127441  0.105932  0  0.999689  0
H  H36  1  0.79239701  0.36241510  0.52292737  1  0.12695  0  0.114795  0.121718  0  1.004719  0
H  H37  1  0.63758509  0.20760452  0.97707194  1  0.126929  0  0.114783  0.121711  0  1.00474  0
H  H38  1  0.20760374  0.63758494  0.47707245  1  0.126941  0  0.11479  0.121708  0  1.004717  0
H  H39  1  0.36241566  0.79239491  0.02292739  1  0.126947  0  0.114805  0.121711  0  1.004715  0
H  H40  1  0.78216057  0.42679253  0.35020929  1  0.06219  0  0.10775  0.112639  0  1.005275  0
H  H41  1  0.57320877  0.21783734  0.14979003  1  0.062221  0  0.107771  0.112679  0  1.005289  0
H  H42  1  0.21783881  0.57320749  0.64979037  1  0.0622  0  0.107752  0.112638  0  1.005295  0
H  H43  1  0.42679266  0.78216119  0.85020969  1  0.062198  0  0.107777  0.112691  0  1.005344  0
H  H44  1  0.67123040  0.26388251  0.30126064  1  0.096769  0  0.114505  0.077066  0  1.002454  0
H  H45  1  0.73611860  0.32876852  0.19873886  1  0.096837  0  0.114517  0.077092  0  1.002446  0
H  H46  1  0.32876830  0.73611721  0.69873846  1  0.096789  0  0.114511  0.077065  0  1.002462  0
H  H47  1  0.26388283  0.67123062  0.80126137  1  0.09682  0  0.114511  0.077064  0  1.002478  0
H  H48  1  0.30116504  0.96870756  0.30255189  1  0.080505  0  0.101363  0.104842  0  1.005149  0
H  H49  1  0.03129337  0.69883514  0.19744868  1  0.080489  0  0.101364  0.104835  0  1.005136  0
H  H50  1  0.69883570  0.03129491  0.69744695  1  0.08051  0  0.101332  0.104825  0  1.005206  0
H  H51  1  0.96870670  0.30116763  0.80255442  1  0.080553  0  0.101339  0.104833  0  1.005156  0
H  H52  1  0.93849747  0.12361212  0.42047677  1  0.059236  0  0.097555  0.096557  0  1.029398  0
H  H53  1  0.87638695  0.06150175  0.07952358  1  0.059215  0  0.097566  0.096597  0  1.029352  0
H  H54  1  0.06150122  0.87638760  0.57952363  1  0.059235  0  0.097565  0.096557  0  1.029358  0
H  H55  1  0.12361037  0.93849734  0.92047614  1  0.059277  0  0.097576  0.096603  0  1.029357  0
H  H56  1  0.96018105  0.45203460  0.61282260  1  0.111081  0  0.1093  0.115337  0  1.02123  0
H  H57  1  0.54796662  0.03981896  0.88717893  1  0.111033  0  0.10932  0.115362  0  1.021211  0
H  H58  1  0.03982038  0.54796576  0.38717821  1  0.111061  0  0.109301  0.11534  0  1.021185  0
H  H59  1  0.45203481  0.96018139  0.11282188  1  0.111054  0  0.109297  0.115337  0  1.021216  0
H  H60  1  0.14703873  0.89505958  0.32068088  1  0.041329  0  0.097643  0.098562  0  1.007615  0
H  H61  1  0.10494139  0.85296194  0.17931963  1  0.041229  0  0.097633  0.098517  0  1.007621  0
H  H62  1  0.85296201  0.10494229  0.67931831  1  0.041278  0  0.097658  0.098599  0  1.007588  0
H  H63  1  0.89505731  0.14704022  0.82068193  1  0.041409  0  0.097632  0.098515  0  1.007671  0
H  H64  1  0.12786868  0.75231823  0.46192135  1  0.040523  0  0.099807  0.102474  0  1.02272  0
H  H65  1  0.24768133  0.87213266  0.03807883  1  0.040546  0  0.099823  0.10247  0  1.022764  0
H  H66  1  0.87213206  0.24768241  0.53807812  1  0.040521  0  0.09981  0.102463  0  1.022725  0
H  H67  1  0.75231668  0.12786613  0.96192181  1  0.040291  0  0.099829  0.102475  0  1.022748  0
H  H68  1  0.77377389  0.78539196  0.37616401  1  0.047402  0  0.097243  0.095944  0  1.006656  0
H  H69  1  0.21460729  0.22622602  0.12383517  1  0.04741  0  0.097229  0.095905  0  1.006662  0
H  H70  1  0.22622617  0.21460777  0.62383656  1  0.047389  0  0.097231  0.095916  0  1.006681  0
H  H71  1  0.78539071  0.77377400  0.87616260  1  0.04736  0  0.097228  0.095923  0  1.006678  0
H  H72  1  0.02482247  0.03684684  0.44267215  1  0.009693  0  0.099921  0.100785  0  1.011163  0
H  H73  1  0.96315288  0.97517756  0.05732797  1  0.009689  0  0.099923  0.100798  0  1.011142  0
H  H74  1  0.97517759  0.96315411  0.55732814  1  0.009691  0  0.099932  0.100801  0  1.011131  0
H  H75  1  0.03684581  0.02482216  0.94267070  1  0.009703  0  0.099941  0.100804  0  1.011139  0
H  H76  1  0.01494251  0.46301303  0.72358627  1  0.135322  0  0.124528  0.108078  0  0.988333  0
H  H77  1  0.53698985  0.98505905  0.77641504  1  0.135084  0  0.124522  0.108087  0  0.98825  0
H  H78  1  0.98506028  0.53698855  0.27641400  1  0.135222  0  0.12453  0.108099  0  0.988225  0
H  H79  1  0.46301158  0.01494130  0.22358534  1  0.135114  0  0.124512  0.108068  0  0.988343  0
H  H80  1  0.09313624  0.74740707  0.66043843  1  0.134169  0  0.113339  0.136422  0  1.019319  0
H  H81  1  0.25259374  0.90686431  0.83956175  1  0.134192  0  0.113327  0.136374  0  1.019337  0
H  H82  1  0.90686656  0.25259390  0.33956262  1  0.134166  0  0.11334  0.136397  0  1.019333  0
H  H83  1  0.74740701  0.09313512  0.16043801  1  0.134166  0  0.113342  0.136405  0  1.019314  0
H  H84  1  0.13660681  0.74533062  0.76873372  1  0.141475  0  0.117513  0.090843  0  1.023433  0
H  H85  1  0.25467096  0.86339393  0.73126664  1  0.141613  0  0.117473  0.090746  0  1.023507  0
H  H86  1  0.86339462  0.25466913  0.23126702  1  0.141604  0  0.117507  0.090826  0  1.023502  0
H  H87  1  0.74533115  0.13660673  0.26873300  1  0.14152  0  0.117519  0.090808  0  1.023534  0
C  C88  1  0.86922202  0.50208983  0.47468808  1  0.54301  0  0.119413  0.203276  0  4.029564  0
C  C89  1  0.49790969  0.13077585  0.02531147  1  0.543046  0  0.119424  0.203327  0  4.029513  0
C  C90  1  0.13077804  0.49790929  0.52531155  1  0.543015  0  0.119414  0.203273  0  4.029523  0
C  C91  1  0.50208968  0.86922113  0.97468868  1  0.543011  0  0.119415  0.203285  0  4.02947  0
C  C92  1  0.98198444  0.59284892  0.56386966  1  0.538427  0  0.121177  0.209852  0  4.015965  0
C  C93  1  0.40715249  0.01801336  0.93613015  1  0.538068  0  0.121211  0.209873  0  4.015901  0
C  C94  1  0.01801631  0.40715051  0.43612967  1  0.538812  0  0.121182  0.209876  0  4.015948  0
C  C95  1  0.59284893  0.98198334  0.06386936  1  0.538819  0  0.12118  0.20982  0  4.016044  0
C  C96  1  0.01274490  0.66845086  0.53985788  1  -0.048338  0  -0.073169  -0.201699  0  3.844085  0
C  C97  1  0.33155031  0.98725318  0.96014248  1  -0.048026  0  -0.073163  -0.201659  0  3.843996  0
C  C98  1  0.98725585  0.33155040  0.46014340  1  -0.04846  0  -0.073193  -0.201738  0  3.844016  0
C  C99  1  0.66844975  0.01274289  0.03985635  1  -0.048682  0  -0.073183  -0.201731  0  3.844087  0
C  C100  1  0.89074550  0.57618461  0.44905398  1  -0.04102  0  -0.079638  -0.212429  0  3.89767  0
C  C101  1  0.42381557  0.10925297  0.05094521  1  -0.040771  0  -0.0796  -0.21243  0  3.897665  0
C  C102  1  0.10925593  0.42381574  0.55094597  1  -0.040866  0  -0.079597  -0.212334  0  3.89768  0
C  C103  1  0.57618381  0.89074401  0.94905408  1  -0.041029  0  -0.079615  -0.212387  0  3.897706  0
C  C104  1  0.96464905  0.66072466  0.48176655  1  -0.048563  0  0.014575  0.126404  0  3.992652  0
C  C105  1  0.33927559  0.03535013  0.01823315  1  -0.04873  0  0.014531  0.126372  0  3.992629  0
C  C106  1  0.03535238  0.33927691  0.51823484  1  -0.048751  0  0.014514  0.126288  0  3.992674  0
C  C107  1  0.66072447  0.96464777  0.98176590  1  -0.048329  0  0.014544  0.126333  0  3.992674  0
C  C108  1  0.80796271  0.00453307  0.38711586  1  -0.03427  0  -0.02056  -0.034051  0  3.973641  0
C  C109  1  0.99546610  0.19203534  0.11288478  1  -0.034331  0  -0.020621  -0.034114  0  3.97376  0
C  C110  1  0.19203257  0.99546449  0.61288429  1  -0.03549  0  -0.02055  -0.034103  0  3.97369  0
C  C111  1  0.00453328  0.80796468  0.88711488  1  -0.034152  0  -0.020634  -0.034257  0  3.973897  0
C  C112  1  0.36526562  0.96301195  0.44864766  1  -0.026542  0  -0.078979  -0.075733  0  3.945491  0
C  C113  1  0.03698751  0.63473711  0.05135271  1  -0.026387  0  -0.078982  -0.075695  0  3.945473  0
C  C114  1  0.63473376  0.03698746  0.55135192  1  -0.02657  0  -0.078984  -0.075698  0  3.945444  0
C  C115  1  0.96301393  0.36526629  0.94864977  1  -0.026402  0  -0.078997  -0.075729  0  3.945479  0
C  C116  1  0.27930869  0.91995632  0.45837754  1  -0.097528  0  -0.091572  -0.132985  0  3.963679  0
C  C117  1  0.08004345  0.72069370  0.04162276  1  -0.097565  0  -0.091572  -0.132995  0  3.963684  0
C  C118  1  0.72069068  0.08004249  0.54162024  1  -0.097637  0  -0.091569  -0.133035  0  3.963705  0
C  C119  1  0.91995798  0.27930909  0.95838008  1  -0.097545  0  -0.091588  -0.133073  0  3.963609  0
C  C120  1  0.04818426  0.89078275  0.40881426  1  0.013548  0  -0.084253  -0.175475  0  3.929177  0
C  C121  1  0.10921994  0.95181529  0.09118488  1  0.013599  0  -0.084208  -0.175316  0  3.929281  0
C  C122  1  0.95181649  0.10921790  0.59118522  1  0.013503  0  -0.08427  -0.175491  0  3.929305  0
C  C123  1  0.89078149  0.04818445  0.90881456  1  0.013482  0  -0.084246  -0.175411  0  3.929237  0
C  C124  1  0.93256821  0.77742311  0.44083937  1  -0.0424  0  -0.091573  -0.188258  0  3.941019  0
C  C125  1  0.22257695  0.06743176  0.05915975  1  -0.042261  0  -0.091583  -0.188263  0  3.940983  0
C  C126  1  0.06743185  0.22257723  0.55916127  1  -0.042149  0  -0.091597  -0.188296  0  3.941013  0
C  C127  1  0.77742242  0.93256704  0.94083847  1  -0.042008  0  -0.091567  -0.188232  0  3.940981  0
C  C128  1  0.76172489  0.90923709  0.37635759  1  -0.001606  0  -0.083793  -0.08531  0  3.975506  0
C  C129  1  0.09076105  0.23827463  0.12364293  1  -0.001586  0  -0.083694  -0.085246  0  3.975357  0
C  C130  1  0.23827449  0.09076233  0.62364329  1  -0.001456  0  -0.083714  -0.085204  0  3.975352  0
C  C131  1  0.90923628  0.76172568  0.87635522  1  -0.00162  0  -0.08367  -0.085068  0  3.975429  0
C  C132  1  0.70347040  0.25333495  0.44279064  1  0.493092  0  0.058897  0.106165  0  3.908845  0
C  C133  1  0.74666616  0.29653212  0.05720937  1  0.493104  0  0.058888  0.106125  0  3.90883  0
C  C134  1  0.29653034  0.74666570  0.55721012  1  0.493033  0  0.058887  0.106161  0  3.908906  0
C  C135  1  0.25333526  0.70346762  0.94279051  1  0.493054  0  0.058883  0.106152  0  3.908906  0
C  C136  1  0.76620311  0.34262731  0.47374187  1  -0.013123  0  -0.072112  -0.147399  0  3.920704  0
C  C137  1  0.65737245  0.23379808  0.02625734  1  -0.013097  0  -0.072092  -0.147395  0  3.920561  0
C  C138  1  0.23379764  0.65737334  0.52625760  1  -0.01311  0  -0.072121  -0.147407  0  3.920642  0
C  C139  1  0.34262829  0.76620074  0.97374277  1  -0.013088  0  -0.072078  -0.147321  0  3.92063  0
C  C140  1  0.76092623  0.37984406  0.37828862  1  -0.007344  0  -0.083563  -0.172529  0  3.95795  0
C  C141  1  0.62015554  0.23907284  0.12171025  1  -0.00736  0  -0.083594  -0.172611  0  3.958063  0
C  C142  1  0.23907383  0.62015566  0.62171066  1  -0.00737  0  -0.083551  -0.172526  0  3.957996  0
C  C143  1  0.37984452  0.76092506  0.87828923  1  -0.007411  0  -0.083589  -0.172574  0  3.958038  0
C  C144  1  0.69906897  0.28881152  0.35050393  1  0.446997  0  0.047775  0.092762  0  3.971871  0
C  C145  1  0.71118782  0.30092888  0.14949566  1  0.446973  0  0.047729  0.092727  0  3.971815  0
C  C146  1  0.30092904  0.71118788  0.64949635  1  0.446986  0  0.047737  0.092757  0  3.971786  0
C  C147  1  0.28881224  0.69906841  0.85050418  1  0.446939  0  0.047752  0.092733  0  3.971736  0
C  C148  1  0.29424284  0.95571468  0.34635081  1  -0.089245  0  -0.087957  -0.090838  0  4.001062  0
C  C149  1  0.04428465  0.70575871  0.15365017  1  -0.088932  0  -0.087953  -0.090843  0  4.001136  0
C  C150  1  0.70575791  0.04428597  0.65364953  1  -0.089305  0  -0.087921  -0.090778  0  4.000976  0
C  C151  1  0.95571542  0.29424467  0.84635257  1  -0.089429  0  -0.088053  -0.090946  0  4.001133  0
C  C152  1  0.99255930  0.74050398  0.45615650  1  0.052088  0  -0.012213  0.063559  0  4.041652  0
C  C153  1  0.25949568  0.00744144  0.04384281  1  0.051947  0  -0.012234  0.063532  0  4.041635  0
C  C154  1  0.00744212  0.25949637  0.54384302  1  0.051817  0  -0.012209  0.063597  0  4.041572  0
C  C155  1  0.74050370  0.99255615  0.95615612  1  0.051435  0  -0.012215  0.063615  0  4.041531  0
C  C156  1  0.90302228  0.04950087  0.41093297  1  -0.040946  0  -0.087932  -0.086764  0  4.002859  0
C  C157  1  0.95049844  0.09697693  0.08906790  1  -0.040936  0  -0.087967  -0.086842  0  4.002922  0
C  C158  1  0.09697573  0.95049975  0.58906702  1  -0.041372  0  -0.088007  -0.086828  0  4.002959  0
C  C159  1  0.04949957  0.90302186  0.91093101  1  -0.041463  0  -0.087957  -0.086804  0  4.00292  0
C  C160  1  0.00068674  0.51807956  0.64615608  1  0.018784  0  -0.079231  -0.160023  0  3.95244  0
C  C161  1  0.48192233  0.99931280  0.85384475  1  0.018876  0  -0.07925  -0.16005  0  3.952272  0
C  C162  1  0.99931469  0.48192140  0.35384394  1  0.019039  0  -0.079215  -0.159989  0  3.952279  0
C  C163  1  0.51807910  0.00068694  0.14615556  1  0.019192  0  -0.079243  -0.160028  0  3.952356  0
C  C164  1  0.46540697  0.02694413  0.38209085  1  1.516282  0  0.193839  0.561643  0  4.207421  0
C  C165  1  0.97305330  0.53459422  0.11790896  1  1.516958  0  0.193913  0.561633  0  4.207418  0
C  C166  1  0.53459309  0.97305499  0.61790835  1  1.516917  0  0.193862  0.561662  0  4.20735  0
C  C167  1  0.02694813  0.46540979  0.88209446  1  1.516983  0  0.193856  0.561641  0  4.207374  0
C  C168  1  0.37333350  0.98111460  0.39251949  1  0.005073  0  -0.019675  -0.032836  0  3.982755  0
C  C169  1  0.01888376  0.62666714  0.10747961  1  0.00441  0  -0.019667  -0.032865  0  3.982748  0
C  C170  1  0.62666656  0.01888573  0.60747899  1  0.004432  0  -0.019651  -0.032826  0  3.982662  0
C  C171  1  0.98111631  0.37333563  0.89252263  1  0.004653  0  -0.019569  -0.032689  0  3.982736  0
C  C172  1  0.19997657  0.89611403  0.41278263  1  -0.009759  0  -0.009477  0.065624  0  4.018753  0
C  C173  1  0.10388620  0.80002511  0.08721842  1  -0.009713  0  -0.009432  0.065699  0  4.018783  0
C  C174  1  0.80002144  0.10388537  0.58721550  1  -0.009728  0  -0.009444  0.065577  0  4.018862  0
C  C175  1  0.89611318  0.19997736  0.91278499  1  -0.010032  0  -0.009429  0.065616  0  4.018794  0
C  C176  1  0.20854395  0.91467808  0.35663765  1  -0.026576  0  -0.097915  -0.147002  0  4.011882  0
C  C177  1  0.08531983  0.79145513  0.14336321  1  -0.027012  0  -0.097934  -0.146955  0  4.011913  0
C  C178  1  0.79145542  0.08532255  0.64336165  1  -0.026582  0  -0.097941  -0.14706  0  4.011949  0
C  C179  1  0.91467818  0.20854671  0.85663909  1  -0.026576  0  -0.097874  -0.146918  0  4.011913  0
C  C180  1  0.10880407  0.85478506  0.42369487  1  0.028399  0  -0.00314  0.088886  0  4.035315  0
C  C181  1  0.14521548  0.89119808  0.07630533  1  0.028339  0  -0.003115  0.088895  0  4.035488  0
C  C182  1  0.89119599  0.14521405  0.57630346  1  0.028326  0  -0.003094  0.089012  0  4.03533  0
C  C183  1  0.85478458  0.10880287  0.92369582  1  0.028574  0  -0.003085  0.088991  0  4.035479  0
C  C184  1  0.96126474  0.85545878  0.41903074  1  -0.071878  0  -0.005054  0.083294  0  4.032316  0
C  C185  1  0.14454142  0.03873662  0.08096892  1  -0.07186  0  -0.005074  0.083134  0  4.032452  0
C  C186  1  0.03873805  0.14454098  0.58096974  1  -0.071914  0  -0.005043  0.083244  0  4.032417  0
C  C187  1  0.85545796  0.96126219  0.91902929  1  -0.071896  0  -0.005038  0.083272  0  4.032417  0
C  C188  1  0.08120929  0.78072740  0.44921151  1  -0.095866  0  -0.087912  -0.178112  0  3.934949  0
C  C189  1  0.21927288  0.91879083  0.05078892  1  -0.09592  0  -0.087914  -0.178092  0  3.93503  0
C  C190  1  0.91879145  0.21927325  0.55078796  1  -0.095851  0  -0.087899  -0.178105  0  3.934905  0
C  C191  1  0.78072581  0.08120828  0.94921140  1  -0.095402  0  -0.08795  -0.178168  0  3.935017  0
C  C192  1  0.90602476  0.90454027  0.40931208  1  0.01106  0  -0.008406  0.066401  0  4.002919  0
C  C193  1  0.09545997  0.09397644  0.09068740  1  0.011042  0  -0.008417  0.06647  0  4.003012  0
C  C194  1  0.09397599  0.09546038  0.59068869  1  0.010987  0  -0.008398  0.066478  0  4.003128  0
C  C195  1  0.90453872  0.90602388  0.90931005  1  0.01077  0  -0.008409  0.066363  0  4.003099  0
C  C196  1  0.81028632  0.85984445  0.38694966  1  -0.079294  0  -0.094143  -0.138957  0  3.992933  0
C  C197  1  0.14015545  0.18971315  0.11304949  1  -0.079307  0  -0.094188  -0.138972  0  3.992875  0
C  C198  1  0.18971238  0.14015709  0.61305053  1  -0.079382  0  -0.094196  -0.139007  0  3.993057  0
C  C199  1  0.85984187  0.81028715  0.88694779  1  -0.079172  0  -0.094192  -0.139041  0  3.993067  0
C  C200  1  0.95115343  0.00053967  0.42246584  1  0.022599  0  -0.092843  -0.133375  0  3.987881  0
C  C201  1  0.99946021  0.04884599  0.07753485  1  0.022607  0  -0.092819  -0.133373  0  3.987836  0
C  C202  1  0.04884595  0.99946158  0.57753526  1  0.022983  0  -0.092833  -0.133378  0  3.987838  0
C  C203  1  0.00053779  0.95115280  0.92246320  1  0.023127  0  -0.092845  -0.13332  0  3.987825  0
C  C204  1  0.02070280  0.59850007  0.62767131  1  0.037044  0  0.016689  0.084509  0  3.960032  0
C  C205  1  0.40150041  0.97929508  0.87232905  1  0.03698  0  0.016697  0.084486  0  3.959967  0
C  C206  1  0.97929794  0.40149875  0.37232837  1  0.036646  0  0.016627  0.084371  0  3.960145  0
C  C207  1  0.59849965  0.02070282  0.12767043  1  0.036593  0  0.016649  0.084404  0  3.960059  0
C  C208  1  0.75875552  0.05922557  0.37232720  1  1.539394  0  0.197783  0.561921  0  4.238485  0
C  C209  1  0.94077341  0.24124297  0.12767201  1  1.538967  0  0.197788  0.561958  0  4.23865  0
C  C210  1  0.24124249  0.94077323  0.62767387  1  1.540648  0  0.197784  0.562005  0  4.23848  0
C  C211  1  0.05922597  0.75875644  0.87232714  1  1.539404  0  0.197768  0.561927  0  4.238629  0
C  C212  1  0.79762904  0.40828563  0.44154369  1  0.034438  0  0.016163  0.085152  0  3.955182  0
C  C213  1  0.59171428  0.20236982  0.05845606  1  0.034322  0  0.016181  0.085229  0  3.95511  0
C  C214  1  0.20237171  0.59171441  0.55845657  1  0.034457  0  0.016172  0.085171  0  3.955127  0
C  C215  1  0.40828510  0.79762533  0.94154300  1  0.034465  0  0.016149  0.085129  0  3.955169  0
C  C216  1  0.03071540  0.52365303  0.70694454  1  0.421436  0  0.048162  0.089828  0  3.93582  0
C  C217  1  0.47634897  0.96928541  0.79305693  1  0.4216  0  0.048158  0.089827  0  3.935611  0
C  C218  1  0.96928603  0.47634793  0.29305677  1  0.421246  0  0.048217  0.089902  0  3.935589  0
C  C219  1  0.52365245  0.03071494  0.20694303  1  0.421384  0  0.048229  0.089922  0  3.935756  0
C  C220  1  0.07337505  0.68235296  0.67195425  1  -0.017146  0  -0.07737  -0.161059  0  3.909951  0
C  C221  1  0.31764788  0.92662451  0.82804545  1  -0.016955  0  -0.077359  -0.160978  0  3.909915  0
C  C222  1  0.92662638  0.31764678  0.32804562  1  -0.017158  0  -0.077325  -0.160913  0  3.909963  0
C  C223  1  0.68235286  0.07337431  0.17195380  1  -0.016844  0  -0.077347  -0.160957  0  3.909897  0
C  C224  1  0.09964386  0.68212301  0.73208176  1  0.372855  0  0.044252  0.084582  0  3.947336  0
C  C225  1  0.31787858  0.90035766  0.76791874  1  0.372255  0  0.044347  0.084776  0  3.947359  0
C  C226  1  0.90035688  0.31787642  0.26791842  1  0.372851  0  0.044272  0.084592  0  3.947449  0
C  C227  1  0.68212285  0.09964269  0.23208121  1  0.372434  0  0.044266  0.084632  0  3.947435  0
N  N228  1  0.91318857  0.51131423  0.53139037  1  -1.209057  0  -0.3041  -0.328362  0  3.310563  0
N  N229  1  0.48868638  0.08680884  0.96860931  1  -1.209086  0  -0.304137  -0.328421  0  3.310545  0
N  N230  1  0.08681149  0.48868489  0.46860883  1  -1.209024  0  -0.304122  -0.328377  0  3.310489  0
N  N231  1  0.51131368  0.91318784  0.03139089  1  -1.209047  0  -0.304099  -0.328334  0  3.310531  0
N  N232  1  0.67146831  0.22610575  0.38175532  1  -1.249466  0  -0.323899  -0.218779  0  3.582967  0
N  N233  1  0.77389456  0.32853118  0.11824379  1  -1.249478  0  -0.323839  -0.218727  0  3.582941  0
N  N234  1  0.32852969  0.77389366  0.61824366  1  -1.249483  0  -0.323846  -0.218721  0  3.582944  0
N  N235  1  0.22610687  0.67146856  0.88175695  1  -1.249387  0  -0.323892  -0.218777  0  3.582982  0
N  N236  1  0.07853126  0.60449191  0.74962760  1  -1.268844  0  -0.329051  -0.239074  0  3.559852  0
N  N237  1  0.39550950  0.92146913  0.75037283  1  -1.268401  0  -0.329096  -0.239199  0  3.559876  0
N  N238  1  0.92147085  0.39550875  0.25037290  1  -1.268795  0  -0.329094  -0.239178  0  3.559886  0
N  N239  1  0.60449193  0.07853061  0.24962748  1  -1.268822  0  -0.329087  -0.239154  0  3.559876  0
O  O240  1  0.46884858  0.02747115  0.32653297  1  -1.163408  0  -0.348055  -0.571573  0  2.249922  0
O  O241  1  0.97252906  0.53115180  0.17346752  1  -1.163422  0  -0.348084  -0.57155  0  2.249931  0
O  O242  1  0.53115080  0.97252766  0.67346611  1  -1.163374  0  -0.348038  -0.571555  0  2.249944  0
O  O243  1  0.02747169  0.46885129  0.82653570  1  -1.163312  0  -0.348029  -0.571543  0  2.249933  0
O  O244  1  0.53699998  0.06341457  0.42550660  1  -1.168855  0  -0.317885  -0.544365  0  2.151695  0
O  O245  1  0.93658414  0.46300160  0.07449347  1  -1.168789  0  -0.31792  -0.544337  0  2.151673  0
O  O246  1  0.46299872  0.93658576  0.57449301  1  -1.168824  0  -0.317942  -0.544407  0  2.151635  0
O  O247  1  0.06341797  0.53700271  0.92550878  1  -1.168961  0  -0.317951  -0.544421  0  2.151688  0
O  O248  1  0.67042099  0.01612001  0.35938706  1  -1.135504  0  -0.33462  -0.539643  0  2.301191  0
O  O249  1  0.98388058  0.32957854  0.14061327  1  -1.135084  0  -0.334624  -0.539652  0  2.301176  0
O  O250  1  0.32957771  0.98387910  0.64061456  1  -1.135481  0  -0.334582  -0.539662  0  2.301093  0
O  O251  1  0.01611879  0.67042149  0.85938682  1  -1.135479  0  -0.334603  -0.539594  0  2.301138  0
O  O252  1  0.80360969  0.14133692  0.37245318  1  -1.207454  0  -0.338364  -0.590947  0  2.173694  0
O  O253  1  0.85866373  0.19639020  0.12754290  1  -1.207455  0  -0.338312  -0.590918  0  2.17387  0
O  O254  1  0.19638969  0.85866372  0.62754828  1  -1.207493  0  -0.338352  -0.590947  0  2.173771  0
O  O255  1  0.14133633  0.80361074  0.87245523  1  -1.207466  0  -0.338332  -0.590928  0  2.173792  0
