# generated using pymatgen
data_ZnH11C11N5O3
_symmetry_space_group_name_H-M   'P 1'
_cell_length_a   9.62377540
_cell_length_b   9.76864064
_cell_length_c   14.43710979
_cell_angle_alpha   99.28884948
_cell_angle_beta   89.99949922
_cell_angle_gamma   89.99989509
_symmetry_Int_Tables_number   1
_chemical_formula_structural   ZnH11C11N5O3
_chemical_formula_sum   'Zn4 H44 C44 N20 O12'
_cell_volume   1339.45264640
_cell_formula_units_Z   4
loop_
 _symmetry_equiv_pos_site_id
 _symmetry_equiv_pos_as_xyz
  1  'x, y, z'
loop_
 _atom_site_type_symbol
 _atom_site_label
 _atom_site_symmetry_multiplicity
 _atom_site_fract_x
 _atom_site_fract_y
 _atom_site_fract_z
 _atom_site_occupancy
 _atom_site_pbe_bader_charge
 _atom_site_pbe_bader_spin_density
 _atom_site_pbe_cm5_charge
 _atom_site_pbe_ddec_charge
 _atom_site_pbe_ddec_spin_density
 _atom_site_pbe_ddec_sum_bond_order
 _atom_site_pbe_magmom
Zn  Zn0  1  0.07212020  0.63454796  0.08801412  1  1.235516  0  0.740078  0.687356  0  2.522644  0
Zn  Zn1  1  0.57211903  0.86546105  0.91198009  1  1.235882  0  0.740105  0.687327  0  2.522697  0
Zn  Zn2  1  0.92788114  0.36545900  0.91198200  1  1.235913  0  0.74009  0.687354  0  2.522626  0
Zn  Zn3  1  0.42787919  0.13454693  0.08801685  1  1.235888  0  0.740094  0.687383  0  2.522669  0
H  H4  1  0.94285055  0.95276928  0.30807649  1  0.099457  0  0.107434  0.116444  0  1.023947  0
H  H5  1  0.44285237  0.54723202  0.69192500  1  0.099602  0  0.107435  0.116456  0  1.023905  0
H  H6  1  0.05715495  0.04722829  0.69192056  1  0.099482  0  0.107434  0.116495  0  1.023936  0
H  H7  1  0.55714689  0.45276124  0.30807708  1  0.099685  0  0.10744  0.116434  0  1.023942  0
H  H8  1  0.21250454  0.69322546  0.44217879  1  0.107244  0  0.104416  0.109965  0  1.004393  0
H  H9  1  0.71250704  0.80676448  0.55781021  1  0.107427  0  0.104398  0.109965  0  1.004485  0
H  H10  1  0.78749368  0.30676688  0.55781902  1  0.107343  0  0.104406  0.109976  0  1.004426  0
H  H11  1  0.28749326  0.19322778  0.44219037  1  0.107302  0  0.104419  0.109954  0  1.004476  0
H  H12  1  0.84248001  0.86670501  0.05777096  1  0.22469  0  0.144029  0.130828  0  1.005777  0
H  H13  1  0.34247841  0.63330523  0.94222113  1  0.224865  0  0.144025  0.130896  0  1.005589  0
H  H14  1  0.15752445  0.13330405  0.94222473  1  0.224771  0  0.144017  0.13086  0  1.005687  0
H  H15  1  0.65752605  0.36669949  0.05778096  1  0.224792  0  0.144049  0.130953  0  1.005705  0
H  H16  1  0.68226779  0.55588440  0.84752414  1  0.162879  0  0.146541  0.117469  0  0.985914  0
H  H17  1  0.18228311  0.94411548  0.15248563  1  0.162872  0  0.146542  0.117444  0  0.985902  0
H  H18  1  0.31771797  0.44412120  0.15248359  1  0.162824  0  0.146558  0.117443  0  0.985848  0
H  H19  1  0.81772031  0.05588925  0.84751576  1  0.162842  0  0.146532  0.117438  0  0.985923  0
H  H20  1  0.17191017  0.84195250  0.59752768  1  0.103347  0  0.101073  0.102318  0  1.042704  0
H  H21  1  0.67190978  0.65803443  0.40246257  1  0.103497  0  0.100998  0.102266  0  1.042738  0
H  H22  1  0.82809117  0.15804409  0.40246718  1  0.103547  0  0.101027  0.102276  0  1.0427  0
H  H23  1  0.32809364  0.34195576  0.59753775  1  0.103445  0  0.101041  0.102365  0  1.042774  0
H  H24  1  0.07539431  0.44291798  0.28839940  1  0.080119  0  0.098383  0.083888  0  1.015001  0
H  H25  1  0.57539321  0.05707862  0.71160385  1  0.080085  0  0.098348  0.083803  0  1.015041  0
H  H26  1  0.92460288  0.55708683  0.71159923  1  0.080099  0  0.098333  0.083809  0  1.015015  0
H  H27  1  0.42461021  0.94292078  0.28840244  1  0.080193  0  0.098354  0.083776  0  1.015029  0
H  H28  1  0.03488798  0.32566855  0.36740030  1  0.016119  0  0.093964  0.063445  0  0.994385  0
H  H29  1  0.53488976  0.17432716  0.63260238  1  0.016216  0  0.093941  0.063423  0  0.994319  0
H  H30  1  0.96511336  0.67433826  0.63260135  1  0.016107  0  0.093969  0.063444  0  0.994387  0
H  H31  1  0.46511678  0.82566918  0.36740146  1  0.01615  0  0.093939  0.063405  0  0.994362  0
H  H32  1  0.80848763  0.42716897  0.36326437  1  0.063622  0  0.099721  0.075306  0  0.998134  0
H  H33  1  0.30849011  0.07283003  0.63673641  1  0.063644  0  0.099742  0.075346  0  0.998119  0
H  H34  1  0.19151163  0.57283365  0.63673815  1  0.063681  0  0.099749  0.075366  0  0.998052  0
H  H35  1  0.69151746  0.92716230  0.36326209  1  0.063679  0  0.099765  0.075381  0  0.998136  0
H  H36  1  0.83260777  0.46793920  0.24818619  1  0.063277  0  0.09554  0.073345  0  1.0022  0
H  H37  1  0.33260157  0.03206074  0.75181526  1  0.063197  0  0.095546  0.073358  0  1.002232  0
H  H38  1  0.16739045  0.53206238  0.75181621  1  0.063291  0  0.095526  0.073322  0  1.002161  0
H  H39  1  0.66740081  0.96793464  0.24818568  1  0.063297  0  0.09556  0.073408  0  1.002191  0
H  H40  1  0.69370626  0.24399082  0.23278634  1  0.499833  0  0.29794  0.275698  0  1.00894  0
H  H41  1  0.19370046  0.25601077  0.76720989  1  0.499795  0  0.297978  0.275717  0  1.008976  0
H  H42  1  0.30629300  0.75601184  0.76721480  1  0.499842  0  0.297948  0.275718  0  1.008929  0
H  H43  1  0.80629672  0.74398272  0.23278391  1  0.499818  0  0.297913  0.275675  0  1.008998  0
H  H44  1  0.11142451  0.18097989  0.22151821  1  0.477921  0  0.298417  0.278617  0  1.002552  0
H  H45  1  0.61141893  0.31901659  0.77848481  1  0.477985  0  0.298451  0.278657  0  1.002486  0
H  H46  1  0.88857371  0.81902276  0.77848293  1  0.477892  0  0.298399  0.278581  0  1.002586  0
H  H47  1  0.38857618  0.68098494  0.22151966  1  0.47796  0  0.298448  0.278651  0  1.002498  0
C  C48  1  0.09990737  0.72186871  0.27537652  1  1.506892  0  0.20773  0.56533  0  4.196129  0
C  C49  1  0.59991192  0.77812982  0.72461694  1  1.506563  0  0.207584  0.565139  0  4.196441  0
C  C50  1  0.90009397  0.27812890  0.72461916  1  1.505922  0  0.2076  0.56511  0  4.196343  0
C  C51  1  0.40008631  0.22186663  0.27538275  1  1.507159  0  0.207573  0.565109  0  4.196503  0
C  C52  1  0.07637642  0.81345035  0.36705710  1  -0.030068  0  -0.021127  -0.034941  0  3.997273  0
C  C53  1  0.57637922  0.68654506  0.63293889  1  -0.029302  0  -0.021116  -0.034904  0  3.997283  0
C  C54  1  0.92362596  0.18654510  0.63294108  1  -0.029312  0  -0.021101  -0.034789  0  3.997248  0
C  C55  1  0.42362005  0.31344617  0.36706155  1  -0.030073  0  -0.021082  -0.034811  0  3.997329  0
C  C56  1  0.99098096  0.92865827  0.37193015  1  -0.040626  0  -0.077273  -0.132084  0  3.906028  0
C  C57  1  0.49098252  0.57133983  0.62806859  1  -0.040743  0  -0.077272  -0.132061  0  3.90594  0
C  C58  1  0.00902246  0.07133824  0.62806747  1  -0.040607  0  -0.077368  -0.132315  0  3.906138  0
C  C59  1  0.50901674  0.42865242  0.37193267  1  -0.040696  0  -0.077273  -0.132105  0  3.906112  0
C  C60  1  0.96710811  0.01639340  0.45847568  1  0.000159  0  -0.004929  0.071075  0  3.998552  0
C  C61  1  0.46710792  0.48360198  0.54152374  1  -0.053125  0  -0.00497  0.070907  0  3.998663  0
C  C62  1  0.03289635  0.98360004  0.54152018  1  -0.053807  0  -0.004837  0.071081  0  3.998621  0
C  C63  1  0.53289134  0.51638924  0.45847740  1  8.1e-05  0  -0.004962  0.071084  0  3.998674  0
C  C64  1  0.14387438  0.78312040  0.44883383  1  -0.066477  0  -0.08705  -0.100708  0  3.991904  0
C  C65  1  0.64387610  0.71687384  0.55115886  1  -0.066671  0  -0.087008  -0.100683  0  3.991933  0
C  C66  1  0.85612696  0.21687612  0.55116380  1  -0.066475  0  -0.086976  -0.100662  0  3.991858  0
C  C67  1  0.35612420  0.28311844  0.44884102  1  -0.066522  0  -0.086993  -0.100586  0  3.991952  0
C  C68  1  0.82672983  0.76910670  0.01028263  1  0.982831  0  0.164436  0.171014  0  3.881438  0
C  C69  1  0.32673055  0.73090349  0.98971300  1  0.982806  0  0.164491  0.170936  0  3.881288  0
C  C70  1  0.17327047  0.23090331  0.98971594  1  0.982934  0  0.164483  0.170969  0  3.881406  0
C  C71  1  0.67327287  0.26910230  0.01028783  1  0.983346  0  0.164471  0.170935  0  3.881572  0
C  C72  1  0.74551490  0.61130544  0.90346126  1  1.039529  0  0.163298  0.169377  0  3.932624  0
C  C73  1  0.24552274  0.88869750  0.09654297  1  1.039627  0  0.163337  0.169514  0  3.932595  0
C  C74  1  0.25447709  0.38870025  0.09654302  1  1.039644  0  0.163306  0.169533  0  3.932525  0
C  C75  1  0.75447860  0.11130831  0.90345717  1  1.039595  0  0.163334  0.169449  0  3.932624  0
C  C76  1  0.12165585  0.86571626  0.53419091  1  -0.032993  0  -0.08998  -0.133944  0  3.98489  0
C  C77  1  0.62165260  0.63427382  0.46580417  1  -0.033809  0  -0.089921  -0.133939  0  3.984843  0
C  C78  1  0.87834756  0.13427921  0.46580658  1  -0.033896  0  -0.089992  -0.133983  0  3.984757  0
C  C79  1  0.37834666  0.36571737  0.53419766  1  -0.033777  0  -0.089973  -0.134083  0  3.98499  0
C  C80  1  0.89665597  0.17206910  0.20462422  1  1.791053  0  0.30643  0.610831  0  4.251546  0
C  C81  1  0.39665278  0.32792552  0.79537344  1  1.791104  0  0.306432  0.610893  0  4.251663  0
C  C82  1  0.10334226  0.82792946  0.79537434  1  1.790951  0  0.306396  0.610774  0  4.25167  0
C  C83  1  0.60334128  0.67207607  0.20462896  1  1.791023  0  0.306364  0.610812  0  4.251594  0
C  C84  1  0.00842892  0.35607461  0.29915223  1  0.330425  0  -0.064394  -0.023218  0  3.895018  0
C  C85  1  0.50842676  0.14392222  0.70085074  1  0.330446  0  -0.064302  -0.023008  0  3.894763  0
C  C86  1  0.99157034  0.64392913  0.70084766  1  0.33083  0  -0.064333  -0.023097  0  3.894802  0
C  C87  1  0.49157770  0.85607414  0.29915241  1  0.330431  0  -0.064306  -0.022977  0  3.894773  0
C  C88  1  0.85274725  0.38970036  0.29373893  1  0.258078  0  -0.062018  -0.022678  0  3.895779  0
C  C89  1  0.35274565  0.11029744  0.70626215  1  0.258091  0  -0.062068  -0.022804  0  3.895815  0
C  C90  1  0.14724993  0.61030332  0.70626303  1  0.257789  0  -0.062076  -0.022765  0  3.895687  0
C  C91  1  0.64725673  0.88969589  0.29373786  1  0.257922  0  -0.062112  -0.022937  0  3.895982  0
N  N92  1  0.90776468  0.65820478  0.00768459  1  -0.786816  0  -0.256721  -0.18696  0  3.537248  0
N  N93  1  0.40776411  0.84180411  0.99231041  1  -0.786994  0  -0.256798  -0.186961  0  3.537151  0
N  N94  1  0.09223666  0.34180320  0.99231235  1  -0.786958  0  -0.256752  -0.186935  0  3.537126  0
N  N95  1  0.59223723  0.15820277  0.00768847  1  -0.78705  0  -0.256814  -0.187094  0  3.537318  0
N  N96  1  0.85629141  0.55766239  0.93915077  1  -0.813354  0  -0.258874  -0.19186  0  3.571603  0
N  N97  1  0.35629650  0.94234234  0.06085026  1  -0.813489  0  -0.258903  -0.191947  0  3.571594  0
N  N98  1  0.14370370  0.44234340  0.06085005  1  -0.813553  0  -0.258917  -0.191954  0  3.571621  0
N  N99  1  0.64370484  0.05766556  0.93914944  1  -0.813261  0  -0.258881  -0.191793  0  3.571579  0
N  N100  1  0.72380680  0.74302490  0.94596483  1  -1.281355  0  -0.358209  -0.314853  0  3.575598  0
N  N101  1  0.22381129  0.75698342  0.05403603  1  -1.280937  0  -0.358224  -0.314906  0  3.57572  0
N  N102  1  0.27619039  0.25698399  0.05403707  1  -1.281349  0  -0.358217  -0.31492  0  3.575679  0
N  N103  1  0.77619213  0.24302339  0.94596562  1  -1.281933  0  -0.358227  -0.314907  0  3.575782  0
N  N104  1  0.79567545  0.25476342  0.25278587  1  -1.208426  0  -0.444502  -0.434698  0  3.475188  0
N  N105  1  0.29567306  0.24523669  0.74721374  1  -1.208485  0  -0.444513  -0.43471  0  3.475372  0
N  N106  1  0.20432277  0.74524022  0.74721747  1  -1.20844  0  -0.444446  -0.434658  0  3.475369  0
N  N107  1  0.70432517  0.75475465  0.25278256  1  -1.208488  0  -0.44437  -0.434528  0  3.475316  0
N  N108  1  0.02262977  0.23840322  0.22308677  1  -1.180006  0  -0.451471  -0.435151  0  3.450961  0
N  N109  1  0.52262432  0.26159668  0.77691649  1  -1.180028  0  -0.451525  -0.435245  0  3.451014  0
N  N110  1  0.97736949  0.76160046  0.77691518  1  -1.180045  0  -0.451407  -0.435065  0  3.45099  0
N  N111  1  0.47737182  0.73840175  0.22308691  1  -1.180058  0  -0.451482  -0.435154  0  3.451022  0
O  O112  1  0.00675204  0.72924757  0.21056477  1  -1.171496  0  -0.32766  -0.541085  0  2.35574  0
O  O113  1  0.50675991  0.77075956  0.78943028  1  -1.171681  0  -0.327642  -0.540993  0  2.355674  0
O  O114  1  0.99325034  0.27075937  0.78943204  1  -1.171185  0  -0.327626  -0.540981  0  2.355715  0
O  O115  1  0.49323727  0.22924420  0.21056891  1  -1.171724  0  -0.327634  -0.541022  0  2.355755  0
O  O116  1  0.20382517  0.64357026  0.26234061  1  -1.188097  0  -0.313297  -0.555843  0  2.18242  0
O  O117  1  0.70383251  0.85642386  0.73764894  1  -1.188161  0  -0.313157  -0.555704  0  2.182563  0
O  O118  1  0.79617305  0.35642320  0.73765456  1  -1.188064  0  -0.313206  -0.555736  0  2.18243  0
O  O119  1  0.29616883  0.14356950  0.26234969  1  -1.188244  0  -0.313223  -0.555764  0  2.182585  0
O  O120  1  0.87805040  0.05722570  0.15428782  1  -1.216391  0  -0.35193  -0.594224  0  2.098737  0
O  O121  1  0.37804323  0.44277726  0.84571165  1  -1.216431  0  -0.351932  -0.594291  0  2.098579  0
O  O122  1  0.12194782  0.94278007  0.84571369  1  -1.216377  0  -0.351972  -0.594273  0  2.098453  0
O  O123  1  0.62194668  0.55721297  0.15428729  1  -1.21631  0  -0.351977  -0.594381  0  2.098388  0
