# generated using pymatgen
data_ZnH15C26N5O4
_symmetry_space_group_name_H-M   'P 1'
_cell_length_a   8.28140777
_cell_length_b   10.05538869
_cell_length_c   13.34353487
_cell_angle_alpha   92.12077351
_cell_angle_beta   104.20611673
_cell_angle_gamma   102.90110196
_symmetry_Int_Tables_number   1
_chemical_formula_structural   ZnH15C26N5O4
_chemical_formula_sum   'Zn2 H30 C52 N10 O8'
_cell_volume   1045.01562859
_cell_formula_units_Z   2
loop_
 _symmetry_equiv_pos_site_id
 _symmetry_equiv_pos_as_xyz
  1  'x, y, z'
loop_
 _atom_site_type_symbol
 _atom_site_label
 _atom_site_symmetry_multiplicity
 _atom_site_fract_x
 _atom_site_fract_y
 _atom_site_fract_z
 _atom_site_occupancy
 _atom_site_hle17_bader_spin_density
 _atom_site_hle17_ddec_charge
 _atom_site_hle17_ddec_spin_density
 _atom_site_hle17_ddec_sum_bond_order
 _atom_site_hle17_magmom
 _atom_site_hse06_10hf_bader_spin_density
 _atom_site_hse06_10hf_ddec_charge
 _atom_site_hse06_10hf_ddec_spin_density
 _atom_site_hse06_10hf_ddec_sum_bond_order
 _atom_site_hse06_10hf_magmom
 _atom_site_hse06_bader_spin_density
 _atom_site_hse06_ddec_charge
 _atom_site_hse06_ddec_spin_density
 _atom_site_hse06_ddec_sum_bond_order
 _atom_site_hse06_magmom
 _atom_site_pbe_bader_spin_density
 _atom_site_pbe_cm5_charge
 _atom_site_pbe_ddec_charge
 _atom_site_pbe_ddec_spin_density
 _atom_site_pbe_ddec_sum_bond_order
 _atom_site_pbe_magmom
Zn  Zn0  1  0.94959265  0.41253439  0.72331406  1  0  1.004297  0  1.876225  0  0  0.80781  0  2.349383  0  0  0.856191  0  2.294769  0  0  0.706529  0.774186  0  2.386756  0
Zn  Zn1  1  0.05040410  0.58746644  0.27668277  1  0  1.004306  0  1.876277  0  0  0.807844  0  2.349433  0  0  0.856205  0  2.294859  0  0  0.706557  0.774221  0  2.386816  0
H  H2  1  0.85867090  0.19572469  0.86885246  1  0  0.07836  0  0.949827  0  0  0.085706  0  1.018025  0  0  0.088959  0  1.014388  0  0  0.113064  0.083915  0  1.019619  0
H  H3  1  0.14133021  0.80427410  0.13114873  1  0  0.078413  0  0.949748  0  0  0.085721  0  1.017994  0  0  0.088971  0  1.014358  0  0  0.113073  0.08393  0  1.01959  0
H  H4  1  0.73910992  0.18136306  0.02738501  1  0  0.08226  0  0.964577  0  0  0.092528  0  1.028481  0  0  0.095578  0  1.027824  0  0  0.096595  0.091033  0  1.027778  0
H  H5  1  0.26089337  0.81863471  0.97261723  1  0  0.082219  0  0.96464  0  0  0.092469  0  1.028571  0  0  0.09552  0  1.027912  0  0  0.096555  0.090973  0  1.027862  0
H  H6  1  0.66997737  0.39060417  0.09899357  1  0  0.134672  0  0.966495  0  0  0.140978  0  1.028148  0  0  0.146262  0  1.023199  0  0  0.114531  0.137155  0  1.03175  0
H  H7  1  0.33002343  0.60939360  0.90100754  1  0  0.134686  0  0.966503  0  0  0.140992  0  1.028151  0  0  0.146276  0  1.023205  0  0  0.114534  0.137171  0  1.031741  0
H  H8  1  0.84039860  0.97327408  0.84319063  1  0  0.091319  0  0.949329  0  0  0.103877  0  1.010303  0  0  0.10696  0  1.007654  0  0  0.104551  0.102335  0  1.011319  0
H  H9  1  0.15960375  0.02672471  0.15681149  1  0  0.091315  0  0.949304  0  0  0.103892  0  1.010262  0  0  0.106976  0  1.007611  0  0  0.104549  0.102349  0  1.011279  0
H  H10  1  0.94480437  0.94558012  0.68680953  1  0  0.113789  0  0.962957  0  0  0.124228  0  1.01862  0  0  0.126961  0  1.018393  0  0  0.111539  0.122151  0  1.019023  0
H  H11  1  0.05519673  0.05441867  0.31319240  1  0  0.113773  0  0.962967  0  0  0.124227  0  1.018616  0  0  0.126959  0  1.018388  0  0  0.111527  0.122149  0  1.019026  0
H  H12  1  0.99674075  0.71817431  0.63638160  1  0  0.102228  0  0.921412  0  0  0.10969  0  0.983236  0  0  0.112463  0  0.981237  0  0  0.124494  0.107397  0  0.98507  0
H  H13  1  0.00325508  0.28182344  0.36361724  1  0  0.102247  0  0.921372  0  0  0.109708  0  0.983205  0  0  0.112468  0  0.981221  0  0  0.124482  0.107425  0  0.98503  0
H  H14  1  0.51898903  0.99293263  0.10091964  1  0  0.069559  0  0.980169  0  0  0.076164  0  1.05482  0  0  0.079593  0  1.052807  0  0  0.086585  0.073885  0  1.055833  0
H  H15  1  0.48101680  0.00706105  0.89907988  1  0  0.069546  0  0.980267  0  0  0.076135  0  1.054918  0  0  0.079566  0  1.052907  0  0  0.086585  0.07385  0  1.055943  0
H  H16  1  0.48884561  0.14637105  0.24207502  1  0  0.095271  0  0.979443  0  0  0.103312  0  1.044155  0  0  0.106061  0  1.043335  0  0  0.097695  0.101537  0  1.04436  0
H  H17  1  0.51115863  0.85362980  0.75792071  1  0  0.095309  0  0.979357  0  0  0.10334  0  1.044076  0  0  0.106093  0  1.043261  0  0  0.097699  0.101559  0  1.044285  0
H  H18  1  0.62799082  0.12142114  0.42677019  1  0  0.091806  0  0.966559  0  0  0.102389  0  1.024494  0  0  0.104589  0  1.025092  0  0  0.100517  0.100922  0  1.024055  0
H  H19  1  0.37201181  0.87858687  0.57322699  1  0  0.091764  0  0.966708  0  0  0.102369  0  1.024607  0  0  0.10457  0  1.025203  0  0  0.100524  0.100895  0  1.024169  0
H  H20  1  0.81740112  0.96003494  0.46607680  1  0  0.102004  0  0.947194  0  0  0.1122  0  1.006785  0  0  0.115571  0  1.004841  0  0  0.10657  0.109807  0  1.008235  0
H  H21  1  0.18260180  0.03997410  0.53392495  1  0  0.101981  0  0.947224  0  0  0.112166  0  1.006823  0  0  0.115538  0  1.004883  0  0  0.106544  0.109772  0  1.008275  0
H  H22  1  0.91087056  0.42759469  0.50764849  1  0  0.09296  0  0.977152  0  0  0.096337  0  1.050646  0  0  0.100284  0  1.0454  0  0  0.119538  0.093328  0  1.054659  0
H  H23  1  0.08912556  0.57240820  0.49234680  1  0  0.09304  0  0.976999  0  0  0.096341  0  1.050583  0  0  0.100283  0  1.04535  0  0  0.119575  0.093334  0  1.05459  0
H  H24  1  0.37954814  0.33859146  0.34289745  1  0  0.09006  0  0.989292  0  0  0.096949  0  1.058592  0  0  0.099248  0  1.057903  0  0  0.101337  0.095244  0  1.059156  0
H  H25  1  0.62044828  0.66141244  0.65710166  1  0  0.090039  0  0.989399  0  0  0.096986  0  1.058633  0  0  0.099285  0  1.057943  0  0  0.101324  0.095282  0  1.0592  0
H  H26  1  0.30626906  0.28217332  0.51380591  1  0  0.116766  0  0.983531  0  0  0.121844  0  1.050119  0  0  0.125697  0  1.048941  0  0  0.105301  0.119027  0  1.051092  0
H  H27  1  0.69372862  0.71782649  0.48619327  1  0  0.116836  0  0.983543  0  0  0.121865  0  1.050185  0  0  0.125718  0  1.049007  0  0  0.105293  0.119044  0  1.051168  0
H  H28  1  0.54851516  0.30930409  0.67298343  1  0  0.082457  0  0.927908  0  0  0.091222  0  0.989052  0  0  0.093377  0  0.988084  0  0  0.116638  0.089718  0  0.989667  0
H  H29  1  0.45148815  0.69069368  0.32701431  1  0  0.082423  0  0.928049  0  0  0.0912  0  0.989168  0  0  0.093356  0  0.988198  0  0  0.116653  0.089696  0  0.989781  0
H  H30  1  0.78300422  0.96536213  0.02555743  1  0  0.291332  0  0.887746  0  0  0.282675  0  0.93964  0  0  0.288696  0  0.935893  0  0  0.324562  0.279404  0  0.940998  0
H  H31  1  0.21699503  0.03463461  0.97444415  1  0  0.291328  0  0.88774  0  0  0.282681  0  0.939627  0  0  0.288701  0  0.935881  0  0  0.324568  0.279412  0  0.940982  0
C  C32  1  0.82423489  0.28264105  0.90237821  1  0  0.13228  0  3.713905  0  0  0.094724  0  3.976229  0  0  0.103079  0  3.993379  0  0  0.047694  0.089173  0  3.964923  0
C  C33  1  0.17576343  0.71735671  0.09762177  1  0  0.132275  0  3.713739  0  0  0.094738  0  3.976076  0  0  0.103093  0  3.993222  0  0  0.047705  0.089185  0  3.964775  0
C  C34  1  0.75806232  0.27609458  0.98977751  1  0  -0.125182  0  3.756315  0  0  -0.139058  0  4.020263  0  0  -0.146893  0  4.042399  0  0  -0.089656  -0.134777  0  4.006129  0
C  C35  1  0.24193849  0.72390319  0.01022285  1  0  -0.125079  0  3.756381  0  0  -0.138938  0  4.020311  0  0  -0.146773  0  4.042447  0  0  -0.089599  -0.134659  0  4.006164  0
C  C36  1  0.71932174  0.39083713  0.02965089  1  0  -0.005424  0  3.597393  0  0  -0.033406  0  3.848141  0  0  -0.028713  0  3.86116  0  0  -0.053421  -0.037038  0  3.840692  0
C  C37  1  0.28067938  0.60916167  0.97034955  1  0  -0.005482  0  3.597443  0  0  -0.033474  0  3.848162  0  0  -0.028784  0  3.861185  0  0  -0.053431  -0.037099  0  3.840699  0
C  C38  1  0.74897134  0.51235093  0.98063903  1  0  0.000101  0  3.72744  0  0  0.010318  0  3.96209  0  0  0.007573  0  3.983914  0  0  0.014255  0.011554  0  3.947832  0
C  C39  1  0.25102821  0.48764683  0.01936264  1  0  3.9e-05  0  3.727468  0  0  0.010325  0  3.962032  0  0  0.007582  0  3.983856  0  0  0.014221  0.011555  0  3.947773  0
C  C40  1  0.72782895  0.64076440  0.01876228  1  0  0.116493  0  3.794074  0  0  0.111021  0  4.052556  0  0  0.113125  0  4.075199  0  0  0.100358  0.109429  0  4.037315  0
C  C41  1  0.27217246  0.35923541  0.98123973  1  0  0.116475  0  3.793974  0  0  0.110981  0  4.052463  0  0  0.113084  0  4.075106  0  0  0.100341  0.109393  0  4.037221  0
C  C42  1  0.76887060  0.75941782  0.96898535  1  0  0.104164  0  3.795636  0  0  0.08664  0  4.051985  0  0  0.088694  0  4.074939  0  0  0.088709  0.084915  0  4.037126  0
C  C43  1  0.23112834  0.24057789  0.03101616  1  0  0.104238  0  3.795775  0  0  0.086688  0  4.052141  0  0  0.088744  0  4.075093  0  0  0.088786  0.084958  0  4.037293  0
C  C44  1  0.82646946  0.76121987  0.87708828  1  0  -0.030217  0  3.824801  0  0  -0.018663  0  4.065827  0  0  -0.020161  0  4.087358  0  0  -0.000906  -0.018138  0  4.052028  0
C  C45  1  0.17353011  0.23877789  0.12291114  1  0  -0.030232  0  3.825089  0  0  -0.018625  0  4.066057  0  0  -0.020124  0  4.087589  0  0  -0.000904  -0.018103  0  4.052268  0
C  C46  1  0.86209755  0.87483340  0.82033762  1  0  -0.064369  0  3.72075  0  0  -0.092141  0  3.979306  0  0  -0.090048  0  3.995349  0  0  -0.077157  -0.094387  0  3.969055  0
C  C47  1  0.13790325  0.12516437  0.17966498  1  0  -0.064367  0  3.720831  0  0  -0.092166  0  3.979383  0  0  -0.090075  0  3.995429  0  0  -0.077156  -0.094402  0  3.969125  0
C  C48  1  0.92072644  0.86007965  0.73290741  1  0  -0.104888  0  3.721228  0  0  -0.119064  0  3.97714  0  0  -0.12419  0  3.997518  0  0  -0.079308  -0.115589  0  3.964114  0
C  C49  1  0.07927373  0.13992016  0.26709440  1  0  -0.104858  0  3.721444  0  0  -0.119043  0  3.977366  0  0  -0.124167  0  3.997738  0  0  -0.079302  -0.115571  0  3.964349  0
C  C50  1  0.94822855  0.73292321  0.70390512  1  0  0.151696  0  3.648551  0  0  0.119081  0  3.905152  0  0  0.126497  0  3.920387  0  0  0.060803  0.11404  0  3.895023  0
C  C51  1  0.05176821  0.26707352  0.29609459  1  0  0.151662  0  3.648416  0  0  0.119034  0  3.905033  0  0  0.12646  0  3.920266  0  0  0.060824  0.113985  0  3.894918  0
C  C52  1  0.85170796  0.63459027  0.83973923  1  0  0.131799  0  3.766689  0  0  0.122988  0  4.009889  0  0  0.127042  0  4.030774  0  0  0.119662  0.120244  0  3.9955  0
C  C53  1  0.14828911  0.36540748  0.16026055  1  0  0.131777  0  3.766836  0  0  0.122955  0  4.010018  0  0  0.127012  0  4.030899  0  0  0.119636  0.120206  0  3.995636  0
C  C54  1  0.81536385  0.51138467  0.89214936  1  0  0.140766  0  3.72085  0  0  0.130059  0  3.960488  0  0  0.135013  0  3.982137  0  0  0.122436  0.127266  0  3.945398  0
C  C55  1  0.18463322  0.48861309  0.10785043  1  0  0.140801  0  3.720935  0  0  0.13007  0  3.960577  0  0  0.135022  0  3.982221  0  0  0.122449  0.12728  0  3.945489  0
C  C56  1  0.70405882  0.80580652  0.11701071  1  0  0.349053  0  3.750649  0  0  0.318894  0  4.031066  0  0  0.332739  0  4.044433  0  0  0.225242  0.309495  0  4.022071  0
C  C57  1  0.29594791  0.19419023  0.88299278  1  0  0.349192  0  3.750319  0  0  0.318902  0  4.030967  0  0  0.332741  0  4.044339  0  0  0.225212  0.309497  0  4.021977  0
C  C58  1  0.68730672  0.89143963  0.20351946  1  0  -0.022962  0  3.781784  0  0  -0.012706  0  4.018013  0  0  -0.013331  0  4.040655  0  0  -0.007224  -0.012033  0  4.002505  0
C  C59  1  0.31269719  0.10856019  0.79648368  1  0  -0.023099  0  3.78172  0  0  -0.012819  0  4.018  0  0  -0.01344  0  4.040639  0  0  -0.007221  -0.012141  0  4.002483  0
C  C60  1  0.58486351  0.98633046  0.18158481  1  0  -0.124669  0  3.786563  0  0  -0.144861  0  4.03986  0  0  -0.14855  0  4.061771  0  0  -0.102646  -0.142155  0  4.024477  0
C  C61  1  0.41514322  0.01366629  0.81841643  1  0  -0.124623  0  3.786644  0  0  -0.144778  0  4.039901  0  0  -0.148472  0  4.06181  0  0  -0.102621  -0.142073  0  4.024517  0
C  C62  1  0.56381852  0.07006877  0.26071264  1  0  -0.061163  0  3.765459  0  0  -0.074718  0  4.011624  0  0  -0.075591  0  4.032779  0  0  -0.093044  -0.073749  0  3.996787  0
C  C63  1  0.43618571  0.92993208  0.73928533  1  0  -0.061148  0  3.765441  0  0  -0.074688  0  4.011583  0  0  -0.075571  0  4.032748  0  0  -0.093055  -0.073714  0  3.996729  0
C  C64  1  0.64393295  0.05778739  0.36383463  1  0  -0.05686  0  3.745954  0  0  -0.069095  0  3.991922  0  0  -0.071113  0  4.012806  0  0  -0.08673  -0.068056  0  3.977904  0
C  C65  1  0.35607219  0.94221654  0.63616507  1  0  -0.056934  0  3.746129  0  0  -0.069198  0  3.992119  0  0  -0.071217  0  4.013003  0  0  -0.08679  -0.068152  0  3.978084  0
C  C66  1  0.74857298  0.96624220  0.38626100  1  0  -0.069379  0  3.743532  0  0  -0.091914  0  3.99225  0  0  -0.092402  0  4.012038  0  0  -0.078482  -0.091446  0  3.979025  0
C  C67  1  0.25143276  0.03376377  0.61374109  1  0  -0.069202  0  3.743366  0  0  -0.091713  0  3.99206  0  0  -0.092205  0  4.011851  0  0  -0.078378  -0.091252  0  3.978839  0
C  C68  1  0.77440880  0.88339597  0.30773172  1  0  -0.083395  0  3.687725  0  0  -0.066879  0  3.91878  0  0  -0.073203  0  3.939203  0  0  -0.009895  -0.062813  0  3.904757  0
C  C69  1  0.22559477  0.11660692  0.69227145  1  0  -0.083387  0  3.687525  0  0  -0.066874  0  3.918603  0  0  -0.073197  0  3.939025  0  0  -0.009929  -0.062815  0  3.904591  0
C  C70  1  0.90498672  0.79785533  0.34064448  1  0  0.642123  0  3.912205  0  0  0.5944  0  4.208229  0  0  0.628701  0  4.199734  0  0  0.199707  0.571303  0  4.212541  0
C  C71  1  0.09501559  0.20214755  0.65936075  1  0  0.641968  0  3.912286  0  0  0.594229  0  4.208344  0  0  0.628527  0  4.199854  0  0  0.199613  0.571127  0  4.212672  0
C  C72  1  0.77548197  0.39959326  0.50520379  1  0  0.131569  0  3.65075  0  0  0.088346  0  3.900468  0  0  0.097608  0  3.914937  0  0  0.054213  0.082478  0  3.890725  0
C  C73  1  0.22451540  0.60040962  0.49479168  1  0  0.131655  0  3.65031  0  0  0.088468  0  3.900162  0  0  0.097729  0  3.91463  0  0  0.054227  0.08261  0  3.890403  0
C  C74  1  0.64942537  0.39044823  0.41271480  1  0  -0.110483  0  3.740164  0  0  -0.081086  0  3.969823  0  0  -0.093252  0  3.992577  0  0  -0.010976  -0.073662  0  3.95486  0
C  C75  1  0.35056981  0.60955568  0.58728112  1  0  -0.110688  0  3.740149  0  0  -0.081312  0  3.969908  0  0  -0.093484  0  3.99266  0  0  -0.011108  -0.07389  0  3.954946  0
C  C76  1  0.47831943  0.34648782  0.41499670  1  0  -0.019618  0  3.714843  0  0  -0.048321  0  3.95987  0  0  -0.043161  0  3.97835  0  0  -0.066194  -0.051246  0  3.947261  0
C  C77  1  0.52167669  0.65351506  0.58500083  1  0  -0.019553  0  3.714885  0  0  -0.048275  0  3.959886  0  0  -0.043113  0  3.978366  0  0  -0.066114  -0.051202  0  3.947284  0
C  C78  1  0.43847866  0.31501500  0.50825439  1  0  -0.129776  0  3.727594  0  0  -0.138921  0  3.97861  0  0  -0.147877  0  4.001255  0  0  -0.086281  -0.133342  0  3.963709  0
C  C79  1  0.56152089  0.68498687  0.49174289  1  0  -0.129916  0  3.727667  0  0  -0.139035  0  3.97871  0  0  -0.147994  0  4.001354  0  0  -0.086359  -0.133455  0  3.963805  0
C  C80  1  0.57278901  0.32997526  0.59762934  1  0  0.134084  0  3.680223  0  0  0.101538  0  3.932438  0  0  0.109592  0  3.949623  0  0  0.048484  0.096253  0  3.921024  0
C  C81  1  0.42721118  0.67002456  0.40236724  1  0  0.134262  0  3.680433  0  0  0.101737  0  3.932641  0  0  0.109795  0  3.949822  0  0  0.048587  0.096445  0  3.921231  0
C  C82  1  0.69865008  0.42503278  0.31316203  1  0  0.659932  0  3.930777  0  0  0.608036  0  4.228274  0  0  0.643048  0  4.220244  0  0  0.207579  0.584581  0  4.232767  0
C  C83  1  0.30134045  0.57496804  0.68683233  1  0  0.660184  0  3.930673  0  0  0.608285  0  4.22818  0  0  0.643303  0  4.220139  0  0  0.207753  0.584826  0  4.232679  0
N  N84  1  0.85212718  0.39710167  0.85513862  1  0  -0.348694  0  3.28969  0  0  -0.270982  0  3.56327  0  0  -0.289378  0  3.577965  0  0  -0.318162  -0.259031  0  3.553714  0
N  N85  1  0.14786959  0.60289507  0.14486184  1  0  -0.348759  0  3.289712  0  0  -0.271042  0  3.563299  0  0  -0.289431  0  3.577984  0  0  -0.318185  -0.25909  0  3.553746  0
N  N86  1  0.91349559  0.62418083  0.75613488  1  0  -0.340946  0  3.267637  0  0  -0.276372  0  3.533671  0  0  -0.291774  0  3.549122  0  0  -0.310501  -0.265486  0  3.522642  0
N  N87  1  0.08649960  0.37581898  0.24386467  1  0  -0.340947  0  3.267405  0  0  -0.276361  0  3.533432  0  0  -0.291762  0  3.548873  0  0  -0.310501  -0.26547  0  3.522407  0
N  N88  1  0.68542095  0.67122290  0.10874397  1  0  -0.381664  0  2.93051  0  0  -0.362702  0  3.203825  0  0  -0.375043  0  3.216875  0  0  -0.319154  -0.353481  0  3.194087  0
N  N89  1  0.31458453  0.32877385  0.89125858  1  0  -0.381651  0  2.930297  0  0  -0.362648  0  3.203665  0  0  -0.374988  0  3.216718  0  0  -0.319144  -0.353427  0  3.193926  0
N  N90  1  0.74922469  0.86337115  0.03185138  1  0  -0.383741  0  3.381816  0  0  -0.331276  0  3.618529  0  0  -0.348091  0  3.632343  0  0  -0.382729  -0.320478  0  3.60872  0
N  N91  1  0.25077641  0.13662764  0.96815280  1  0  -0.383778  0  3.38178  0  0  -0.331275  0  3.618535  0  0  -0.348094  0  3.632366  0  0  -0.38273  -0.320477  0  3.608729  0
N  N92  1  0.73831709  0.37128713  0.59582342  1  0  -0.330266  0  3.315388  0  0  -0.246303  0  3.592849  0  0  -0.265169  0  3.606053  0  0  -0.329616  -0.233696  0  3.583827  0
N  N93  1  0.26168342  0.62871371  0.40417173  1  0  -0.330408  0  3.31538  0  0  -0.246488  0  3.592923  0  0  -0.265354  0  3.606117  0  0  -0.329694  -0.233882  0  3.583901  0
O  O94  1  0.98375508  0.77152151  0.27212642  1  0  -0.670168  0  2.038835  0  0  -0.602277  0  2.308542  0  0  -0.630855  0  2.294685  0  0  -0.345294  -0.581836  0  2.316708  0
O  O95  1  0.01625127  0.22848241  0.72788021  1  0  -0.67016  0  2.038863  0  0  -0.602278  0  2.308623  0  0  -0.630859  0  2.294776  0  0  -0.345286  -0.581819  0  2.316761  0
O  O96  1  0.93116293  0.76389691  0.43129429  1  0  -0.597394  0  1.909914  0  0  -0.555171  0  2.132253  0  0  -0.578448  0  2.125319  0  0  -0.319213  -0.538519  0  2.136134  0
O  O97  1  0.06883783  0.23610495  0.56871142  1  0  -0.597292  0  1.909919  0  0  -0.55506  0  2.13229  0  0  -0.578339  0  2.125358  0  0  -0.319138  -0.538416  0  2.136185  0
O  O98  1  0.85882152  0.48217163  0.32775550  1  0  -0.668217  0  2.154347  0  0  -0.592313  0  2.441645  0  0  -0.623021  0  2.426753  0  0  -0.332043  -0.571044  0  2.451233  0
O  O99  1  0.14116805  0.51783432  0.67223587  1  0  -0.6683  0  2.154317  0  0  -0.592388  0  2.441627  0  0  -0.6231  0  2.426731  0  0  -0.332079  -0.571122  0  2.45122  0
O  O100  1  0.58528352  0.39395274  0.22920501  1  0  -0.603763  0  1.937958  0  0  -0.565754  0  2.167507  0  0  -0.588947  0  2.160875  0  0  -0.32057  -0.549793  0  2.171126  0
O  O101  1  0.41470517  0.60604193  0.77079040  1  0  -0.603848  0  1.937989  0  0  -0.565841  0  2.167526  0  0  -0.58903  0  2.160871  0  0  -0.320658  -0.549878  0  2.171143  0
