# generated using pymatgen
data_AgH12C16N5O3
_symmetry_space_group_name_H-M   'P 1'
_cell_length_a   8.53898719
_cell_length_b   8.66071979
_cell_length_c   21.87790000
_cell_angle_alpha   96.88677578
_cell_angle_beta   90.00000000
_cell_angle_gamma   90.00000000
_symmetry_Int_Tables_number   1
_chemical_formula_structural   AgH12C16N5O3
_chemical_formula_sum   'Ag4 H48 C64 N20 O12'
_cell_volume   1606.27983936
_cell_formula_units_Z   4
loop_
 _symmetry_equiv_pos_site_id
 _symmetry_equiv_pos_as_xyz
  1  'x, y, z'
loop_
 _atom_site_type_symbol
 _atom_site_label
 _atom_site_symmetry_multiplicity
 _atom_site_fract_x
 _atom_site_fract_y
 _atom_site_fract_z
 _atom_site_occupancy
 _atom_site_hle17_bader_spin_density
 _atom_site_hle17_ddec_charge
 _atom_site_hle17_ddec_spin_density
 _atom_site_hle17_ddec_sum_bond_order
 _atom_site_hle17_magmom
 _atom_site_hse06_10hf_bader_spin_density
 _atom_site_hse06_10hf_ddec_charge
 _atom_site_hse06_10hf_ddec_spin_density
 _atom_site_hse06_10hf_ddec_sum_bond_order
 _atom_site_hse06_10hf_magmom
 _atom_site_hse06_bader_spin_density
 _atom_site_hse06_ddec_charge
 _atom_site_hse06_ddec_spin_density
 _atom_site_hse06_ddec_sum_bond_order
 _atom_site_hse06_magmom
 _atom_site_pbe_bader_charge
 _atom_site_pbe_bader_spin_density
 _atom_site_pbe_cm5_charge
 _atom_site_pbe_ddec_charge
 _atom_site_pbe_ddec_spin_density
 _atom_site_pbe_ddec_sum_bond_order
 _atom_site_pbe_magmom
Ag  Ag0  1  0.08023902  0.65438677  0.69746603  1  0  0.532026  0  1.362317  0  0  0.385068  0  1.811048  0  0  0.41846  0  1.759135  0  0.637147  0  0.442484  0.362024  0  1.847016  0
Ag  Ag1  1  0.58023860  0.34561403  0.80253432  1  0  0.532068  0  1.362338  0  0  0.385107  0  1.81108  0  0  0.418499  0  1.759163  0  0.63714  0  0.442499  0.362063  0  1.847049  0
Ag  Ag2  1  0.91976013  0.34561287  0.30253473  1  0  0.532069  0  1.362325  0  0  0.385095  0  1.811072  0  0  0.418487  0  1.759158  0  0.637148  0  0.442493  0.362051  0  1.847041  0
Ag  Ag3  1  0.41975938  0.65438677  0.19746558  1  0  0.532022  0  1.362362  0  0  0.385066  0  1.81109  0  0  0.418457  0  1.759175  0  0.637145  0  0.442479  0.362021  0  1.847058  0
H  H4  1  0.82190192  0.87353412  0.50461488  1  0  0.107524  0  0.980706  0  0  0.116037  0  1.046058  0  0  0.11893  0  1.045819  0  0.133712  0  0.103213  0.113973  0  1.046361  0
H  H5  1  0.32190117  0.12646901  0.99538559  1  0  0.107543  0  0.980712  0  0  0.116055  0  1.046057  0  0  0.118948  0  1.045819  0  0.133729  0  0.103222  0.11399  0  1.04636  0
H  H6  1  0.17809958  0.12647017  0.49538565  1  0  0.107563  0  0.980705  0  0  0.11607  0  1.046052  0  0  0.118963  0  1.045814  0  0.13369  0  0.10323  0.114006  0  1.046355  0
H  H7  1  0.67809681  0.87353180  0.00461477  1  0  0.107517  0  0.980736  0  0  0.116033  0  1.04608  0  0  0.118925  0  1.045843  0  0.133731  0  0.103221  0.113968  0  1.046382  0
H  H8  1  0.69016148  0.63075983  0.45667664  1  0  0.100931  0  0.944556  0  0  0.111734  0  1.00246  0  0  0.11513  0  0.999367  0  0.110148  0  0.10502  0.109193  0  1.004778  0
H  H9  1  0.19016073  0.36924098  0.04332280  1  0  0.100865  0  0.944578  0  0  0.111695  0  1.002454  0  0  0.115091  0  0.999361  0  0.110158  0  0.105012  0.109154  0  1.004772  0
H  H10  1  0.30983768  0.36924447  0.54332297  1  0  0.100895  0  0.944576  0  0  0.111713  0  1.002456  0  0  0.11511  0  0.999362  0  0.110187  0  0.105035  0.109172  0  1.004774  0
H  H11  1  0.80983609  0.63075983  0.95667618  1  0  0.100957  0  0.944475  0  0  0.111715  0  1.00242  0  0  0.11511  0  0.999328  0  0.110156  0  0.104985  0.109174  0  1.004738  0
H  H12  1  0.70668100  0.38986847  0.51115159  1  0  0.102866  0  0.982664  0  0  0.111382  0  1.045196  0  0  0.114331  0  1.044524  0  0.12888  0  0.101111  0.109259  0  1.045789  0
H  H13  1  0.20668142  0.61013001  0.98884774  1  0  0.102832  0  0.982754  0  0  0.111348  0  1.045279  0  0  0.114294  0  1.044609  0  0.128877  0  0.101084  0.109225  0  1.045873  0
H  H14  1  0.29331699  0.61013350  0.48884654  1  0  0.102832  0  0.982723  0  0  0.111326  0  1.04527  0  0  0.114289  0  1.044584  0  0.128877  0  0.101091  0.109203  0  1.045864  0
H  H15  1  0.79332125  0.38986847  0.01115159  1  0  0.102865  0  0.982668  0  0  0.111376  0  1.045204  0  0  0.114323  0  1.044535  0  0.128857  0  0.101115  0.109254  0  1.045798  0
H  H16  1  0.85498899  0.40427957  0.60989899  1  0  0.077627  0  0.924613  0  0  0.091175  0  0.980522  0  0  0.09317  0  0.979025  0  0.077195  0  0.115414  0.089655  0  0.981729  0
H  H17  1  0.35499058  0.59572007  0.89010040  1  0  0.077699  0  0.924569  0  0  0.091208  0  0.980524  0  0  0.093203  0  0.979028  0  0.077151  0  0.115443  0.089689  0  0.98173  0
H  H18  1  0.14500783  0.59571891  0.39009943  1  0  0.077656  0  0.924687  0  0  0.091204  0  0.980588  0  0  0.093199  0  0.979092  0  0.077142  0  0.115436  0.089685  0  0.981794  0
H  H19  1  0.64501092  0.40427957  0.10989945  1  0  0.077631  0  0.924635  0  0  0.091183  0  0.980541  0  0  0.093178  0  0.979045  0  0.077156  0  0.115418  0.089663  0  0.981748  0
H  H20  1  0.92629604  0.10285718  0.55961842  1  0  0.135902  0  0.965605  0  0  0.143676  0  1.029209  0  0  0.147095  0  1.027989  0  0.141449  0  0.110431  0.141264  0  1.030137  0
H  H21  1  0.42629646  0.89714246  0.94038143  1  0  0.135907  0  0.96558  0  0  0.143677  0  1.029198  0  0  0.147101  0  1.027964  0  0.141461  0  0.110432  0.141258  0  1.030138  0
H  H22  1  0.07370546  0.89713897  0.44038126  1  0  0.135917  0  0.965605  0  0  0.143689  0  1.029212  0  0  0.14711  0  1.027987  0  0.141445  0  0.110426  0.141254  0  1.030172  0
H  H23  1  0.57370270  0.10285718  0.05961888  1  0  0.135928  0  0.965579  0  0  0.143696  0  1.029202  0  0  0.14712  0  1.027966  0  0.141475  0  0.110435  0.141277  0  1.030139  0
H  H24  1  0.13443749  0.25753314  0.64279272  1  0  0.117319  0  0.974094  0  0  0.126396  0  1.040228  0  0  0.129528  0  1.037007  0  0.154829  0  0.121726  0.124066  0  1.042569  0
H  H25  1  0.63443707  0.74246766  0.85720718  1  0  0.11734  0  0.974054  0  0  0.126398  0  1.040206  0  0  0.129532  0  1.036984  0  0.154892  0  0.121708  0.124067  0  1.042548  0
H  H26  1  0.86556401  0.74246650  0.35720667  1  0  0.117332  0  0.974084  0  0  0.126406  0  1.040222  0  0  0.129538  0  1.037003  0  0.154901  0  0.121727  0.124075  0  1.042564  0
H  H27  1  0.36556209  0.25753314  0.14279318  1  0  0.117319  0  0.974067  0  0  0.126382  0  1.040221  0  0  0.129516  0  1.037001  0  0.154874  0  0.121715  0.124051  0  1.042564  0
H  H28  1  0.32739948  0.16577825  0.71976691  1  0  0.093853  0  0.950608  0  0  0.103785  0  1.02449  0  0  0.104892  0  1.023445  0  0.104828  0  0.112841  0.102823  0  1.025488  0
H  H29  1  0.82739906  0.83422372  0.78023304  1  0  0.093859  0  0.950653  0  0  0.103779  0  1.024529  0  0  0.104887  0  1.023483  0  0.104846  0  0.112838  0.102817  0  1.025528  0
H  H30  1  0.67260085  0.83422372  0.28023259  1  0  0.093866  0  0.950647  0  0  0.103789  0  1.024517  0  0  0.104895  0  1.023473  0  0.104861  0  0.112836  0.102827  0  1.025516  0
H  H31  1  0.17260127  0.16577708  0.21976686  1  0  0.093844  0  0.950633  0  0  0.103772  0  1.024507  0  0  0.10488  0  1.023462  0  0.104833  0  0.112835  0.102811  0  1.025505  0
H  H32  1  0.34134727  0.96229422  0.72261323  1  0  0.090582  0  0.947636  0  0  0.102757  0  1.016958  0  0  0.103118  0  1.018176  0  0.089004  0  0.113767  0.102433  0  1.016228  0
H  H33  1  0.84134685  0.03770542  0.77738570  1  0  0.090582  0  0.947642  0  0  0.102738  0  1.016974  0  0  0.103098  0  1.018191  0  0.089004  0  0.113765  0.102414  0  1.016244  0
H  H34  1  0.65865306  0.03770542  0.27738661  1  0  0.090592  0  0.947636  0  0  0.102752  0  1.01696  0  0  0.103111  0  1.018178  0  0.089  0  0.113765  0.102428  0  1.01623  0
H  H35  1  0.15865230  0.96229422  0.22261369  1  0  0.090588  0  0.947601  0  0  0.102748  0  1.016948  0  0  0.103106  0  1.018167  0  0.088999  0  0.113772  0.102424  0  1.016219  0
H  H36  1  0.21409916  0.83756743  0.80113415  1  0  0.104744  0  0.95083  0  0  0.117381  0  1.01069  0  0  0.120493  0  1.008353  0  0.078405  0  0.104447  0.115052  0  1.012628  0
H  H37  1  0.71409640  0.16243221  0.69886615  1  0  0.104743  0  0.950855  0  0  0.117381  0  1.01071  0  0  0.120492  0  1.008373  0  0.078419  0  0.104454  0.11505  0  1.012652  0
H  H38  1  0.78590234  0.16243221  0.19886569  1  0  0.104757  0  0.950821  0  0  0.117399  0  1.010674  0  0  0.120511  0  1.008337  0  0.078423  0  0.104454  0.11507  0  1.012614  0
H  H39  1  0.28590042  0.83756743  0.30113415  1  0  0.10475  0  0.950825  0  0  0.117384  0  1.010686  0  0  0.120496  0  1.008349  0  0.078403  0  0.104446  0.115056  0  1.012622  0
H  H40  1  0.05491401  0.85486982  0.89650520  1  0  0.111138  0  0.93926  0  0  0.121385  0  0.997305  0  0  0.124763  0  0.99485  0  0.125371  0  0.110746  0.118934  0  0.999148  0
H  H41  1  0.55491007  0.14512865  0.60349459  1  0  0.111162  0  0.939225  0  0  0.121413  0  0.997267  0  0  0.124791  0  0.994815  0  0.125388  0  0.110751  0.118961  0  0.99911  0
H  H42  1  0.94508866  0.14512865  0.10349504  1  0  0.111148  0  0.939216  0  0  0.121396  0  0.997262  0  0  0.124773  0  0.994811  0  0.125394  0  0.110755  0.118944  0  0.999106  0
H  H43  1  0.44508557  0.85487099  0.39650480  1  0  0.111164  0  0.939247  0  0  0.121407  0  0.997294  0  0  0.124783  0  0.994847  0  0.125384  0  0.110756  0.118956  0  0.999137  0
H  H44  1  0.95860081  0.33839278  0.88064332  1  0  0.107037  0  0.955773  0  0  0.116805  0  1.016239  0  0  0.119591  0  1.01501  0  0.101096  0  0.107753  0.11475  0  1.017236  0
H  H45  1  0.45860006  0.66160454  0.61935733  1  0  0.10708  0  0.955826  0  0  0.116853  0  1.01627  0  0  0.119639  0  1.015042  0  0.101068  0  0.107776  0.114797  0  1.017267  0
H  H46  1  0.04139835  0.66160570  0.11935738  1  0  0.107005  0  0.955756  0  0  0.116768  0  1.016239  0  0  0.119554  0  1.015011  0  0.101095  0  0.107751  0.114713  0  1.017237  0
H  H47  1  0.54139793  0.33839278  0.38064332  1  0  0.107045  0  0.955763  0  0  0.116811  0  1.016228  0  0  0.119597  0  1.015  0  0.10111  0  0.107766  0.114757  0  1.017224  0
H  H48  1  0.11941931  0.32047631  0.78545475  1  0  0.106161  0  0.947344  0  0  0.114989  0  1.011186  0  0  0.117299  0  1.011025  0  0.091063  0  0.104575  0.113272  0  1.011498  0
H  H49  1  0.61941889  0.67952333  0.71454601  1  0  0.106166  0  0.947317  0  0  0.114994  0  1.011163  0  0  0.117303  0  1.011001  0  0.091053  0  0.10457  0.113277  0  1.011476  0
H  H50  1  0.88057984  0.67952333  0.21454601  1  0  0.106183  0  0.947272  0  0  0.115018  0  1.011116  0  0  0.117324  0  1.010953  0  0.091049  0  0.104592  0.113302  0  1.011429  0
H  H51  1  0.38057909  0.32047631  0.28545475  1  0  0.106174  0  0.947353  0  0  0.114999  0  1.011193  0  0  0.117308  0  1.011033  0  0.091062  0  0.104564  0.113281  0  1.011506  0
C  C52  1  0.91305208  0.76368132  0.58093021  1  0  0.19159  0  3.779315  0  0  0.193191  0  4.01292  0  0  0.199704  0  4.033398  0  0.490932  0  0.119514  0.188675  0  3.999061  0
C  C53  1  0.41305367  0.23631948  0.91906923  1  0  0.191725  0  3.779318  0  0  0.193315  0  4.012912  0  0  0.199827  0  4.033389  0  0.491007  0  0.119575  0.188799  0  3.999053  0
C  C54  1  0.08694708  0.23631948  0.41906923  1  0  0.19165  0  3.779375  0  0  0.193236  0  4.012982  0  0  0.199749  0  4.033456  0  0.490987  0  0.119543  0.188721  0  3.999123  0
C  C55  1  0.58694666  0.76368132  0.08093021  1  0  0.191689  0  3.779253  0  0  0.193284  0  4.012862  0  0  0.199798  0  4.033339  0  0.490879  0  0.119576  0.188766  0  3.999004  0
C  C56  1  0.82882429  0.76660169  0.52606721  1  0  -0.146132  0  3.701898  0  0  -0.164102  0  3.943567  0  0  -0.171311  0  3.965987  0  -0.073422  0  -0.08395  -0.159361  0  3.928509  0
C  C57  1  0.32882471  0.23339912  0.97393223  1  0  -0.146209  0  3.701904  0  0  -0.164166  0  3.943551  0  0  -0.171378  0  3.96597  0  -0.073463  0  -0.083972  -0.159424  0  3.928495  0
C  C58  1  0.17117604  0.23339795  0.47393172  1  0  -0.146259  0  3.701823  0  0  -0.164228  0  3.943488  0  0  -0.17144  0  3.965905  0  -0.073415  0  -0.083997  -0.159486  0  3.928431  0
C  C59  1  0.67117445  0.76660053  0.02606716  1  0  -0.146152  0  3.701851  0  0  -0.164123  0  3.943502  0  0  -0.171337  0  3.965921  0  -0.073417  0  -0.083971  -0.159382  0  3.928445  0
C  C60  1  0.75390557  0.63190308  0.49994804  1  0  -0.010817  0  3.728822  0  0  -0.026333  0  3.973979  0  0  -0.023777  0  3.992885  0  -0.024688  0  -0.072169  -0.027799  0  3.961041  0
C  C61  1  0.25390365  0.36809888  0.00005146  1  0  -0.010726  0  3.728743  0  0  -0.026261  0  3.973896  0  0  -0.023706  0  3.992802  0  -0.024665  0  -0.07217  -0.027723  0  3.960946  0
C  C62  1  0.24609827  0.36810005  0.50005060  1  0  -0.010704  0  3.72868  0  0  -0.026207  0  3.973787  0  0  -0.023653  0  3.992698  0  -0.024677  0  -0.07215  -0.027673  0  3.960847  0
C  C63  1  0.74609668  0.63190192  0.99994890  1  0  -0.010802  0  3.728718  0  0  -0.026271  0  3.97385  0  0  -0.023715  0  3.992757  0  -0.024657  0  -0.07214  -0.027736  0  3.960909  0
C  C64  1  0.76267242  0.49831634  0.52971103  1  0  -0.121782  0  3.734974  0  0  -0.134338  0  3.981958  0  0  -0.140434  0  4.00332  0  -0.052983  0  -0.088637  -0.130378  0  3.967549  0
C  C65  1  0.26267167  0.50168563  0.97028846  1  0  -0.121795  0  3.73508  0  0  -0.134344  0  3.982035  0  0  -0.140437  0  4.003398  0  -0.053054  0  -0.088637  -0.130385  0  3.96763  0
C  C66  1  0.23733143  0.50168447  0.47028750  1  0  -0.121781  0  3.735119  0  0  -0.134327  0  3.982103  0  0  -0.140436  0  4.003457  0  -0.053067  0  -0.088658  -0.130367  0  3.967695  0
C  C67  1  0.73733218  0.49831517  0.02971189  1  0  -0.121809  0  3.734948  0  0  -0.134352  0  3.981915  0  0  -0.140447  0  4.003277  0  -0.052977  0  -0.088635  -0.130392  0  3.967505  0
C  C68  1  0.84734756  0.50503167  0.58444589  1  0  0.1314  0  3.722704  0  0  0.102457  0  3.973812  0  0  0.108762  0  3.992448  0  0.473325  0  0.046458  0.098307  0  3.961096  0
C  C69  1  0.34734799  0.49496914  0.91555401  1  0  0.131353  0  3.722776  0  0  0.102425  0  3.973882  0  0  0.10873  0  3.992516  0  0.473379  0  0.046434  0.098275  0  3.961167  0
C  C70  1  0.15265511  0.49496797  0.41555304  1  0  0.131353  0  3.722887  0  0  0.102404  0  3.973981  0  0  0.108707  0  3.99262  0  0.473392  0  0.046458  0.098253  0  3.961266  0
C  C71  1  0.65265469  0.50503167  0.08444589  1  0  0.131374  0  3.722646  0  0  0.102417  0  3.973768  0  0  0.108721  0  3.992402  0  0.473318  0  0.046412  0.098266  0  3.961053  0
C  C72  1  0.99563096  0.90168875  0.60986621  1  0  0.127743  0  3.809198  0  0  0.11417  0  4.07097  0  0  0.120331  0  4.091427  0  0.476936  0  0.091839  0.110304  0  4.056831  0
C  C73  1  0.49563255  0.09831090  0.89013455  1  0  0.127656  0  3.809248  0  0  0.114126  0  4.070979  0  0  0.120287  0  4.091433  0  0.476924  0  0.091864  0.110262  0  4.056834  0
C  C74  1  0.00437171  0.09830973  0.39013449  1  0  0.127711  0  3.809244  0  0  0.11416  0  4.070979  0  0  0.12032  0  4.091436  0  0.476847  0  0.091841  0.110294  0  4.056835  0
C  C75  1  0.50436661  0.90168875  0.10986530  1  0  0.127677  0  3.809257  0  0  0.114137  0  4.070996  0  0  0.120298  0  4.091451  0  0.47697  0  0.091858  0.110272  0  4.056853  0
C  C76  1  0.99400196  0.05643252  0.59521135  1  0  -0.22497  0  3.743009  0  0  -0.24544  0  4.008064  0  0  -0.254731  0  4.029489  0  -0.042501  0  -0.108484  -0.239246  0  3.993376  0
C  C77  1  0.49400355  0.94356828  0.90478855  1  0  -0.22496  0  3.743032  0  0  -0.245452  0  4.008083  0  0  -0.254739  0  4.029506  0  -0.042512  0  -0.108513  -0.239253  0  3.993403  0
C  C78  1  0.00600071  0.94356595  0.40478752  1  0  -0.224996  0  3.743096  0  0  -0.245462  0  4.008122  0  0  -0.254754  0  4.029545  0  -0.042409  0  -0.108502  -0.23925  0  3.993458  0
C  C79  1  0.50599678  0.05643136  0.09521175  1  0  -0.225024  0  3.743086  0  0  -0.245503  0  4.008134  0  0  -0.254792  0  4.02956  0  -0.042489  0  -0.108506  -0.239304  0  3.993454  0
C  C80  1  0.09585329  0.13705607  0.63684864  1  0  -0.007208  0  3.656455  0  0  -0.063125  0  3.909842  0  0  -0.056923  0  3.926299  0  0.337017  0  0.016719  -0.066779  0  3.898435  0
C  C81  1  0.59585521  0.86294590  0.86315177  1  0  -0.00721  0  3.656375  0  0  -0.063082  0  3.909763  0  0  -0.05688  0  3.926218  0  0.336905  0  0.016784  -0.066736  0  3.898355  0
C  C82  1  0.90414704  0.86294474  0.36315080  1  0  -0.007274  0  3.656501  0  0  -0.063163  0  3.909922  0  0  -0.056965  0  3.926382  0  0.336941  0  0.01672  -0.066815  0  3.898509  0
C  C83  1  0.40414512  0.13705607  0.13684864  1  0  -0.00718  0  3.656384  0  0  -0.063075  0  3.909783  0  0  -0.056875  0  3.926241  0  0.336969  0  0.016735  -0.066729  0  3.898376  0
C  C84  1  0.25989850  0.06082645  0.72561843  1  0  -0.072098  0  3.653417  0  0  -0.150948  0  3.902087  0  0  -0.14758  0  3.912778  0  0.276287  0  -0.047901  -0.153099  0  3.894965  0
C  C85  1  0.75989808  0.93917435  0.77438147  1  0  -0.072152  0  3.653475  0  0  -0.15095  0  3.90214  0  0  -0.147573  0  3.912817  0  0.276269  0  -0.047893  -0.153101  0  3.895021  0
C  C86  1  0.74010065  0.93917435  0.27438147  1  0  -0.072186  0  3.653489  0  0  -0.150952  0  3.902109  0  0  -0.147581  0  3.912795  0  0.276233  0  -0.047887  -0.153103  0  3.894988  0
C  C87  1  0.24010107  0.06082645  0.22561843  1  0  -0.07209  0  3.653382  0  0  -0.15091  0  3.902032  0  0  -0.147538  0  3.912718  0  0.27628  0  -0.047875  -0.153062  0  3.894912  0
C  C88  1  0.17357562  0.07643896  0.78624004  1  0  0.086797  0  3.722642  0  0  0.102952  0  3.96731  0  0  0.104125  0  3.990044  0  -0.034621  0  -0.004583  0.102265  0  3.951888  0
C  C89  1  0.67357403  0.92356184  0.71375987  1  0  0.086882  0  3.722653  0  0  0.103018  0  3.967307  0  0  0.104192  0  3.990038  0  -0.034653  0  -0.00456  0.102331  0  3.951885  0
C  C90  1  0.82642471  0.92356068  0.21376027  1  0  0.086864  0  3.722629  0  0  0.103008  0  3.967283  0  0  0.104181  0  3.990016  0  -0.034633  0  -0.004571  0.102321  0  3.951863  0
C  C91  1  0.32642396  0.07643896  0.28624049  1  0  0.086816  0  3.722641  0  0  0.102962  0  3.9673  0  0  0.104135  0  3.990032  0  -0.034736  0  -0.00458  0.102274  0  3.951877  0
C  C92  1  0.15757255  0.94708993  0.81840856  1  0  -0.108391  0  3.728007  0  0  -0.1271  0  3.977125  0  0  -0.130844  0  3.997908  0  -0.010969  0  -0.08311  -0.124668  0  3.963196  0
C  C93  1  0.65757096  0.05290971  0.68159220  1  0  -0.108391  0  3.728119  0  0  -0.127101  0  3.977246  0  0  -0.130846  0  3.998033  0  -0.010992  0  -0.083108  -0.12467  0  3.963313  0
C  C94  1  0.84242778  0.05290854  0.18159169  1  0  -0.108413  0  3.727952  0  0  -0.127136  0  3.97709  0  0  -0.130881  0  3.997876  0  -0.010974  0  -0.083093  -0.124701  0  3.963154  0
C  C95  1  0.34242703  0.94708993  0.31840856  1  0  -0.108424  0  3.728066  0  0  -0.127127  0  3.977171  0  0  -0.13087  0  3.997954  0  -0.010912  0  -0.083129  -0.124694  0  3.963241  0
C  C96  1  0.06881964  0.95604294  0.87201825  1  0  -0.061434  0  3.697467  0  0  -0.086757  0  3.945259  0  0  -0.086606  0  3.963821  0  0.009188  0  -0.070217  -0.086551  0  3.932408  0
C  C97  1  0.56882273  0.04395554  0.62798154  1  0  -0.061418  0  3.697395  0  0  -0.086736  0  3.94519  0  0  -0.08658  0  3.963738  0  0.009211  0  -0.070162  -0.086533  0  3.932349  0
C  C98  1  0.93117952  0.04395554  0.12798199  1  0  -0.061408  0  3.697333  0  0  -0.08676  0  3.945108  0  0  -0.086605  0  3.96366  0  0.009214  0  -0.070209  -0.086553  0  3.932259  0
C  C99  1  0.43117760  0.95604294  0.37201825  1  0  -0.061454  0  3.697555  0  0  -0.086742  0  3.945369  0  0  -0.086587  0  3.963918  0  0.009183  0  -0.070181  -0.086536  0  3.93252  0
C  C100  1  0.99587572  0.09722812  0.89395875  1  0  0.012805  0  3.886704  0  0  0.03546  0  4.117639  0  0  0.032516  0  4.139612  0  0.099487  0  0.002269  0.037348  0  4.102743  0
C  C101  1  0.49587497  0.90277153  0.60604110  1  0  0.012795  0  3.886798  0  0  0.035432  0  4.117766  0  0  0.032486  0  4.139741  0  0.099563  0  0.002233  0.037318  0  4.10287  0
C  C102  1  0.00412578  0.90277153  0.10604110  1  0  0.012753  0  3.886849  0  0  0.035506  0  4.117658  0  0  0.032559  0  4.139633  0  0.100269  0  0.002253  0.037392  0  4.102764  0
C  C103  1  0.50412302  0.09722812  0.39395921  1  0  0.012849  0  3.886692  0  0  0.03538  0  4.117772  0  0  0.032435  0  4.139749  0  0.099823  0  0.002241  0.037268  0  4.102877  0
C  C104  1  0.01481206  0.22932851  0.86293221  1  0  -0.075689  0  3.70784  0  0  -0.102468  0  3.96014  0  0  -0.103165  0  3.980452  0  -0.029637  0  -0.076966  -0.101804  0  3.946402  0
C  C105  1  0.51481164  0.77066997  0.63706849  1  0  -0.075729  0  3.707938  0  0  -0.102499  0  3.96024  0  0  -0.103197  0  3.980553  0  -0.029612  0  -0.076988  -0.101835  0  3.946503  0
C  C106  1  0.98518593  0.77067113  0.13706855  1  0  -0.07558  0  3.707782  0  0  -0.102381  0  3.960055  0  0  -0.103076  0  3.980365  0  -0.029953  0  -0.076944  -0.101717  0  3.946318  0
C  C107  1  0.48518635  0.22932851  0.36293176  1  0  -0.075682  0  3.707827  0  0  -0.10242  0  3.960151  0  0  -0.103118  0  3.980464  0  -0.02997  0  -0.076972  -0.101757  0  3.946411  0
C  C108  1  0.10396198  0.21810411  0.80939799  1  0  -0.103665  0  3.708322  0  0  -0.124029  0  3.961959  0  0  -0.127942  0  3.98402  0  -0.025878  0  -0.085323  -0.121509  0  3.94717  0
C  C109  1  0.60396039  0.78189553  0.69060231  1  0  -0.10372  0  3.708307  0  0  -0.124081  0  3.961951  0  0  -0.127995  0  3.984012  0  -0.025841  0  -0.085335  -0.121557  0  3.947153  0
C  C110  1  0.89603718  0.78189553  0.19060231  1  0  -0.103758  0  3.708343  0  0  -0.124139  0  3.962012  0  0  -0.128048  0  3.984068  0  -0.025902  0  -0.085359  -0.121616  0  3.947215  0
C  C111  1  0.39603760  0.21810411  0.30939799  1  0  -0.103716  0  3.708389  0  0  -0.124071  0  3.962001  0  0  -0.127985  0  3.984062  0  -0.025862  0  -0.085325  -0.121555  0  3.947223  0
C  C112  1  0.89991000  0.10740346  0.94745689  1  0  0.28536  0  3.730836  0  0  0.267959  0  4.001344  0  0  0.279423  0  4.019354  0  0.800054  0  0.197193  0.260181  0  3.989239  0
C  C113  1  0.39991394  0.89259967  0.55254724  1  0  0.28529  0  3.730529  0  0  0.267889  0  4.001047  0  0  0.279353  0  4.019061  0  0.80002  0  0.197127  0.260112  0  3.988938  0
C  C114  1  0.10008447  0.89259851  0.05254809  1  0  0.285393  0  3.730365  0  0  0.267951  0  4.000857  0  0  0.279416  0  4.018869  0  0.79961  0  0.197171  0.260172  0  3.988751  0
C  C115  1  0.60008873  0.10740346  0.44745643  1  0  0.285359  0  3.730775  0  0  0.268005  0  4.001302  0  0  0.279468  0  4.019314  0  0.800023  0  0.197206  0.260227  0  3.989197  0
N  N116  1  0.92193135  0.63355691  0.60944746  1  0  -0.341125  0  3.250995  0  0  -0.273713  0  3.526432  0  0  -0.291038  0  3.541347  0  -1.19232  0  -0.328672  -0.261825  0  3.516154  0
N  N117  1  0.42193294  0.36644506  0.89055249  1  0  -0.341201  0  3.251114  0  0  -0.273781  0  3.526554  0  0  -0.291104  0  3.541465  0  -1.192337  0  -0.32871  -0.261894  0  3.516279  0
N  N118  1  0.07806781  0.36644389  0.39055244  1  0  -0.341147  0  3.251093  0  0  -0.273735  0  3.526545  0  0  -0.291057  0  3.541455  0  -1.192334  0  -0.328711  -0.261847  0  3.516267  0
N  N119  1  0.57806739  0.63355691  0.10944746  1  0  -0.341169  0  3.251033  0  0  -0.273757  0  3.526487  0  0  -0.291081  0  3.5414  0  -1.192299  0  -0.32868  -0.261869  0  3.516211  0
N  N120  1  0.15280618  0.03300562  0.67328610  1  0  0.082374  0  3.579362  0  0  0.198289  0  3.76087  0  0  0.18967  0  3.786553  0  -0.789923  0  -0.136944  0.203716  0  3.743683  0
N  N121  1  0.65280810  0.96699635  0.82671432  1  0  0.082382  0  3.579355  0  0  0.198236  0  3.760903  0  0  0.189604  0  3.78661  0  -0.789852  0  -0.137015  0.203663  0  3.743718  0
N  N122  1  0.84719181  0.96699519  0.32671426  1  0  0.082515  0  3.579323  0  0  0.198303  0  3.76096  0  0  0.189695  0  3.786625  0  -0.789894  0  -0.136962  0.20373  0  3.743774  0
N  N123  1  0.34719223  0.03300446  0.17328604  1  0  0.0824  0  3.579345  0  0  0.198286  0  3.760885  0  0  0.189661  0  3.786582  0  -0.789928  0  -0.136974  0.203713  0  3.743698  0
N  N124  1  0.09241845  0.88995494  0.65785549  1  0  -0.302344  0  3.102707  0  0  -0.270437  0  3.395316  0  0  -0.283796  0  3.408666  0  -0.666594  0  -0.247019  -0.261209  0  3.386144  0
N  N125  1  0.59241920  0.11004587  0.84214487  1  0  -0.302339  0  3.102681  0  0  -0.270449  0  3.395322  0  0  -0.283805  0  3.408668  0  -0.666606  0  -0.247036  -0.26122  0  3.386149  0
N  N126  1  0.90758305  0.11004354  0.34214476  1  0  -0.302387  0  3.102761  0  0  -0.270431  0  3.395373  0  0  -0.283794  0  3.408728  0  -0.666596  0  -0.247006  -0.261203  0  3.3862  0
N  N127  1  0.40758112  0.88995494  0.15785549  1  0  -0.302333  0  3.102715  0  0  -0.270443  0  3.395346  0  0  -0.2838  0  3.408694  0  -0.666595  0  -0.24703  -0.261214  0  3.386172  0
N  N128  1  0.81851393  0.11732876  0.99070772  1  0  -0.412361  0  2.61435  0  0  -0.383746  0  2.842217  0  0  -0.395563  0  2.854632  0  -1.180621  0  -0.296924  -0.375836  0  2.833938  0
N  N129  1  0.31851201  0.88266740  0.50929105  1  0  -0.412313  0  2.613827  0  0  -0.383685  0  2.841678  0  0  -0.395505  0  2.8541  0  -1.180697  0  -0.296848  -0.375768  0  2.833378  0
N  N130  1  0.18148757  0.88266856  0.00929110  1  0  -0.41242  0  2.613623  0  0  -0.383796  0  2.841492  0  0  -0.395615  0  2.853909  0  -1.180659  0  -0.296903  -0.375881  0  2.833202  0
N  N131  1  0.68148597  0.11732992  0.49070777  1  0  -0.412388  0  2.614288  0  0  -0.383783  0  2.842153  0  0  -0.3956  0  2.854569  0  -1.180588  0  -0.296933  -0.375871  0  2.833868  0
N  N132  1  0.37151947  0.46616903  0.70334312  1  0  0.703517  0  4.11438  0  0  0.719019  0  4.415517  0  0  0.74814  0  4.423579  0  0.822601  0  0.083626  0.699368  0  4.409467  0
N  N133  1  0.87152022  0.53383061  0.79665718  1  0  0.703537  0  4.114283  0  0  0.719032  0  4.41543  0  0  0.748152  0  4.423492  0  0.822611  0  0.083631  0.699381  0  4.409381  0
N  N134  1  0.62847969  0.53383061  0.29665718  1  0  0.70355  0  4.114289  0  0  0.719043  0  4.415434  0  0  0.748163  0  4.423496  0  0.822983  0  0.083618  0.699392  0  4.409383  0
N  N135  1  0.12847894  0.46616903  0.20334312  1  0  0.703487  0  4.114348  0  0  0.718984  0  4.415494  0  0  0.748105  0  4.423555  0  0.822982  0  0.083616  0.699333  0  4.409444  0
O  O136  1  0.29097947  0.46614112  0.65429093  1  0  -0.483632  0  1.799038  0  0  -0.45851  0  2.039995  0  0  -0.475692  0  2.028955  0  -0.553032  0  -0.195569  -0.446387  0  2.047263  0
O  O137  1  0.79098022  0.53385736  0.84570932  1  0  -0.483698  0  1.799053  0  0  -0.458532  0  2.039965  0  0  -0.475719  0  2.028938  0  -0.553044  0  -0.195575  -0.446409  0  2.047233  0
O  O138  1  0.70901968  0.53385736  0.34570932  1  0  -0.483693  0  1.799039  0  0  -0.45853  0  2.039959  0  0  -0.475715  0  2.028927  0  -0.553045  0  -0.195573  -0.446407  0  2.047227  0
O  O139  1  0.20902011  0.46614112  0.15429093  1  0  -0.483633  0  1.799025  0  0  -0.458491  0  2.039967  0  0  -0.475675  0  2.028931  0  -0.553024  0  -0.195569  -0.446368  0  2.047234  0
O  O140  1  0.33230873  0.55145865  0.75184056  1  0  -0.469549  0  1.76061  0  0  -0.450954  0  2.000607  0  0  -0.466512  0  1.99074  0  -0.539251  0  -0.188801  -0.440097  0  2.007287  0
O  O141  1  0.83230831  0.44854099  0.74815928  1  0  -0.469548  0  1.76057  0  0  -0.450956  0  2.000572  0  0  -0.466515  0  1.990706  0  -0.539251  0  -0.18881  -0.440097  0  2.007249  0
O  O142  1  0.66769043  0.44854099  0.24815974  1  0  -0.469548  0  1.760582  0  0  -0.450971  0  2.000605  0  0  -0.466529  0  1.99074  0  -0.539615  0  -0.188795  -0.440111  0  2.007283  0
O  O143  1  0.16769085  0.55145865  0.25184056  1  0  -0.469531  0  1.760599  0  0  -0.450938  0  2.000601  0  0  -0.466495  0  1.990734  0  -0.539627  0  -0.188799  -0.44008  0  2.007283  0
O  O144  1  0.49139434  0.37804395  0.70256029  1  0  -0.468078  0  1.852221  0  0  -0.434051  0  2.104292  0  0  -0.453539  0  2.094765  0  -0.542509  0  -0.195878  -0.420301  0  2.110457  0
O  O145  1  0.99139509  0.62195569  0.79744001  1  0  -0.468062  0  1.852189  0  0  -0.434036  0  2.10426  0  0  -0.453523  0  2.094733  0  -0.542516  0  -0.195866  -0.420287  0  2.110423  0
O  O146  1  0.50860481  0.62195569  0.29743956  1  0  -0.468059  0  1.852174  0  0  -0.434027  0  2.104236  0  0  -0.453513  0  2.094711  0  -0.542513  0  -0.195864  -0.420277  0  2.1104  0
O  O147  1  0.00860524  0.37804395  0.20256029  1  0  -0.468072  0  1.852203  0  0  -0.43404  0  2.104265  0  0  -0.453526  0  2.094738  0  -0.542518  0  -0.195867  -0.420292  0  2.11043  0
