# generated using pymatgen
data_AgH8C15Br2N5O4
_symmetry_space_group_name_H-M   'P 1'
_cell_length_a   7.79758116
_cell_length_b   9.02735179
_cell_length_c   12.47189131
_cell_angle_alpha   101.46576177
_cell_angle_beta   100.06888425
_cell_angle_gamma   90.69536615
_symmetry_Int_Tables_number   1
_chemical_formula_structural   AgH8C15Br2N5O4
_chemical_formula_sum   'Ag2 H16 C30 Br4 N10 O8'
_cell_volume   846.14293844
_cell_formula_units_Z   2
loop_
 _symmetry_equiv_pos_site_id
 _symmetry_equiv_pos_as_xyz
  1  'x, y, z'
loop_
 _atom_site_type_symbol
 _atom_site_label
 _atom_site_symmetry_multiplicity
 _atom_site_fract_x
 _atom_site_fract_y
 _atom_site_fract_z
 _atom_site_occupancy
 _atom_site_hle17_bader_spin_density
 _atom_site_hle17_ddec_charge
 _atom_site_hle17_ddec_spin_density
 _atom_site_hle17_ddec_sum_bond_order
 _atom_site_hle17_magmom
 _atom_site_hse06_10hf_bader_spin_density
 _atom_site_hse06_10hf_ddec_charge
 _atom_site_hse06_10hf_ddec_spin_density
 _atom_site_hse06_10hf_ddec_sum_bond_order
 _atom_site_hse06_10hf_magmom
 _atom_site_hse06_bader_spin_density
 _atom_site_hse06_ddec_charge
 _atom_site_hse06_ddec_spin_density
 _atom_site_hse06_ddec_sum_bond_order
 _atom_site_hse06_magmom
 _atom_site_pbe_bader_spin_density
 _atom_site_pbe_cm5_charge
 _atom_site_pbe_ddec_charge
 _atom_site_pbe_ddec_spin_density
 _atom_site_pbe_ddec_sum_bond_order
 _atom_site_pbe_magmom
Ag  Ag0  1  0.54897365  0.82261367  0.48817221  1  0  0.620468  0  1.5733  0  0  0.494831  0  2.064248  0  0  0.521112  0  2.009425  0  0  0.504602  0.476887  0  2.102403  0
Ag  Ag1  1  0.45102199  0.17738676  0.51182734  1  0  0.620524  0  1.573276  0  0  0.494901  0  2.064237  0  0  0.521182  0  2.009413  0  0  0.50462  0.476956  0  2.102395  0
H  H2  1  0.98069270  0.20825165  0.47234299  1  0  0.128129  0  0.94889  0  0  0.13523  0  1.013453  0  0  0.13847  0  1.011475  0  0  0.106963  0.132869  0  1.014923  0
H  H3  1  0.01930588  0.79175442  0.52765770  1  0  0.128146  0  0.948872  0  0  0.135239  0  1.01347  0  0  0.138479  0  1.011492  0  0  0.106953  0.13288  0  1.014929  0
H  H4  1  0.86298780  0.92965918  0.14155857  1  0  0.1187  0  0.955008  0  0  0.124733  0  1.021927  0  0  0.128627  0  1.018103  0  0  0.108958  0.121893  0  1.024729  0
H  H5  1  0.13701064  0.07034462  0.85844338  1  0  0.118749  0  0.955001  0  0  0.124748  0  1.021943  0  0  0.128642  0  1.018119  0  0  0.108966  0.121913  0  1.024739  0
H  H6  1  0.01984668  0.11878840  0.07107924  1  0  0.125231  0  0.977553  0  0  0.132945  0  1.036604  0  0  0.137172  0  1.034133  0  0  0.108973  0.130005  0  1.038385  0
H  H7  1  0.98015169  0.88121428  0.92892094  1  0  0.125242  0  0.97755  0  0  0.13298  0  1.036583  0  0  0.137208  0  1.03411  0  0  0.108998  0.130042  0  1.038365  0
H  H8  1  0.19684370  0.36099276  0.86383987  1  0  0.137331  0  0.979281  0  0  0.143472  0  1.041364  0  0  0.147653  0  1.038523  0  0  0.111868  0.140472  0  1.043531  0
H  H9  1  0.80315872  0.63901217  0.13616189  1  0  0.137339  0  0.979281  0  0  0.143493  0  1.041343  0  0  0.147672  0  1.038508  0  0  0.111875  0.140493  0  1.043511  0
H  H10  1  0.27316041  0.44080188  0.70029253  1  0  0.1052  0  0.951403  0  0  0.112118  0  1.019766  0  0  0.115536  0  1.016586  0  0  0.10236  0.10962  0  1.022062  0
H  H11  1  0.72684784  0.55919171  0.29970821  1  0  0.105281  0  0.951354  0  0  0.112126  0  1.019776  0  0  0.115543  0  1.016595  0  0  0.102334  0.109628  0  1.022072  0
H  H12  1  0.48116691  0.87010073  0.90779858  1  0  0.096706  0  0.991906  0  0  0.100851  0  1.067447  0  0  0.104693  0  1.064278  0  0  0.093438  0.097995  0  1.069809  0
H  H13  1  0.51883374  0.12989628  0.09220182  1  0  0.096697  0  0.991929  0  0  0.100851  0  1.067452  0  0  0.104692  0  1.064283  0  0  0.093427  0.097995  0  1.069813  0
H  H14  1  0.22249413  0.47816463  0.25021042  1  0  0.291582  0  0.95418  0  0  0.266698  0  1.031335  0  0  0.275767  0  1.023619  0  0  0.296048  0.26026  0  1.036796  0
H  H15  1  0.77750151  0.52183579  0.74978993  1  0  0.291613  0  0.954111  0  0  0.266744  0  1.031244  0  0  0.275815  0  1.023521  0  0  0.296045  0.260301  0  1.036722  0
H  H16  1  0.29150397  0.60215422  0.14859566  1  0  0.294351  0  0.947711  0  0  0.268537  0  1.02723  0  0  0.277825  0  1.019138  0  0  0.296182  0.26193  0  1.032999  0
H  H17  1  0.70849161  0.39784507  0.85140370  1  0  0.294342  0  0.947729  0  0  0.268527  0  1.027251  0  0  0.277814  0  1.019159  0  0  0.296171  0.261917  0  1.033027  0
C  C18  1  0.08023567  0.29185946  0.34385583  1  0  -0.023034  0  3.67948  0  0  -0.006611  0  3.95066  0  0  -0.009449  0  3.972069  0  0  -0.024453  -0.005093  0  3.936339  0
C  C19  1  0.91976271  0.70814322  0.65614354  1  0  -0.022965  0  3.679468  0  0  -0.00652  0  3.950603  0  0  -0.009358  0  3.972013  0  0  -0.024443  -0.005013  0  3.9363  0
C  C20  1  0.98873335  0.18950751  0.38446593  1  0  -0.112253  0  3.735316  0  0  -0.146434  0  3.98807  0  0  -0.144072  0  4.00643  0  0  -0.085471  -0.147691  0  3.975636  0
C  C21  1  0.01126763  0.81049516  0.61553533  1  0  -0.112307  0  3.735261  0  0  -0.146498  0  3.988001  0  0  -0.144138  0  4.00636  0  0  -0.085459  -0.147749  0  3.975564  0
C  C22  1  0.90638703  0.05920692  0.31107079  1  0  0.006498  0  3.887749  0  0  0.027289  0  4.123612  0  0  0.020724  0  4.14494  0  0  -0.008278  0.031508  0  4.109321  0
C  C23  1  0.09361140  0.94079688  0.68893276  1  0  0.006601  0  3.887814  0  0  0.027381  0  4.123666  0  0  0.020819  0  4.144988  0  0  -0.008299  0.031597  0  4.109383  0
C  C24  1  0.80893288  0.95875858  0.35358030  1  0  0.356778  0  3.70016  0  0  0.334423  0  3.961296  0  0  0.351064  0  3.976667  0  0  0.223122  0.32283  0  3.951336  0
C  C25  1  0.19106014  0.04124183  0.64642295  1  0  0.356539  0  3.700268  0  0  0.33419  0  3.96141  0  0  0.350831  0  3.976782  0  0  0.223029  0.3226  0  3.951443  0
C  C26  1  0.92071071  0.03275590  0.19816764  1  0  -0.051342  0  3.71542  0  0  -0.082277  0  3.975178  0  0  -0.07806  0  3.991513  0  0  -0.075435  -0.084807  0  3.964046  0
C  C27  1  0.07928759  0.96724563  0.80183396  1  0  -0.0513  0  3.715564  0  0  -0.082199  0  3.975329  0  0  -0.077982  0  3.991664  0  0  -0.075379  -0.084729  0  3.964201  0
C  C28  1  0.01047090  0.13746464  0.15848702  1  0  -0.16173  0  3.705026  0  0  -0.182976  0  3.965445  0  0  -0.191074  0  3.985723  0  0  -0.096641  -0.177797  0  3.951844  0
C  C29  1  0.98952618  0.86253804  0.84151302  1  0  -0.161835  0  3.705016  0  0  -0.183102  0  3.965428  0  0  -0.1912  0  3.985705  0  0  -0.096728  -0.177921  0  3.951831  0
C  C30  1  0.09019830  0.27168754  0.22915150  1  0  0.258384  0  3.761917  0  0  0.24239  0  4.011101  0  0  0.254019  0  4.032066  0  0  0.111103  0.234677  0  3.996781  0
C  C31  1  0.90980119  0.72831176  0.77084590  1  0  0.258407  0  3.76183  0  0  0.242421  0  4.010998  0  0  0.254051  0  4.031963  0  0  0.111198  0.234706  0  3.996689  0
C  C32  1  0.18577716  0.38592656  0.08253065  1  0  0.736389  0  3.799883  0  0  0.668152  0  4.101553  0  0  0.703081  0  4.097517  0  0  0.33924  0.644564  0  4.103496  0
C  C33  1  0.81422622  0.61407271  0.91746959  1  0  0.736393  0  3.799853  0  0  0.668188  0  4.101481  0  0  0.703116  0  4.097447  0  0  0.339229  0.6446  0  4.103422  0
C  C34  1  0.29598928  0.56598554  0.98030227  1  0  0.257034  0  3.752687  0  0  0.240966  0  4.006325  0  0  0.25313  0  4.025717  0  0  0.114414  0.232855  0  3.993174  0
C  C35  1  0.70401287  0.43401486  0.01969879  1  0  0.257042  0  3.752646  0  0  0.240976  0  4.006305  0  0  0.25314  0  4.025698  0  0  0.114416  0.232871  0  3.993147  0
C  C36  1  0.26076379  0.47126168  0.87326241  1  0  -0.149744  0  3.667969  0  0  -0.174939  0  3.932096  0  0  -0.181626  0  3.950266  0  0  -0.094115  -0.170753  0  3.920152  0
C  C37  1  0.73924357  0.52873871  0.12673843  1  0  -0.149726  0  3.668041  0  0  -0.17494  0  3.932178  0  0  -0.181628  0  3.950349  0  0  -0.094094  -0.170755  0  3.920235  0
C  C38  1  0.30321896  0.51714565  0.78119420  1  0  -0.036411  0  3.688886  0  0  -0.064188  0  3.944482  0  0  -0.059784  0  3.960648  0  0  -0.075207  -0.066864  0  3.933519  0
C  C39  1  0.69678183  0.48285365  0.21880334  1  0  -0.036522  0  3.688914  0  0  -0.064228  0  3.944526  0  0  -0.059823  0  3.960692  0  0  -0.075211  -0.066914  0  3.933568  0
C  C40  1  0.38452321  0.66095221  0.79260438  1  0  -0.00754  0  3.897197  0  0  0.013695  0  4.134081  0  0  0.007026  0  4.156643  0  0  -0.015589  0.01801  0  4.118908  0
C  C41  1  0.61548786  0.33904477  0.20739637  1  0  -0.007532  0  3.897084  0  0  0.013711  0  4.133941  0  0  0.007042  0  4.156499  0  0  -0.015609  0.018036  0  4.118757  0
C  C42  1  0.43100440  0.71297177  0.70146910  1  0  0.334119  0  3.719855  0  0  0.315351  0  3.97904  0  0  0.330451  0  3.996729  0  0  0.213193  0.304817  0  3.967476  0
C  C43  1  0.56899544  0.28703320  0.29852756  1  0  0.334017  0  3.71941  0  0  0.315243  0  3.978616  0  0  0.330344  0  3.996312  0  0  0.213135  0.304704  0  3.967049  0
C  C44  1  0.41932944  0.75827012  0.89791457  1  0  -0.115394  0  3.770025  0  0  -0.148319  0  4.021809  0  0  -0.146827  0  4.041303  0  0  -0.088209  -0.148905  0  4.008613  0
C  C45  1  0.58067491  0.24172349  0.10208494  1  0  -0.115401  0  3.769994  0  0  -0.148321  0  4.02177  0  0  -0.146827  0  4.041261  0  0  -0.088204  -0.148911  0  4.008574  0
C  C46  1  0.37392406  0.71197719  0.98879424  1  0  -0.006273  0  3.663712  0  0  0.007033  0  3.93468  0  0  0.004702  0  3.955978  0  0  -0.017586  0.008192  0  3.920456  0
C  C47  1  0.62607541  0.28802208  0.01120636  1  0  -0.006257  0  3.66357  0  0  0.007033  0  3.934548  0  0  0.004702  0  3.955846  0  0  -0.01756  0.008187  0  3.92033  0
Br  Br48  1  0.19904257  0.46013345  0.44871172  1  0  -0.031629  0  1.479905  0  0  -0.023295  0  1.79014  0  0  -0.029549  0  1.781815  0  0  0.075212  -0.018783  0  1.796046  0
Br  Br49  1  0.80095952  0.53986584  0.55128596  1  0  -0.03165  0  1.479889  0  0  -0.023329  0  1.790113  0  0  -0.029582  0  1.781784  0  0  0.07521  -0.018802  0  1.796027  0
Br  Br50  1  0.41964586  0.85247632  0.12700516  1  0  0.00863  0  1.337189  0  0  0.027225  0  1.593349  0  0  0.020592  0  1.588529  0  0  0.093871  0.03205  0  1.596758  0
Br  Br51  1  0.58035733  0.14751957  0.87299295  1  0  0.008606  0  1.337135  0  0  0.027217  0  1.593288  0  0  0.020583  0  1.588468  0  0  0.093851  0.032048  0  1.5967  0
N  N52  1  0.72470191  0.88206186  0.39144102  1  0  -0.443926  0  2.990534  0  0  -0.386892  0  3.30761  0  0  -0.404118  0  3.307381  0  0  -0.361702  -0.375623  0  3.308329  0
N  N53  1  0.27529125  0.11794083  0.60856018  1  0  -0.443799  0  2.990538  0  0  -0.38678  0  3.307637  0  0  -0.404006  0  3.307409  0  0  -0.361632  -0.37551  0  3.308347  0
N  N54  1  0.17461713  0.38213686  0.19206490  1  0  -0.48974  0  3.342114  0  0  -0.429716  0  3.582568  0  0  -0.453549  0  3.588927  0  0  -0.403345  -0.413215  0  3.577664  0
N  N55  1  0.82538263  0.61786695  0.80793479  1  0  -0.489848  0  3.342103  0  0  -0.429842  0  3.582548  0  0  -0.453677  0  3.588908  0  0  -0.403417  -0.413337  0  3.577652  0
N  N56  1  0.25965370  0.52375216  0.07480541  1  0  -0.476829  0  3.323317  0  0  -0.419747  0  3.566428  0  0  -0.443788  0  3.573409  0  0  -0.395713  -0.403179  0  3.561197  0
N  N57  1  0.74034317  0.47624713  0.92519411  1  0  -0.476821  0  3.32328  0  0  -0.419739  0  3.566386  0  0  -0.443779  0  3.573364  0  0  -0.3957  -0.403171  0  3.561157  0
N  N58  1  0.47195572  0.76034062  0.62859358  1  0  -0.44335  0  3.005209  0  0  -0.388379  0  3.319966  0  0  -0.4048  0  3.321683  0  0  -0.360631  -0.377659  0  3.319361  0
N  N59  1  0.52805123  0.23965297  0.37140782  1  0  -0.443301  0  3.004754  0  0  -0.388329  0  3.319521  0  0  -0.40475  0  3.321243  0  0  -0.360581  -0.377611  0  3.318917  0
N  N60  1  0.20516906  0.75536485  0.32717264  1  0  0.673217  0  4.174715  0  0  0.71493  0  4.450702  0  0  0.744336  0  4.45565  0  0  0.080439  0.695068  0  4.446857  0
N  N61  1  0.79482651  0.24463445  0.67282672  1  0  0.673363  0  4.174702  0  0  0.715054  0  4.450706  0  0  0.744461  0  4.455649  0  0  0.080476  0.695188  0  4.446862  0
O  O62  1  0.13748424  0.28047328  0.00280278  1  0  -0.560015  0  1.931862  0  0  -0.509082  0  2.145017  0  0  -0.530036  0  2.137688  0  0  -0.282779  -0.494701  0  2.149783  0
O  O63  1  0.86252422  0.71952371  0.99719688  1  0  -0.559927  0  1.931849  0  0  -0.509048  0  2.145024  0  0  -0.530002  0  2.137697  0  0  -0.282735  -0.494658  0  2.149782  0
O  O64  1  0.22807942  0.86547747  0.40977638  1  0  -0.474012  0  1.832081  0  0  -0.462406  0  2.076637  0  0  -0.481485  0  2.069562  0  0  -0.196813  -0.448774  0  2.081083  0
O  O65  1  0.77191876  0.13452182  0.59022407  1  0  -0.473986  0  1.832122  0  0  -0.462406  0  2.07672  0  0  -0.481484  0  2.069644  0  0  -0.196787  -0.448764  0  2.081156  0
O  O66  1  0.06007853  0.72190965  0.26558005  1  0  -0.423399  0  1.783956  0  0  -0.421753  0  1.999991  0  0  -0.436007  0  1.996026  0  0  -0.174809  -0.411579  0  2.002426  0
O  O67  1  0.93991695  0.27808849  0.73442395  1  0  -0.423502  0  1.78396  0  0  -0.421843  0  2.000011  0  0  -0.436103  0  1.996048  0  0  -0.174822  -0.411664  0  2.002454  0
O  O68  1  0.33685974  0.67485844  0.30773479  1  0  -0.542142  0  1.895081  0  0  -0.523847  0  2.137755  0  0  -0.541746  0  2.127502  0  0  -0.223224  -0.511077  0  2.144234  0
O  O69  1  0.66313591  0.32514199  0.69226235  1  0  -0.542209  0  1.895069  0  0  -0.523908  0  2.137752  0  0  -0.541808  0  2.127497  0  0  -0.223257  -0.511157  0  2.144291  0
