# generated using pymatgen
data_ZnH5CN5OF2
_symmetry_space_group_name_H-M   'P 1'
_cell_length_a   6.21380833
_cell_length_b   6.91597561
_cell_length_c   13.50643095
_cell_angle_alpha   89.99996453
_cell_angle_beta   89.99986376
_cell_angle_gamma   90.00001444
_symmetry_Int_Tables_number   1
_chemical_formula_structural   ZnH5CN5OF2
_chemical_formula_sum   'Zn4 H20 C4 N20 O4 F8'
_cell_volume   580.43274963
_cell_formula_units_Z   4
loop_
 _symmetry_equiv_pos_site_id
 _symmetry_equiv_pos_as_xyz
  1  'x, y, z'
loop_
 _atom_site_type_symbol
 _atom_site_label
 _atom_site_symmetry_multiplicity
 _atom_site_fract_x
 _atom_site_fract_y
 _atom_site_fract_z
 _atom_site_occupancy
 _atom_site_hle17_bader_spin_density
 _atom_site_hle17_ddec_charge
 _atom_site_hle17_ddec_spin_density
 _atom_site_hle17_ddec_sum_bond_order
 _atom_site_hle17_magmom
 _atom_site_hse06_10hf_bader_spin_density
 _atom_site_hse06_10hf_ddec_charge
 _atom_site_hse06_10hf_ddec_spin_density
 _atom_site_hse06_10hf_ddec_sum_bond_order
 _atom_site_hse06_10hf_magmom
 _atom_site_hse06_bader_spin_density
 _atom_site_hse06_ddec_charge
 _atom_site_hse06_ddec_spin_density
 _atom_site_hse06_ddec_sum_bond_order
 _atom_site_hse06_magmom
 _atom_site_pbe_bader_spin_density
 _atom_site_pbe_cm5_charge
 _atom_site_pbe_ddec_charge
 _atom_site_pbe_ddec_spin_density
 _atom_site_pbe_ddec_sum_bond_order
 _atom_site_pbe_magmom
Zn  Zn0  1  0.98633042  0.16101671  0.74829334  1  0  1.079504  0  1.832767  0  0  0.891085  0  2.305763  0  0  0.939212  0  2.243546  0  0  0.66146  0.857158  0  2.348706  0
Zn  Zn1  1  0.48632918  0.33898461  0.25170644  1  0  1.079459  0  1.832791  0  0  0.891043  0  2.305774  0  0  0.93917  0  2.243559  0  0  0.66144  0.85712  0  2.348718  0
Zn  Zn2  1  0.01367094  0.66101692  0.75170698  1  0  1.079474  0  1.832808  0  0  0.891054  0  2.305802  0  0  0.93918  0  2.243582  0  0  0.661449  0.857124  0  2.348743  0
Zn  Zn3  1  0.51366998  0.83898494  0.24829316  1  0  1.0795  0  1.832765  0  0  0.891102  0  2.305732  0  0  0.939228  0  2.243517  0  0  0.661463  0.857185  0  2.348677  0
H  H4  1  0.53515624  0.14333586  0.73998274  1  0  0.437175  0  0.860795  0  0  0.401173  0  0.931254  0  0  0.413144  0  0.913742  0  0  0.269292  0.392704  0  0.943616  0
H  H5  1  0.03515657  0.35666392  0.26001754  1  0  0.437158  0  0.860811  0  0  0.401157  0  0.931271  0  0  0.413128  0  0.913759  0  0  0.269308  0.392685  0  0.943637  0
H  H6  1  0.46484512  0.64333761  0.76001685  1  0  0.437128  0  0.860859  0  0  0.401118  0  0.931333  0  0  0.41309  0  0.91382  0  0  0.269264  0.392649  0  0.943695  0
H  H7  1  0.96484259  0.85666435  0.23998279  1  0  0.437164  0  0.860809  0  0  0.401163  0  0.93127  0  0  0.413134  0  0.913757  0  0  0.269297  0.392694  0  0.943631  0
H  H8  1  0.65438608  0.95047293  0.70169633  1  0  0.430481  0  0.871494  0  0  0.394608  0  0.942749  0  0  0.406459  0  0.925323  0  0  0.268782  0.386241  0  0.955017  0
H  H9  1  0.15438290  0.54952896  0.29830291  1  0  0.430483  0  0.87148  0  0  0.394614  0  0.942729  0  0  0.406463  0  0.925306  0  0  0.268803  0.38625  0  0.954991  0
H  H10  1  0.34561698  0.45047396  0.79830316  1  0  0.430399  0  0.871579  0  0  0.394498  0  0.942872  0  0  0.406348  0  0.925448  0  0  0.268758  0.386132  0  0.955138  0
H  H11  1  0.84561456  0.04952878  0.20169604  1  0  0.430499  0  0.871461  0  0  0.394626  0  0.942716  0  0  0.406475  0  0.925294  0  0  0.268799  0.386257  0  0.954984  0
H  H12  1  0.17647542  0.87580535  0.39900080  1  0  0.340326  0  0.915765  0  0  0.307163  0  0.995096  0  0  0.318444  0  0.984434  0  0  0.297568  0.299183  0  1.002675  0
H  H13  1  0.67647741  0.62419364  0.60099842  1  0  0.340394  0  0.9157  0  0  0.307218  0  0.995045  0  0  0.3185  0  0.984381  0  0  0.29757  0.299236  0  1.002627  0
H  H14  1  0.82352375  0.37580384  0.10099952  1  0  0.340334  0  0.915776  0  0  0.30717  0  0.995105  0  0  0.318451  0  0.984442  0  0  0.297555  0.299185  0  1.002687  0
H  H15  1  0.32352394  0.12419600  0.89900118  1  0  0.340318  0  0.915777  0  0  0.307161  0  0.9951  0  0  0.318442  0  0.984439  0  0  0.297565  0.299179  0  1.00268  0
H  H16  1  0.10471542  0.35406831  0.54775599  1  0  0.355812  0  0.899276  0  0  0.329763  0  0.976475  0  0  0.338377  0  0.968157  0  0  0.294109  0.323583  0  0.982512  0
H  H17  1  0.60471336  0.14593004  0.45224495  1  0  0.355803  0  0.899273  0  0  0.329756  0  0.976469  0  0  0.338369  0  0.968154  0  0  0.294112  0.323578  0  0.982507  0
H  H18  1  0.89528599  0.85406847  0.95224501  1  0  0.355816  0  0.899301  0  0  0.329752  0  0.976513  0  0  0.338368  0  0.968193  0  0  0.294102  0.323571  0  0.982551  0
H  H19  1  0.39528413  0.64593202  0.04775471  1  0  0.355813  0  0.899294  0  0  0.329758  0  0.976491  0  0  0.338372  0  0.968174  0  0  0.294115  0.323579  0  0.982528  0
H  H20  1  0.15721494  0.28651176  0.42375356  1  0  0.3587  0  0.899897  0  0  0.339183  0  0.96031  0  0  0.347358  0  0.953403  0  0  0.301129  0.333381  0  0.965232  0
H  H21  1  0.65721548  0.21348804  0.57624584  1  0  0.358719  0  0.899877  0  0  0.339205  0  0.960281  0  0  0.347379  0  0.953375  0  0  0.301139  0.333403  0  0.965203  0
H  H22  1  0.84278420  0.78650947  0.07624679  1  0  0.358779  0  0.899858  0  0  0.339211  0  0.96033  0  0  0.347387  0  0.953426  0  0  0.301144  0.333409  0  0.965252  0
H  H23  1  0.34278429  0.71348956  0.92375299  1  0  0.358785  0  0.899883  0  0  0.339221  0  0.96035  0  0  0.347395  0  0.953446  0  0  0.301152  0.333418  0  0.965272  0
C  C24  1  0.13434461  0.06904274  0.52866659  1  0  0.608927  0  3.790861  0  0  0.550899  0  4.071731  0  0  0.576284  0  4.079768  0  0  0.359436  0.533784  0  4.066174  0
C  C25  1  0.63434252  0.43095561  0.47133283  1  0  0.609031  0  3.790726  0  0  0.550947  0  4.071665  0  0  0.576332  0  4.0797  0  0  0.35944  0.533833  0  4.066107  0
C  C26  1  0.86565673  0.56904287  0.97133376  1  0  0.608959  0  3.790836  0  0  0.550926  0  4.071692  0  0  0.576314  0  4.079726  0  0  0.359433  0.533811  0  4.066134  0
C  C27  1  0.36565505  0.93095617  0.02866674  1  0  0.608927  0  3.790846  0  0  0.550895  0  4.071714  0  0  0.576282  0  4.079749  0  0  0.359451  0.53378  0  4.066156  0
N  N28  1  0.09803329  0.01327181  0.62337632  1  0  -0.396684  0  3.080167  0  0  -0.336538  0  3.368648  0  0  -0.357268  0  3.377973  0  0  -0.24394  -0.322678  0  3.362293  0
N  N29  1  0.59803171  0.48672799  0.37662389  1  0  -0.396624  0  3.08014  0  0  -0.336458  0  3.368631  0  0  -0.357187  0  3.377957  0  0  -0.243911  -0.322598  0  3.362273  0
N  N30  1  0.90196803  0.51327206  0.87662405  1  0  -0.396678  0  3.080109  0  0  -0.336541  0  3.368594  0  0  -0.357268  0  3.377917  0  0  -0.243944  -0.322679  0  3.362237  0
N  N31  1  0.40196588  0.98672844  0.12337566  1  0  -0.396653  0  3.080183  0  0  -0.336517  0  3.368683  0  0  -0.357246  0  3.378007  0  0  -0.24393  -0.322655  0  3.362322  0
N  N32  1  0.10170909  0.81783508  0.62320072  1  0  -0.082988  0  3.254484  0  0  -0.040557  0  3.56758  0  0  -0.044098  0  3.576422  0  0  -0.094604  -0.037956  0  3.561536  0
N  N33  1  0.60170581  0.68216390  0.37679932  1  0  -0.083056  0  3.254492  0  0  -0.040636  0  3.567611  0  0  -0.044177  0  3.576455  0  0  -0.094613  -0.038034  0  3.561567  0
N  N34  1  0.89829232  0.31783470  0.87679955  1  0  -0.083017  0  3.254432  0  0  -0.040584  0  3.567525  0  0  -0.044126  0  3.576369  0  0  -0.094616  -0.037984  0  3.561482  0
N  N35  1  0.39829169  0.18216516  0.12320032  1  0  -0.083035  0  3.254447  0  0  -0.040609  0  3.567549  0  0  -0.044149  0  3.57639  0  0  -0.094626  -0.038008  0  3.561506  0
N  N36  1  0.13670556  0.74903357  0.53590082  1  0  -0.013039  0  2.892262  0  0  -0.033111  0  3.188572  0  0  -0.026342  0  3.196932  0  0  -0.077544  -0.037443  0  3.182956  0
N  N37  1  0.63670346  0.75096542  0.46409919  1  0  -0.012965  0  2.892263  0  0  -0.033048  0  3.188573  0  0  -0.026282  0  3.196937  0  0  -0.077536  -0.037383  0  3.182957  0
N  N38  1  0.86329583  0.24903307  0.96409948  1  0  -0.012972  0  2.892208  0  0  -0.03303  0  3.188487  0  0  -0.026262  0  3.196848  0  0  -0.077501  -0.037364  0  3.182873  0
N  N39  1  0.36329567  0.25096678  0.03590044  1  0  -0.01297  0  2.892177  0  0  -0.033022  0  3.188465  0  0  -0.026253  0  3.196823  0  0  -0.077495  -0.037356  0  3.182848  0
N  N40  1  0.15753676  0.90342542  0.47555249  1  0  -0.314534  0  3.315518  0  0  -0.252077  0  3.572077  0  0  -0.270442  0  3.580693  0  0  -0.255841  -0.239939  0  3.566386  0
N  N41  1  0.65753592  0.59657358  0.52444675  1  0  -0.314739  0  3.315537  0  0  -0.252239  0  3.572103  0  0  -0.270603  0  3.580718  0  0  -0.255872  -0.2401  0  3.566418  0
N  N42  1  0.84246402  0.40342400  0.02444709  1  0  -0.314634  0  3.315571  0  0  -0.252182  0  3.572145  0  0  -0.270546  0  3.580757  0  0  -0.255881  -0.240044  0  3.566461  0
N  N43  1  0.34246382  0.09657585  0.97555285  1  0  -0.314575  0  3.315451  0  0  -0.25214  0  3.572046  0  0  -0.270505  0  3.58066  0  0  -0.255887  -0.240003  0  3.566358  0
N  N44  1  0.14882858  0.25044016  0.49741552  1  0  -0.692289  0  3.106802  0  0  -0.658554  0  3.35263  0  0  -0.680378  0  3.347457  0  0  -0.573465  -0.643549  0  3.356396  0
N  N45  1  0.64882951  0.24955964  0.50258389  1  0  -0.692319  0  3.106736  0  0  -0.658573  0  3.35259  0  0  -0.680395  0  3.347416  0  0  -0.573473  -0.643569  0  3.356355  0
N  N46  1  0.85117055  0.75043796  0.00258485  1  0  -0.692355  0  3.10683  0  0  -0.658565  0  3.352698  0  0  -0.680393  0  3.347526  0  0  -0.573446  -0.64356  0  3.356464  0
N  N47  1  0.35116866  0.74956108  0.99741492  1  0  -0.69238  0  3.106859  0  0  -0.658595  0  3.352731  0  0  -0.680421  0  3.347559  0  0  -0.57349  -0.64359  0  3.356495  0
O  O48  1  0.66299581  0.09534267  0.70181271  1  0  -0.84859  0  1.921259  0  0  -0.782207  0  2.126996  0  0  -0.805133  0  2.090818  0  0  -0.573536  -0.765935  0  2.151981  0
O  O49  1  0.16299434  0.40465858  0.29818743  1  0  -0.848575  0  1.921278  0  0  -0.782183  0  2.126991  0  0  -0.805109  0  2.090812  0  0  -0.573569  -0.765912  0  2.151975  0
O  O50  1  0.33700714  0.59534434  0.79818690  1  0  -0.848464  0  1.921315  0  0  -0.782032  0  2.127087  0  0  -0.804961  0  2.090911  0  0  -0.573489  -0.76576  0  2.152068  0
O  O51  1  0.83700483  0.90465759  0.20181289  1  0  -0.848604  0  1.921245  0  0  -0.782197  0  2.126967  0  0  -0.805125  0  2.090786  0  0  -0.573555  -0.765926  0  2.151951  0
F  F52  1  0.32383965  0.21924990  0.79471973  1  0  -0.621994  0  0.855697  0  0  -0.550568  0  1.025427  0  0  -0.572072  0  1.001627  0  0  -0.289717  -0.535142  0  1.041866  0
F  F53  1  0.82383889  0.28074995  0.20528023  1  0  -0.622004  0  0.855695  0  0  -0.550594  0  1.025428  0  0  -0.572098  0  1.001627  0  0  -0.289707  -0.535152  0  1.041854  0
F  F54  1  0.67616173  0.71925175  0.70527910  1  0  -0.622008  0  0.855684  0  0  -0.550592  0  1.025422  0  0  -0.572097  0  1.001621  0  0  -0.289699  -0.535165  0  1.04186  0
F  F55  1  0.17615703  0.78075014  0.29471938  1  0  -0.621998  0  0.855665  0  0  -0.550593  0  1.025396  0  0  -0.572094  0  1.001596  0  0  -0.289721  -0.535177  0  1.041839  0
F  F56  1  0.01269714  0.91392262  0.83000742  1  0  -0.640793  0  0.8964  0  0  -0.560243  0  1.122957  0  0  -0.583522  0  1.095891  0  0  -0.34314  -0.543365  0  1.141182  0
F  F57  1  0.51269811  0.58607779  0.16999272  1  0  -0.640771  0  0.896373  0  0  -0.560223  0  1.122917  0  0  -0.583505  0  1.095856  0  0  -0.343132  -0.54336  0  1.14115  0
F  F58  1  0.98730430  0.41392395  0.66999356  1  0  -0.640782  0  0.896399  0  0  -0.56023  0  1.122951  0  0  -0.583511  0  1.095886  0  0  -0.343121  -0.54336  0  1.141185  0
F  F59  1  0.48729936  0.08607737  0.33000696  1  0  -0.640778  0  0.896389  0  0  -0.560231  0  1.122935  0  0  -0.583513  0  1.095877  0  0  -0.343133  -0.543366  0  1.141159  0
