# generated using pymatgen
data_CuH20C10(NO2)2
_symmetry_space_group_name_H-M   'P 1'
_cell_length_a   7.27509976
_cell_length_b   14.65156935
_cell_length_c   15.24026151
_cell_angle_alpha   115.73724244
_cell_angle_beta   89.99973401
_cell_angle_gamma   89.99933188
_symmetry_Int_Tables_number   1
_chemical_formula_structural   CuH20C10(NO2)2
_chemical_formula_sum   'Cu4 H80 C40 N8 O16'
_cell_volume   1463.32725172
_cell_formula_units_Z   4
loop_
 _symmetry_equiv_pos_site_id
 _symmetry_equiv_pos_as_xyz
  1  'x, y, z'
loop_
 _atom_site_type_symbol
 _atom_site_label
 _atom_site_symmetry_multiplicity
 _atom_site_fract_x
 _atom_site_fract_y
 _atom_site_fract_z
 _atom_site_occupancy
 _atom_site_pbe_bader_charge
 _atom_site_pbe_bader_spin_density
 _atom_site_pbe_cm5_charge
 _atom_site_pbe_ddec_charge
 _atom_site_pbe_ddec_spin_density
 _atom_site_pbe_ddec_sum_bond_order
 _atom_site_pbe_magmom
Cu  Cu0  1  0.77898383  0.85090909  0.99286504  1  1.007182  0.546926  0.709479  0.738615  0.710016  2.141265  0.546
Cu  Cu1  1  0.27897492  0.14909865  0.50714248  1  1.007217  0.54688  0.709555  0.738554  0.709957  2.141256  0.546
Cu  Cu2  1  0.22104539  0.14907880  0.00714490  1  1.006845  0.546815  0.70937  0.738374  0.709879  2.1411  0.546
Cu  Cu3  1  0.72101994  0.85091436  0.49285122  1  1.006866  0.546804  0.709329  0.738272  0.709862  2.140873  0.546
H  H4  1  0.76901339  0.95790546  0.90467639  1  0.512795  0.000288  0.285435  0.295463  0.000519  1.003518  0.001
H  H5  1  0.26903224  0.04208876  0.59532708  1  0.512807  0.000288  0.285405  0.295357  0.000521  1.003855  0.001
H  H6  1  0.23101171  0.04209005  0.09533856  1  0.51287  0.000287  0.285387  0.295467  0.000519  1.003698  0.001
H  H7  1  0.73095987  0.95790682  0.40465968  1  0.512641  0.000287  0.285335  0.295348  0.000519  1.003732  0.001
H  H8  1  0.55451088  0.92274837  0.90723827  1  0.447827  -0.000313  0.300124  0.297975  -0.000111  0.935022  0.0
H  H9  1  0.05452070  0.07724900  0.59275911  1  0.447932  -0.000314  0.300122  0.29793  -0.000112  0.934966  0.0
H  H10  1  0.44550872  0.07725908  0.09277422  1  0.44796  -0.000314  0.300108  0.297934  -0.000113  0.93487  0.0
H  H11  1  0.94546316  0.92274653  0.40722566  1  0.448318  -0.000313  0.300201  0.298006  -0.000111  0.934982  0.0
H  H12  1  0.70852836  0.84077886  0.73930553  1  0.096131  0.005274  0.106371  0.095662  0.002923  1.009604  0.004
H  H13  1  0.20854573  0.15922196  0.76070137  1  0.095999  0.005276  0.106387  0.095646  0.002923  1.009558  0.004
H  H14  1  0.29147612  0.15923240  0.26070914  1  0.096223  0.005274  0.106377  0.09567  0.002923  1.009539  0.004
H  H15  1  0.79144776  0.84076993  0.23928785  1  0.096113  0.005272  0.10629  0.095583  0.002922  1.009542  0.004
H  H16  1  0.59730314  0.75988775  0.78032825  1  0.040061  0.000452  0.106802  0.082567  0.000102  0.975688  0.0
H  H17  1  0.09730802  0.24010934  0.71967219  1  0.040161  0.000452  0.106829  0.0826  0.000102  0.975669  0.0
H  H18  1  0.40269310  0.24011653  0.21967707  1  0.040074  0.000452  0.106805  0.082571  0.000102  0.975735  0.0
H  H19  1  0.90268271  0.75988480  0.28031727  1  0.040208  0.000452  0.106813  0.082644  0.000102  0.975728  0.0
H  H20  1  0.91802547  0.70005662  0.72165616  1  0.058269  0.003323  0.107052  0.091163  0.001775  0.964133  0.002
H  H21  1  0.41803806  0.29994081  0.77834559  1  0.058324  0.003322  0.107045  0.091162  0.001775  0.964092  0.002
H  H22  1  0.08196801  0.29994381  0.27834500  1  0.058261  0.003322  0.107053  0.091159  0.001775  0.964175  0.002
H  H23  1  0.58196092  0.70004823  0.22164971  1  0.058086  0.003323  0.107022  0.091163  0.001775  0.964195  0.002
H  H24  1  0.00550014  0.81910971  0.80665576  1  0.058133  2.7e-05  0.115526  0.101222  -0.000143  0.980394  0.0
H  H25  1  0.50551216  0.18089094  0.69333583  1  0.05805  2.8e-05  0.115528  0.101197  -0.000142  0.980418  0.0
H  H26  1  0.99450159  0.18089086  0.19335137  1  0.05808  2.7e-05  0.115531  0.101249  -0.000143  0.980371  0.0
H  H27  1  0.49447857  0.81909989  0.30664049  1  0.057999  2.7e-05  0.115518  0.10125  -0.000143  0.980331  0.0
H  H28  1  0.83126215  0.58045640  0.77779407  1  0.039014  0.006931  0.093264  0.05787  0.003654  1.004171  0.004
H  H29  1  0.33124912  0.41955007  0.72221019  1  0.038948  0.006933  0.093236  0.057822  0.003655  1.004176  0.004
H  H30  1  0.16872446  0.41954089  0.22220124  1  0.039033  0.006932  0.09325  0.057842  0.003654  1.004194  0.004
H  H31  1  0.66873199  0.58045565  0.27779242  1  0.038917  0.006935  0.093251  0.057892  0.003656  1.004145  0.004
H  H32  1  0.64971975  0.66162999  0.84392953  1  0.044778  0.001046  0.102692  0.067765  0.000272  1.022229  0.001
H  H33  1  0.14970234  0.33837575  0.65607423  1  0.044708  0.001046  0.102664  0.067715  0.000271  1.022134  0.001
H  H34  1  0.35027373  0.33837035  0.15606765  1  0.044695  0.001046  0.102671  0.067732  0.000271  1.02229  0.001
H  H35  1  0.85027052  0.66162992  0.34392640  1  0.044895  0.001047  0.102656  0.067695  0.000272  1.022235  0.001
H  H36  1  0.69440618  0.53799372  0.90716674  1  0.022636  -0.0001  0.089729  0.123465  -0.000103  0.999646  0.0
H  H37  1  0.19439063  0.46201085  0.59283579  1  0.022681  -0.0001  0.089681  0.1234  -0.000103  0.999647  0.0
H  H38  1  0.30557218  0.46199742  0.09282284  1  0.022636  -0.0001  0.08966  0.123362  -0.000103  0.999663  0.0
H  H39  1  0.80560972  0.53799778  0.40716339  1  0.022467  -0.0001  0.089692  0.123438  -0.000103  0.999665  0.0
H  H40  1  0.76318694  0.65801585  0.99862535  1  0.096037  3e-05  0.094386  0.141675  -0.000101  1.024439  0.0
H  H41  1  0.26317088  0.34198737  0.50137582  1  0.096023  3e-05  0.094381  0.141657  -0.000101  1.024477  0.0
H  H42  1  0.23679830  0.34197162  0.00136736  1  0.095945  3e-05  0.094364  0.141683  -0.000101  1.024401  0.0
H  H43  1  0.73681711  0.65801527  0.49862360  1  0.09608  3e-05  0.094398  0.141689  -0.000101  1.024464  0.0
H  H44  1  0.93174133  0.56616891  0.92956454  1  0.021951  -2e-06  0.087106  0.118647  -1.7e-05  1.003294  0.0
H  H45  1  0.43173076  0.43383512  0.57043588  1  0.022055  -2e-06  0.087092  0.118623  -1.7e-05  1.003252  0.0
H  H46  1  0.06823703  0.43381849  0.07042552  1  0.002994  -1e-06  0.087036  0.118586  -1.7e-05  1.003277  0.0
H  H47  1  0.56826960  0.56616230  0.42956473  1  0.021964  -2e-06  0.08709  0.118626  -1.7e-05  1.003208  0.0
H  H48  1  0.10577849  0.69948523  0.95632603  1  0.085862  0.00088  0.109652  0.095829  0.000317  0.989469  0.001
H  H49  1  0.60577540  0.30052007  0.54367570  1  0.085837  0.000881  0.109664  0.09584  0.000317  0.989489  0.001
H  H50  1  0.89421087  0.30050154  0.04366902  1  0.086042  0.00088  0.109607  0.095666  0.000317  0.989611  0.001
H  H51  1  0.39420572  0.69948400  0.45632101  1  0.086026  0.000881  0.109616  0.095784  0.000317  0.989454  0.001
H  H52  1  0.17008601  0.79074910  0.91686309  1  0.043711  0.000827  0.108605  0.09241  0.000262  0.980832  0.0
H  H53  1  0.67007642  0.20925559  0.58313561  1  0.04396  0.000827  0.108654  0.092438  0.000262  0.980902  0.0
H  H54  1  0.82992122  0.20923697  0.08313365  1  0.043774  0.000827  0.108621  0.092557  0.000262  0.980556  0.0
H  H55  1  0.32990332  0.79075306  0.41686423  1  0.043841  0.000828  0.108591  0.092438  0.000262  0.980695  0.0
H  H56  1  0.22247392  0.65402867  0.74633314  1  0.026552  -4.1e-05  0.087036  0.113919  -0.000113  1.020105  0.0
H  H57  1  0.72246508  0.34596431  0.75366469  1  0.026637  -4.1e-05  0.087041  0.113935  -0.000113  1.02011  0.0
H  H58  1  0.77751269  0.34595133  0.25366051  1  0.026393  -4.1e-05  0.087053  0.113916  -0.000113  1.020175  0.0
H  H59  1  0.27748716  0.65404666  0.24633805  1  0.026349  -4.1e-05  0.0871  0.113888  -0.000113  1.020221  0.0
H  H60  1  0.14339824  0.56087916  0.78298594  1  -0.012893  0.000244  0.086082  0.114166  0.000113  1.028914  0.0
H  H61  1  0.64339722  0.43911916  0.71701947  1  -0.012932  0.000244  0.086092  0.114197  0.000113  1.028941  0.0
H  H62  1  0.85658287  0.43910479  0.21701652  1  -0.012605  0.000244  0.086046  0.114162  0.000113  1.028996  0.0
H  H63  1  0.35656327  0.56088860  0.28297477  1  -0.012754  0.000244  0.086028  0.1141  0.000113  1.029105  0.0
H  H64  1  0.34673050  0.62994676  0.83451710  1  0.055576  0.000925  0.093709  0.133359  0.000464  1.005124  0.0
H  H65  1  0.84672055  0.37004670  0.66548193  1  0.055711  0.000925  0.09374  0.133426  0.000464  1.005122  0.0
H  H66  1  0.65326023  0.37003178  0.16547860  1  0.055639  0.000925  0.09379  0.133448  0.000464  1.005122  0.0
H  H67  1  0.15324544  0.62996511  0.33452443  1  0.055478  0.000925  0.09377  0.133432  0.000464  1.005125  0.0
H  H68  1  0.21374671  0.78640090  0.16016248  1  0.065929  2.5e-05  0.096605  0.110563  -4.9e-05  0.992515  0.0
H  H69  1  0.71372088  0.21360992  0.33984793  1  0.065829  2.6e-05  0.096655  0.110659  -4.9e-05  0.992747  0.0
H  H70  1  0.78631550  0.21359687  0.83985272  1  0.066072  2.6e-05  0.096546  0.110613  -4.9e-05  0.992455  0.0
H  H71  1  0.28626298  0.78638342  0.66013924  1  0.065603  2.5e-05  0.096597  0.110644  -4.9e-05  0.992651  0.0
H  H72  1  0.12186858  0.89739977  0.25610135  1  0.074336  0.001087  0.100271  0.120174  0.000769  1.014008  0.0
H  H73  1  0.62186132  0.10261446  0.24389424  1  0.073597  0.001088  0.100224  0.120186  0.00077  1.01396  0.0
H  H74  1  0.87817439  0.10259421  0.74388148  1  0.074154  0.001088  0.100153  0.120113  0.00077  1.013939  0.0
H  H75  1  0.37813766  0.89738004  0.75610980  1  0.073632  0.001089  0.100158  0.120099  0.000771  1.013932  0.0
H  H76  1  0.34252622  0.00435879  0.21469676  1  0.046237  0.000412  0.099266  0.109471  0.000352  1.024161  0.0
H  H77  1  0.84253097  0.99565806  0.28532886  1  0.045831  0.000414  0.099242  0.109428  0.000353  1.023998  0.0
H  H78  1  0.65748514  0.99563545  0.78529668  1  0.046593  0.000412  0.099279  0.109597  0.000352  1.024083  0.0
H  H79  1  0.15748451  0.00435697  0.71468665  1  0.045928  0.000412  0.099227  0.109478  0.000352  1.02406  0.0
H  H80  1  0.45030639  0.92350498  0.25461882  1  0.057308  0.000716  0.101317  0.119401  0.000278  0.998429  0.0
H  H81  1  0.95030797  0.07651390  0.24540406  1  0.057614  0.000718  0.101263  0.119328  0.000279  0.998216  0.0
H  H82  1  0.54970771  0.07652671  0.74540335  1  0.057387  0.000719  0.101245  0.119394  0.00028  0.998017  0.0
H  H83  1  0.04968276  0.92349283  0.75460946  1  0.057619  0.000719  0.101247  0.119316  0.00028  0.998174  0.0
C  C84  1  0.71134211  0.81391047  0.79646506  1  0.253624  0.001834  -0.076288  -0.014233  0.001034  3.922616  0.0
C  C85  1  0.21134977  0.18608800  0.70353893  1  0.253614  0.001834  -0.076342  -0.014292  0.001035  3.922235  0.0
C  C86  1  0.28865962  0.18609547  0.20354683  1  0.253322  0.001835  -0.076351  -0.014351  0.001035  3.922517  0.0
C  C87  1  0.78863547  0.81390155  0.29644673  1  0.252957  0.001834  -0.076255  -0.014372  0.001035  3.922302  0.0
C  C88  1  0.89485221  0.76367541  0.79387044  1  0.248968  0.000397  -0.069643  -0.098008  -1.1e-05  3.8924  -0.001
C  C89  1  0.39486006  0.23632364  0.70612808  1  0.249053  0.000398  -0.069606  -0.098007  -1e-05  3.892167  -0.001
C  C90  1  0.10514814  0.23632138  0.20613518  1  0.249203  0.000398  -0.069623  -0.097918  -1e-05  3.892279  -0.001
C  C91  1  0.60512930  0.76366895  0.29385879  1  0.249597  0.000397  -0.069523  -0.097912  -1.1e-05  3.89245  -0.001
C  C92  1  0.79168092  0.63966078  0.85021460  1  0.233833  0.000363  -0.076082  -0.027015  7.5e-05  3.935515  -0.001
C  C93  1  0.29167130  0.36034147  0.64978742  1  0.233834  0.000366  -0.076001  -0.026951  7.6e-05  3.935193  -0.001
C  C94  1  0.20830707  0.36033125  0.14978058  1  0.233822  0.000367  -0.076092  -0.026981  7.5e-05  3.935606  -0.001
C  C95  1  0.70830431  0.63966496  0.35021351  1  0.233901  0.000363  -0.076116  -0.027072  7.4e-05  3.935569  -0.001
C  C96  1  0.79720673  0.59855599  0.92624921  1  -0.072994  0.000284  -0.246128  -0.385981  8e-06  3.950488  0.0
C  C97  1  0.29719001  0.40144920  0.57375266  1  -0.073123  0.000285  -0.24609  -0.385903  9e-06  3.950334  0.0
C  C98  1  0.20277438  0.40143299  0.07374410  1  -0.053916  0.000284  -0.245994  -0.385798  9e-06  3.950372  0.0
C  C99  1  0.70279660  0.59855569  0.42624700  1  -0.072794  0.000284  -0.246062  -0.385907  8e-06  3.950372  0.0
C  C100  1  0.10320130  0.71673209  0.89332827  1  0.271024  -0.000475  -0.077762  -0.031249  -0.000612  3.900003  -0.002
C  C101  1  0.60320489  0.28327096  0.60667257  1  0.270767  -0.000474  -0.077834  -0.031318  -0.00061  3.900126  -0.002
C  C102  1  0.89678806  0.28325626  0.10667004  1  0.270728  -0.000473  -0.077667  -0.031111  -0.00061  3.899709  -0.002
C  C103  1  0.39678722  0.71673690  0.39332565  1  0.270858  -0.000475  -0.077545  -0.031025  -0.000613  3.899608  -0.002
C  C104  1  0.20821699  0.63576400  0.80871662  1  -0.060709  0.005829  -0.245984  -0.38435  0.004145  3.946028  0.004
C  C105  1  0.70820831  0.36423519  0.69128503  1  -0.060903  0.005827  -0.245974  -0.38441  0.004144  3.946178  0.004
C  C106  1  0.79177237  0.36422214  0.19128276  1  -0.060921  0.005827  -0.246074  -0.384467  0.004144  3.946264  0.004
C  C107  1  0.29175906  0.63577344  0.30871415  1  -0.060526  0.00583  -0.246093  -0.384384  0.004145  3.946235  0.004
C  C108  1  0.05595695  0.87920645  0.11337062  1  1.542492  -0.000741  0.202452  0.612827  -0.001403  4.154525  -0.002
C  C109  1  0.55591771  0.12079200  0.38663196  1  1.543319  -0.000738  0.202576  0.612823  -0.001401  4.154552  -0.002
C  C110  1  0.94410389  0.12076374  0.88665194  1  1.542485  -0.000739  0.202746  0.613134  -0.001403  4.154139  -0.002
C  C111  1  0.44410601  0.87922504  0.61334235  1  1.543282  -0.000738  0.202783  0.613295  -0.001403  4.154941  -0.002
C  C112  1  0.18938585  0.86781318  0.18444669  1  -0.05526  0.00776  -0.169958  -0.284837  0.005654  3.96248  0.006
C  C113  1  0.68936900  0.13219528  0.31555102  1  -0.054066  0.007768  -0.170149  -0.285247  0.005661  3.962212  0.006
C  C114  1  0.81068598  0.13217901  0.81555511  1  -0.054343  0.00777  -0.170109  -0.285355  0.005664  3.961035  0.006
C  C115  1  0.31064785  0.86780328  0.68443495  1  -0.053757  0.00778  -0.170318  -0.285602  0.00567  3.961329  0.006
C  C116  1  0.36856346  0.92407450  0.19414080  1  -0.01487  0.010955  -0.16933  -0.267793  0.007991  3.935945  0.009
C  C117  1  0.86855487  0.07594347  0.30587799  1  -0.015035  0.010962  -0.169179  -0.267363  0.007997  3.935221  0.009
C  C118  1  0.63146302  0.07592997  0.80587248  1  -0.01602  0.010971  -0.169319  -0.267707  0.008004  3.934641  0.009
C  C119  1  0.13143587  0.92406828  0.69412572  1  -0.015194  0.010982  -0.169315  -0.267542  0.008011  3.934557  0.009
C  C120  1  0.48896548  0.88001179  0.10371900  1  1.545967  -0.000903  0.188474  0.610669  -0.001674  4.161478  -0.003
C  C121  1  0.98893579  0.12003466  0.39630954  1  1.547068  -0.000893  0.188355  0.610327  -0.00167  4.16177  -0.003
C  C122  1  0.51107611  0.12001786  0.89631154  1  1.546714  -0.000895  0.188329  0.610251  -0.001674  4.161404  -0.003
C  C123  1  0.01102470  0.87998596  0.60368918  1  1.546022  -0.000897  0.188403  0.610484  -0.001675  4.161216  -0.003
N  N124  1  0.68664414  0.89582749  0.89542085  1  -1.143465  0.098696  -0.651584  -0.579168  0.064602  3.448773  0.08
N  N125  1  0.18666972  0.10416963  0.60458070  1  -1.143412  0.098707  -0.651562  -0.578949  0.064607  3.44883  0.08
N  N126  1  0.31335896  0.10417102  0.10459398  1  -1.143347  0.098682  -0.65147  -0.578924  0.064593  3.448561  0.08
N  N127  1  0.81332788  0.89582744  0.39540534  1  -1.14323  0.098688  -0.651553  -0.57893  0.064594  3.448538  0.08
N  N128  1  0.90780462  0.73095687  0.87324455  1  -0.982787  0.102129  -0.34502  -0.118634  0.067966  3.481139  0.088
N  N129  1  0.40780008  0.26904427  0.62675215  1  -0.982746  0.102112  -0.345117  -0.118606  0.067956  3.480859  0.088
N  N130  1  0.09219161  0.26903297  0.12675304  1  -0.982908  0.10211  -0.344974  -0.118811  0.067957  3.481277  0.088
N  N131  1  0.59218103  0.73095512  0.37323678  1  -0.983351  0.102128  -0.345101  -0.118767  0.067967  3.48136  0.088
O  O132  1  0.91425112  0.82036011  0.09015133  1  -1.137931  0.086488  -0.336384  -0.554533  0.056289  2.328407  0.077
O  O133  1  0.41421990  0.17964189  0.40984325  1  -1.138511  0.086492  -0.336464  -0.554571  0.056295  2.3285  0.077
O  O134  1  0.08582758  0.17962325  0.90982661  1  -1.137566  0.086538  -0.336391  -0.554727  0.056324  2.327616  0.078
O  O135  1  0.58578183  0.82036262  0.59017135  1  -1.138087  0.086522  -0.336451  -0.554721  0.056312  2.32825  0.078
O  O136  1  0.08213747  0.94224896  0.07867530  1  -1.189694  0.002662  -0.32162  -0.569447  0.001001  2.18655  0.003
O  O137  1  0.58211448  0.05776187  0.42132100  1  -1.189979  0.00266  -0.32152  -0.569146  0.001  2.187089  0.003
O  O138  1  0.91788213  0.05772703  0.92130823  1  -1.190251  0.002644  -0.321539  -0.569027  0.000989  2.187779  0.003
O  O139  1  0.41785151  0.94225228  0.57868891  1  -1.190178  0.002648  -0.321354  -0.568945  0.000992  2.188152  0.003
O  O140  1  0.60710200  0.94304024  0.09610163  1  -1.129693  0.114568  -0.343926  -0.556032  0.074045  2.244943  0.103
O  O141  1  0.10703380  0.05698859  0.40393395  1  -1.130357  0.114582  -0.344002  -0.556074  0.074055  2.244945  0.103
O  O142  1  0.39300420  0.05694668  0.90393023  1  -1.129652  0.114632  -0.343837  -0.555919  0.074083  2.244508  0.103
O  O143  1  0.89297068  0.94304944  0.59607106  1  -1.129535  0.114604  -0.343899  -0.556061  0.074066  2.244803  0.103
O  O144  1  0.47835665  0.78850300  0.04414374  1  -1.1959  0.001195  -0.341702  -0.573615  -0.000247  2.080719  0.002
O  O145  1  0.97829956  0.21154456  0.45586493  1  -1.196558  0.001196  -0.341585  -0.573402  -0.000245  2.080768  0.002
O  O146  1  0.52169731  0.21153563  0.95585495  1  -1.196391  0.001195  -0.341588  -0.573331  -0.000246  2.080503  0.002
O  O147  1  0.02165681  0.78846230  0.54415389  1  -1.196257  0.001201  -0.341556  -0.573373  -0.000242  2.080537  0.002
