# generated using pymatgen
data_SrH5C7NO5
_symmetry_space_group_name_H-M   'P 1'
_cell_length_a   6.46126991
_cell_length_b   7.18865989
_cell_length_c   18.58610794
_cell_angle_alpha   89.99976067
_cell_angle_beta   90.00028800
_cell_angle_gamma   89.99954037
_symmetry_Int_Tables_number   1
_chemical_formula_structural   SrH5C7NO5
_chemical_formula_sum   'Sr4 H20 C28 N4 O20'
_cell_volume   863.28516032
_cell_formula_units_Z   4
loop_
 _symmetry_equiv_pos_site_id
 _symmetry_equiv_pos_as_xyz
  1  'x, y, z'
loop_
 _atom_site_type_symbol
 _atom_site_label
 _atom_site_symmetry_multiplicity
 _atom_site_fract_x
 _atom_site_fract_y
 _atom_site_fract_z
 _atom_site_occupancy
 _atom_site_hle17_bader_spin_density
 _atom_site_hle17_ddec_charge
 _atom_site_hle17_ddec_spin_density
 _atom_site_hle17_ddec_sum_bond_order
 _atom_site_hle17_magmom
 _atom_site_hse06_10hf_bader_spin_density
 _atom_site_hse06_10hf_ddec_charge
 _atom_site_hse06_10hf_ddec_spin_density
 _atom_site_hse06_10hf_ddec_sum_bond_order
 _atom_site_hse06_10hf_magmom
 _atom_site_hse06_bader_spin_density
 _atom_site_hse06_ddec_charge
 _atom_site_hse06_ddec_spin_density
 _atom_site_hse06_ddec_sum_bond_order
 _atom_site_hse06_magmom
 _atom_site_pbe_bader_spin_density
 _atom_site_pbe_cm5_charge
 _atom_site_pbe_ddec_charge
 _atom_site_pbe_ddec_spin_density
 _atom_site_pbe_ddec_sum_bond_order
 _atom_site_pbe_magmom
Sr  Sr0  1  0.56075001  0.53097919  0.69305317  1  0  1.570872  0  1.187501  0  0  1.411852  0  1.577194  0  0  1.453004  0  1.530653  0  0  0.981068  1.381658  0  1.610084  0
Sr  Sr1  1  0.93925894  0.46901902  0.19305376  1  0  1.570905  0  1.187378  0  0  1.411773  0  1.577259  0  0  1.452924  0  1.530717  0  0  0.981043  1.381572  0  1.610156  0
Sr  Sr2  1  0.43924290  0.03099014  0.80694445  1  0  1.570902  0  1.187425  0  0  1.411758  0  1.577314  0  0  1.452914  0  1.530771  0  0  0.981048  1.381565  0  1.610203  0
Sr  Sr3  1  0.06075067  0.96902159  0.30694572  1  0  1.570888  0  1.187448  0  0  1.411837  0  1.577178  0  0  1.452989  0  1.530638  0  0  0.981068  1.38164  0  1.610068  0
H  H4  1  0.94012878  0.57291169  0.47660255  1  0  0.117708  0  0.946219  0  0  0.126904  0  1.008105  0  0  0.130518  0  1.006634  0  0  0.115345  0.124175  0  1.009538  0
H  H5  1  0.55987499  0.42709045  0.97659782  1  0  0.117573  0  0.946264  0  0  0.126814  0  1.00811  0  0  0.130427  0  1.006641  0  0  0.11532  0.124085  0  1.009541  0
H  H6  1  0.05986114  0.07291867  0.02339811  1  0  0.117644  0  0.946262  0  0  0.126882  0  1.008108  0  0  0.130492  0  1.006646  0  0  0.115325  0.124153  0  1.009541  0
H  H7  1  0.44013141  0.92708357  0.52339915  1  0  0.117688  0  0.946204  0  0  0.126902  0  1.008072  0  0  0.130517  0  1.006601  0  0  0.115333  0.124172  0  1.009506  0
H  H8  1  0.52310257  0.39009379  0.38670509  1  0  0.123607  0  0.946788  0  0  0.132976  0  1.004747  0  0  0.137372  0  1.00196  0  0  0.11577  0.129735  0  1.006984  0
H  H9  1  0.97689991  0.60990235  0.88670079  1  0  0.123592  0  0.946748  0  0  0.132975  0  1.004694  0  0  0.13737  0  1.001908  0  0  0.11579  0.129731  0  1.006928  0
H  H10  1  0.47689537  0.89009821  0.11329990  1  0  0.123614  0  0.946668  0  0  0.132974  0  1.004651  0  0  0.137369  0  1.001858  0  0  0.115753  0.129726  0  1.006891  0
H  H11  1  0.02310468  0.10989195  0.61329509  1  0  0.123527  0  0.946793  0  0  0.132888  0  1.004784  0  0  0.137285  0  1.001994  0  0  0.115717  0.129644  0  1.007023  0
H  H12  1  0.88753563  0.33522335  0.78868848  1  0  0.424222  0  0.868589  0  0  0.394722  0  0.929737  0  0  0.404807  0  0.91503  0  0  0.306296  0.387583  0  0.940143  0
H  H13  1  0.61247006  0.66477245  0.28868873  1  0  0.424232  0  0.868586  0  0  0.394744  0  0.929716  0  0  0.404828  0  0.915012  0  0  0.30631  0.387604  0  0.940124  0
H  H14  1  0.11246694  0.83522518  0.71131079  1  0  0.42422  0  0.868587  0  0  0.394727  0  0.929725  0  0  0.404812  0  0.915018  0  0  0.306315  0.387588  0  0.940131  0
H  H15  1  0.38753452  0.16477645  0.21130964  1  0  0.424392  0  0.868341  0  0  0.394795  0  0.929632  0  0  0.404878  0  0.914928  0  0  0.306332  0.387656  0  0.940039  0
H  H16  1  0.00009759  0.49662962  0.74378791  1  0  0.416329  0  0.889242  0  0  0.38423  0  0.954928  0  0  0.395492  0  0.938386  0  0  0.297777  0.376236  0  0.96666  0
H  H17  1  0.49991054  0.50337166  0.24378694  1  0  0.416363  0  0.889196  0  0  0.384287  0  0.954844  0  0  0.395551  0  0.938301  0  0  0.297812  0.376294  0  0.966576  0
H  H18  1  0.99990046  0.99662317  0.75621110  1  0  0.416345  0  0.889222  0  0  0.384259  0  0.954893  0  0  0.395526  0  0.938344  0  0  0.297786  0.376267  0  0.966624  0
H  H19  1  0.50009394  0.00337298  0.25621061  1  0  0.416398  0  0.889158  0  0  0.384305  0  0.95483  0  0  0.395568  0  0.938287  0  0  0.29782  0.376312  0  0.966562  0
H  H20  1  0.67015808  0.40889999  0.51210854  1  0  0.074268  0  0.962744  0  0  0.079521  0  1.032976  0  0  0.082399  0  1.030999  0  0  0.116152  0.077287  0  1.034691  0
H  H21  1  0.82984516  0.59109599  0.01210390  1  0  0.074331  0  0.962645  0  0  0.079552  0  1.032906  0  0  0.082444  0  1.030922  0  0  0.116148  0.077317  0  1.034622  0
H  H22  1  0.32983301  0.90890146  0.98789868  1  0  0.074322  0  0.962685  0  0  0.07955  0  1.032933  0  0  0.082482  0  1.030914  0  0  0.11615  0.077317  0  1.034648  0
H  H23  1  0.17016008  0.09109025  0.48789297  1  0  0.074291  0  0.962737  0  0  0.079522  0  1.032999  0  0  0.082404  0  1.031023  0  0  0.116146  0.077287  0  1.034713  0
C  C24  1  0.19394956  0.52981695  0.54942730  1  0  0.094924  0  3.764488  0  0  0.101229  0  4.011562  0  0  0.102007  0  4.029938  0  0  0.115278  0.100587  0  3.999218  0
C  C25  1  0.30605574  0.47018780  0.04942174  1  0  0.094588  0  3.764481  0  0  0.101054  0  4.011364  0  0  0.101842  0  4.029732  0  0  0.115173  0.100404  0  3.999026  0
C  C26  1  0.80604181  0.02981537  0.95057785  1  0  0.094831  0  3.764435  0  0  0.101229  0  4.011406  0  0  0.102018  0  4.029769  0  0  0.115291  0.100577  0  3.999072  0
C  C27  1  0.69395231  0.97018983  0.45057397  1  0  0.094863  0  3.764458  0  0  0.101266  0  4.011422  0  0  0.102052  0  4.029791  0  0  0.115293  0.100617  0  3.999081  0
C  C28  1  0.10185107  0.53243427  0.48144903  1  0  -0.128147  0  3.678052  0  0  -0.161851  0  3.926541  0  0  -0.165757  0  3.945429  0  0  -0.068544  -0.159304  0  3.914226  0
C  C29  1  0.39815122  0.46756586  0.98144267  1  0  -0.127859  0  3.677976  0  0  -0.161597  0  3.926431  0  0  -0.165504  0  3.945317  0  0  -0.06848  -0.159047  0  3.914116  0
C  C30  1  0.89813613  0.03244221  0.01855332  1  0  -0.128049  0  3.678184  0  0  -0.161812  0  3.926615  0  0  -0.165715  0  3.945497  0  0  -0.068561  -0.159259  0  3.914295  0
C  C31  1  0.60185327  0.96755648  0.51855209  1  0  -0.128175  0  3.677961  0  0  -0.161934  0  3.926385  0  0  -0.165831  0  3.945292  0  0  -0.068558  -0.159382  0  3.91407  0
C  C32  1  0.21916681  0.48021859  0.42163676  1  0  0.010892  0  3.702073  0  0  0.029716  0  3.940493  0  0  0.029731  0  3.956708  0  0  0.021347  0.029551  0  3.929648  0
C  C33  1  0.28083151  0.51977801  0.92163011  1  0  0.010774  0  3.701958  0  0  0.029528  0  3.940603  0  0  0.029538  0  3.956818  0  0  0.021366  0.029364  0  3.929755  0
C  C34  1  0.78083187  0.98022814  0.07836809  1  0  0.010852  0  3.701955  0  0  0.029715  0  3.940403  0  0  0.029717  0  3.956612  0  0  0.021368  0.029552  0  3.929551  0
C  C35  1  0.71916768  0.01976990  0.57836484  1  0  0.010871  0  3.701927  0  0  0.029792  0  3.940311  0  0  0.029755  0  3.956607  0  0  0.021363  0.029627  0  3.929467  0
C  C36  1  0.42632917  0.43026550  0.43214644  1  0  -0.119764  0  3.670873  0  0  -0.1456  0  3.922707  0  0  -0.149981  0  3.94054  0  0  -0.071894  -0.142742  0  3.910896  0
C  C37  1  0.07367395  0.56973377  0.93214311  1  0  -0.119834  0  3.671133  0  0  -0.145652  0  3.923016  0  0  -0.150029  0  3.940853  0  0  -0.07203  -0.142788  0  3.9112  0
C  C38  1  0.57366995  0.93027388  0.06786118  1  0  -0.119843  0  3.670786  0  0  -0.14569  0  3.922634  0  0  -0.15006  0  3.940474  0  0  -0.071949  -0.142825  0  3.910818  0
C  C39  1  0.92632635  0.06972150  0.56785713  1  0  -0.119661  0  3.670914  0  0  -0.145518  0  3.922719  0  0  -0.149886  0  3.940572  0  0  -0.071942  -0.142657  0  3.910904  0
C  C40  1  0.50789409  0.44059360  0.50143643  1  0  0.130875  0  3.729799  0  0  0.103235  0  3.994435  0  0  0.108368  0  4.011649  0  0  0.051471  0.099903  0  3.982902  0
C  C41  1  0.99211208  0.55940527  0.00143212  1  0  0.13076  0  3.730182  0  0  0.103154  0  3.994777  0  0  0.108269  0  4.011998  0  0  0.051478  0.099821  0  3.983241  0
C  C42  1  0.49210445  0.94059518  0.99856967  1  0  0.130748  0  3.730203  0  0  0.103132  0  3.994817  0  0  0.108215  0  4.012028  0  0  0.051449  0.099797  0  3.983281  0
C  C43  1  0.00789654  0.05939503  0.49856642  1  0  0.13068  0  3.730195  0  0  0.103069  0  3.994799  0  0  0.108198  0  4.012017  0  0  0.051516  0.099737  0  3.983261  0
C  C44  1  0.06581100  0.56500442  0.61635833  1  0  0.635223  0  3.919688  0  0  0.583857  0  4.216204  0  0  0.616964  0  4.207713  0  0  0.227786  0.561497  0  4.221111  0
C  C45  1  0.43419993  0.43500796  0.11635252  1  0  0.635269  0  3.919779  0  0  0.583868  0  4.216241  0  0  0.61697  0  4.207748  0  0  0.227752  0.56151  0  4.22115  0
C  C46  1  0.93418935  0.06498455  0.88364623  1  0  0.635297  0  3.91957  0  0  0.583859  0  4.216137  0  0  0.616958  0  4.207647  0  0  0.227773  0.561505  0  4.221045  0
C  C47  1  0.56579915  0.93500884  0.38364433  1  0  0.635305  0  3.919712  0  0  0.583898  0  4.216225  0  0  0.617001  0  4.207732  0  0  0.227836  0.561544  0  4.221127  0
C  C48  1  0.12430725  0.47271862  0.34773955  1  0  0.706177  0  3.88606  0  0  0.655724  0  4.175097  0  0  0.690484  0  4.163819  0  0  0.240598  0.632011  0  4.182023  0
C  C49  1  0.37569001  0.52727598  0.84773198  1  0  0.706564  0  3.885286  0  0  0.655937  0  4.174655  0  0  0.690699  0  4.163377  0  0  0.240755  0.632227  0  4.181578  0
C  C50  1  0.87569924  0.97273783  0.15226369  1  0  0.706377  0  3.885482  0  0  0.655803  0  4.174719  0  0  0.690568  0  4.163435  0  0  0.240579  0.632091  0  4.181642  0
C  C51  1  0.62430293  0.02728586  0.65226242  1  0  0.706313  0  3.885708  0  0  0.65572  0  4.174938  0  0  0.690492  0  4.163668  0  0  0.240685  0.632009  0  4.181864  0
N  N52  1  0.39543343  0.48872367  0.55928541  1  0  -0.37976  0  3.171661  0  0  -0.331908  0  3.431896  0  0  -0.343406  0  3.447837  0  0  -0.358198  -0.323912  0  3.421038  0
N  N53  1  0.10457202  0.51127680  0.05928051  1  0  -0.379584  0  3.171901  0  0  -0.331755  0  3.432039  0  0  -0.34326  0  3.447988  0  0  -0.358101  -0.323755  0  3.42118  0
N  N54  1  0.60455385  0.98871949  0.94072115  1  0  -0.379659  0  3.172023  0  0  -0.33179  0  3.432151  0  0  -0.343299  0  3.448119  0  0  -0.358113  -0.323791  0  3.421296  0
N  N55  1  0.89543703  0.01127051  0.44071757  1  0  -0.37963  0  3.171996  0  0  -0.331794  0  3.43216  0  0  -0.343296  0  3.448106  0  0  -0.358214  -0.323794  0  3.421298  0
O  O56  1  0.16412947  0.58645420  0.67610302  1  0  -0.710293  0  2.019188  0  0  -0.638648  0  2.243226  0  0  -0.664708  0  2.231384  0  0  -0.344922  -0.620344  0  2.250901  0
O  O57  1  0.33587923  0.41354920  0.17609976  1  0  -0.710377  0  2.019144  0  0  -0.638703  0  2.243176  0  0  -0.664766  0  2.231334  0  0  -0.344909  -0.620398  0  2.250853  0
O  O58  1  0.83586759  0.08644263  0.82389881  1  0  -0.710424  0  2.01905  0  0  -0.638749  0  2.243121  0  0  -0.66481  0  2.231276  0  0  -0.344949  -0.620445  0  2.250799  0
O  O59  1  0.66412624  0.91354862  0.32389605  1  0  -0.71037  0  2.018945  0  0  -0.638731  0  2.242998  0  0  -0.664794  0  2.231156  0  0  -0.344957  -0.620427  0  2.250672  0
O  O60  1  0.87223446  0.56628690  0.60955503  1  0  -0.657727  0  1.990058  0  0  -0.605747  0  2.238083  0  0  -0.6313  0  2.230073  0  0  -0.353643  -0.58779  0  2.243146  0
O  O61  1  0.62776245  0.43373724  0.10955029  1  0  -0.65767  0  1.99028  0  0  -0.605697  0  2.238332  0  0  -0.631249  0  2.230326  0  0  -0.353622  -0.58774  0  2.243396  0
O  O62  1  0.12774885  0.06625191  0.89044522  1  0  -0.657677  0  1.990331  0  0  -0.605675  0  2.238383  0  0  -0.631227  0  2.230385  0  0  -0.353605  -0.58772  0  2.243445  0
O  O63  1  0.37224593  0.93373110  0.39044656  1  0  -0.657681  0  1.990366  0  0  -0.605699  0  2.238411  0  0  -0.631247  0  2.230401  0  0  -0.353623  -0.587744  0  2.243472  0
O  O64  1  0.08207780  0.62440647  0.31603937  1  0  -0.722327  0  1.982044  0  0  -0.65471  0  2.225761  0  0  -0.682896  0  2.214431  0  0  -0.394381  -0.63458  0  2.232916  0
O  O65  1  0.41790971  0.37559404  0.81603266  1  0  -0.722359  0  1.981874  0  0  -0.654689  0  2.225718  0  0  -0.682875  0  2.214389  0  0  -0.3944  -0.634564  0  2.232874  0
O  O66  1  0.91791631  0.12440832  0.18396659  1  0  -0.722301  0  1.982  0  0  -0.654643  0  2.225794  0  0  -0.682825  0  2.21446  0  0  -0.394319  -0.63452  0  2.232954  0
O  O67  1  0.58206775  0.87559694  0.68396601  1  0  -0.722404  0  1.981735  0  0  -0.65475  0  2.225527  0  0  -0.682935  0  2.214194  0  0  -0.394438  -0.634622  0  2.232683  0
O  O68  1  0.09125697  0.31451416  0.32006038  1  0  -0.717185  0  1.976317  0  0  -0.652978  0  2.220928  0  0  -0.681041  0  2.209882  0  0  -0.379404  -0.632949  0  2.227889  0
O  O69  1  0.40875690  0.68548630  0.82005691  1  0  -0.717345  0  1.976006  0  0  -0.653053  0  2.220698  0  0  -0.681115  0  2.209649  0  0  -0.379481  -0.633027  0  2.227658  0
O  O70  1  0.90874782  0.81452031  0.17994313  1  0  -0.7173  0  1.975941  0  0  -0.653049  0  2.220623  0  0  -0.681115  0  2.209574  0  0  -0.379418  -0.63302  0  2.227582  0
O  O71  1  0.59125784  0.18548778  0.67993777  1  0  -0.717191  0  1.976498  0  0  -0.652962  0  2.221213  0  0  -0.681022  0  2.21016  0  0  -0.379413  -0.632937  0  2.228175  0
O  O72  1  0.87938485  0.46727171  0.77494692  1  0  -0.869876  0  1.796122  0  0  -0.81247  0  1.962249  0  0  -0.831998  0  1.930425  0  0  -0.61788  -0.798545  0  1.984594  0
O  O73  1  0.62062220  0.53272423  0.27494740  1  0  -0.869941  0  1.796088  0  0  -0.812562  0  1.962197  0  0  -0.83209  0  1.930375  0  0  -0.617939  -0.798637  0  1.984547  0
O  O74  1  0.12061191  0.96727472  0.72505214  1  0  -0.869891  0  1.796116  0  0  -0.812495  0  1.962228  0  0  -0.832027  0  1.930399  0  0  -0.617924  -0.798571  0  1.984574  0
O  O75  1  0.37938047  0.03272675  0.22505172  1  0  -0.87011  0  1.795842  0  0  -0.812626  0  1.96212  0  0  -0.832153  0  1.9303  0  0  -0.617971  -0.798699  0  1.984468  0
