# generated using pymatgen
data_ZnH8C9(NO)2
_symmetry_space_group_name_H-M   'P 1'
_cell_length_a   8.85113530
_cell_length_b   9.79708205
_cell_length_c   10.75772275
_cell_angle_alpha   90.00013565
_cell_angle_beta   99.62105562
_cell_angle_gamma   90.00004344
_symmetry_Int_Tables_number   1
_chemical_formula_structural   ZnH8C9(NO)2
_chemical_formula_sum   'Zn4 H32 C36 N8 O8'
_cell_volume   919.73818390
_cell_formula_units_Z   4
loop_
 _symmetry_equiv_pos_site_id
 _symmetry_equiv_pos_as_xyz
  1  'x, y, z'
loop_
 _atom_site_type_symbol
 _atom_site_label
 _atom_site_symmetry_multiplicity
 _atom_site_fract_x
 _atom_site_fract_y
 _atom_site_fract_z
 _atom_site_occupancy
 _atom_site_hle17_bader_spin_density
 _atom_site_hle17_ddec_charge
 _atom_site_hle17_ddec_spin_density
 _atom_site_hle17_ddec_sum_bond_order
 _atom_site_hle17_magmom
 _atom_site_hse06_10hf_bader_spin_density
 _atom_site_hse06_10hf_ddec_charge
 _atom_site_hse06_10hf_ddec_spin_density
 _atom_site_hse06_10hf_ddec_sum_bond_order
 _atom_site_hse06_10hf_magmom
 _atom_site_hse06_bader_spin_density
 _atom_site_hse06_ddec_charge
 _atom_site_hse06_ddec_spin_density
 _atom_site_hse06_ddec_sum_bond_order
 _atom_site_hse06_magmom
 _atom_site_pbe_bader_spin_density
 _atom_site_pbe_cm5_charge
 _atom_site_pbe_ddec_charge
 _atom_site_pbe_ddec_spin_density
 _atom_site_pbe_ddec_sum_bond_order
 _atom_site_pbe_magmom
Zn  Zn0  1  0.34599938  0.77376400  0.64837212  1  0  1.025521  0  1.863658  0  0  0.841412  0  2.3398  0  0  0.884803  0  2.289323  0  0  0.710773  0.810653  0  2.374355  0
Zn  Zn1  1  0.15400127  0.27376264  0.35162716  1  0  1.025532  0  1.863672  0  0  0.841395  0  2.339815  0  0  0.884799  0  2.28934  0  0  0.710761  0.810639  0  2.374368  0
Zn  Zn2  1  0.65400091  0.22623641  0.35162681  1  0  1.025544  0  1.863666  0  0  0.841396  0  2.339814  0  0  0.884807  0  2.289339  0  0  0.71076  0.810645  0  2.37437  0
Zn  Zn3  1  0.84600017  0.72623676  0.64837379  1  0  1.025523  0  1.863657  0  0  0.841373  0  2.339798  0  0  0.884779  0  2.289319  0  0  0.710747  0.810615  0  2.374347  0
H  H4  1  0.52142520  0.83716630  0.40879082  1  0  0.099122  0  0.971999  0  0  0.110135  0  1.035268  0  0  0.112689  0  1.034289  0  0  0.09893  0.108697  0  1.03501  0
H  H5  1  0.97857488  0.33716680  0.59120895  1  0  0.099079  0  0.97197  0  0  0.11009  0  1.035238  0  0  0.112644  0  1.03426  0  0  0.098912  0.108651  0  1.034982  0
H  H6  1  0.47857509  0.16283309  0.59120718  1  0  0.099062  0  0.971996  0  0  0.110078  0  1.035263  0  0  0.112633  0  1.034286  0  0  0.09891  0.108652  0  1.034991  0
H  H7  1  0.02142543  0.66283361  0.40879277  1  0  0.099047  0  0.972019  0  0  0.110063  0  1.035288  0  0  0.112615  0  1.034313  0  0  0.098906  0.108639  0  1.035014  0
H  H8  1  0.58591565  0.80443793  0.19403132  1  0  0.078362  0  0.982363  0  0  0.09017  0  1.044033  0  0  0.091888  0  1.045123  0  0  0.092641  0.088764  0  1.043703  0
H  H9  1  0.91408438  0.30443793  0.80596931  1  0  0.078361  0  0.982383  0  0  0.090167  0  1.04405  0  0  0.091887  0  1.045139  0  0  0.092635  0.08876  0  1.043722  0
H  H10  1  0.41408235  0.19556350  0.80596730  1  0  0.078378  0  0.982421  0  0  0.09018  0  1.044092  0  0  0.091899  0  1.045181  0  0  0.09265  0.088774  0  1.04376  0
H  H11  1  0.08591592  0.69556249  0.19403241  1  0  0.078366  0  0.98237  0  0  0.090175  0  1.044033  0  0  0.091893  0  1.045123  0  0  0.092645  0.088769  0  1.043704  0
H  H12  1  0.48825259  0.60533457  0.06334763  1  0  0.087615  0  0.959123  0  0  0.101074  0  1.016428  0  0  0.103611  0  1.015498  0  0  0.097197  0.099258  0  1.017114  0
H  H13  1  0.01174671  0.10533463  0.93665202  1  0  0.087611  0  0.959108  0  0  0.101064  0  1.016418  0  0  0.103605  0  1.015488  0  0  0.097197  0.099249  0  1.017105  0
H  H14  1  0.51174542  0.39466584  0.93665192  1  0  0.087622  0  0.959116  0  0  0.101079  0  1.016423  0  0  0.103616  0  1.015493  0  0  0.097204  0.099263  0  1.01711  0
H  H15  1  0.98825359  0.89466375  0.06334877  1  0  0.087631  0  0.959117  0  0  0.101079  0  1.016433  0  0  0.103615  0  1.015506  0  0  0.097198  0.099264  0  1.017121  0
H  H16  1  0.32896623  0.42759190  0.14520752  1  0  0.096482  0  0.964566  0  0  0.111784  0  1.018887  0  0  0.114065  0  1.018279  0  0  0.101538  0.11024  0  1.019183  0
H  H17  1  0.17103463  0.92759267  0.85479212  1  0  0.096511  0  0.96456  0  0  0.111817  0  1.018867  0  0  0.114099  0  1.018259  0  0  0.101551  0.110273  0  1.019163  0
H  H18  1  0.67103406  0.57240749  0.85479141  1  0  0.09647  0  0.964635  0  0  0.111776  0  1.018945  0  0  0.114058  0  1.018336  0  0  0.101524  0.110232  0  1.019241  0
H  H19  1  0.82896682  0.07240672  0.14520975  1  0  0.096482  0  0.964648  0  0  0.111779  0  1.018959  0  0  0.114061  0  1.018351  0  0  0.101542  0.110236  0  1.019254  0
H  H20  1  0.20787589  0.47956709  0.58275830  1  0  0.076442  0  0.944617  0  0  0.088561  0  1.007436  0  0  0.090157  0  1.005188  0  0  0.12918  0.087617  0  1.008306  0
H  H21  1  0.29212504  0.97956680  0.41724146  1  0  0.076452  0  0.944642  0  0  0.088572  0  1.007453  0  0  0.090169  0  1.005206  0  0  0.129193  0.087629  0  1.008325  0
H  H22  1  0.79212555  0.52043332  0.41724171  1  0  0.076439  0  0.944612  0  0  0.088555  0  1.007436  0  0  0.090151  0  1.00519  0  0  0.129182  0.087611  0  1.008308  0
H  H23  1  0.70787526  0.02043361  0.58275933  1  0  0.076423  0  0.944668  0  0  0.088544  0  1.007485  0  0  0.090139  0  1.005239  0  0  0.129182  0.087598  0  1.008357  0
H  H24  1  0.53443464  0.99322971  0.87395717  1  0  0.140354  0  0.949911  0  0  0.159759  0  1.009429  0  0  0.161801  0  1.009551  0  0  0.101114  0.158253  0  1.009377  0
H  H25  1  0.96556564  0.49322899  0.12604297  1  0  0.140329  0  0.949884  0  0  0.159726  0  1.009414  0  0  0.161774  0  1.009531  0  0  0.101108  0.158221  0  1.009362  0
H  H26  1  0.46556794  0.00677173  0.12604300  1  0  0.140325  0  0.949985  0  0  0.159756  0  1.009477  0  0  0.161796  0  1.009603  0  0  0.101116  0.15825  0  1.009426  0
H  H27  1  0.03443465  0.50677143  0.87395596  1  0  0.140367  0  0.949905  0  0  0.159761  0  1.009427  0  0  0.161809  0  1.009542  0  0  0.101118  0.158256  0  1.009373  0
H  H28  1  0.68326000  0.91554453  0.98551678  1  0  0.137334  0  0.969473  0  0  0.152687  0  1.032939  0  0  0.154936  0  1.032956  0  0  0.095035  0.151275  0  1.032821  0
H  H29  1  0.81674019  0.41554341  0.01448411  1  0  0.137348  0  0.969473  0  0  0.152706  0  1.03293  0  0  0.154954  0  1.032949  0  0  0.09505  0.151293  0  1.032812  0
H  H30  1  0.31674144  0.08445589  0.01448231  1  0  0.137353  0  0.969458  0  0  0.152715  0  1.032915  0  0  0.154963  0  1.032933  0  0  0.095041  0.151302  0  1.032796  0
H  H31  1  0.18326011  0.58445598  0.98551668  1  0  0.137341  0  0.969472  0  0  0.152697  0  1.032929  0  0  0.154945  0  1.032949  0  0  0.095035  0.151284  0  1.032811  0
H  H32  1  0.50723616  0.82679756  0.92981305  1  0  0.151198  0  0.946214  0  0  0.168933  0  1.006984  0  0  0.171754  0  1.005709  0  0  0.10382  0.166564  0  1.008497  0
H  H33  1  0.99276277  0.32679569  0.07018840  1  0  0.151203  0  0.946255  0  0  0.168943  0  1.007015  0  0  0.171764  0  1.005742  0  0  0.103838  0.166574  0  1.008529  0
H  H34  1  0.49276414  0.17320489  0.07018681  1  0  0.151195  0  0.946244  0  0  0.168922  0  1.007024  0  0  0.171745  0  1.005749  0  0  0.103815  0.166545  0  1.008545  0
H  H35  1  0.00723868  0.67320370  0.92981254  1  0  0.151195  0  0.946245  0  0  0.168928  0  1.007005  0  0  0.171749  0  1.005731  0  0  0.103804  0.166559  0  1.00852  0
C  C36  1  0.38900205  0.64926744  0.39752106  1  0  0.151426  0  3.816035  0  0  0.149423  0  4.055093  0  0  0.152659  0  4.079742  0  0  0.082346  0.14711  0  4.038272  0
C  C37  1  0.11099729  0.14926465  0.60247684  1  0  0.151448  0  3.815966  0  0  0.149353  0  4.055078  0  0  0.152591  0  4.079728  0  0  0.082341  0.147039  0  4.038257  0
C  C38  1  0.61099594  0.35073502  0.60247663  1  0  0.151408  0  3.81609  0  0  0.14937  0  4.055158  0  0  0.152608  0  4.079806  0  0  0.082331  0.147055  0  4.038339  0
C  C39  1  0.88900186  0.85073474  0.39752380  1  0  0.15144  0  3.816014  0  0  0.149384  0  4.055071  0  0  0.152621  0  4.079719  0  0  0.082326  0.147069  0  4.038253  0
C  C40  1  0.47793702  0.74940539  0.35160885  1  0  -0.152771  0  3.75946  0  0  -0.170763  0  4.010533  0  0  -0.173625  0  4.031963  0  0  -0.102986  -0.168665  0  3.9949  0
C  C41  1  0.02206132  0.24940572  0.64839285  1  0  -0.152661  0  3.759293  0  0  -0.170614  0  4.010358  0  0  -0.173476  0  4.031792  0  0  -0.102949  -0.168516  0  3.994724  0
C  C42  1  0.52206098  0.25059604  0.64839070  1  0  -0.152708  0  3.759305  0  0  -0.17068  0  4.010364  0  0  -0.173542  0  4.031796  0  0  -0.102986  -0.168593  0  3.994722  0
C  C43  1  0.97793898  0.75059469  0.35160887  1  0  -0.152676  0  3.75936  0  0  -0.17066  0  4.010443  0  0  -0.17352  0  4.031876  0  0  -0.102959  -0.168572  0  3.994801  0
C  C44  1  0.51308277  0.73042817  0.23124488  1  0  -0.089562  0  3.815156  0  0  -0.103337  0  4.065329  0  0  -0.106564  0  4.090427  0  0  -0.107272  -0.100992  0  4.048245  0
C  C45  1  0.98691602  0.23042913  0.76875542  1  0  -0.089582  0  3.815064  0  0  -0.103363  0  4.065238  0  0  -0.106593  0  4.090339  0  0  -0.107241  -0.101018  0  4.048153  0
C  C46  1  0.48691408  0.26957225  0.76875452  1  0  -0.089577  0  3.815117  0  0  -0.103354  0  4.065291  0  0  -0.106582  0  4.090392  0  0  -0.107274  -0.101009  0  4.048209  0
C  C47  1  0.01308428  0.76957128  0.23124630  1  0  -0.089515  0  3.815023  0  0  -0.103295  0  4.065202  0  0  -0.106523  0  4.0903  0  0  -0.107232  -0.10095  0  4.048123  0
C  C48  1  0.45942922  0.61593478  0.15750768  1  0  -0.08442  0  3.811411  0  0  -0.098809  0  4.062623  0  0  -0.100993  0  4.085296  0  0  -0.104323  -0.097595  0  4.047578  0
C  C49  1  0.04057009  0.11593563  0.84249200  1  0  -0.084344  0  3.811218  0  0  -0.098716  0  4.062422  0  0  -0.100906  0  4.085098  0  0  -0.104308  -0.097504  0  4.047378  0
C  C50  1  0.54056878  0.38406564  0.84249094  1  0  -0.084385  0  3.811394  0  0  -0.098768  0  4.06261  0  0  -0.100953  0  4.085285  0  0  -0.1043  -0.097555  0  4.047565  0
C  C51  1  0.95943136  0.88406376  0.15750988  1  0  -0.084485  0  3.811286  0  0  -0.098862  0  4.062513  0  0  -0.101048  0  4.085184  0  0  -0.104351  -0.097651  0  4.04747  0
C  C52  1  0.37027696  0.51601015  0.20233367  1  0  -0.159705  0  3.78312  0  0  -0.176573  0  4.033431  0  0  -0.179288  0  4.053748  0  0  -0.102522  -0.174832  0  4.019703  0
C  C53  1  0.12972336  0.01601095  0.79766687  1  0  -0.159862  0  3.783144  0  0  -0.17676  0  4.033444  0  0  -0.179474  0  4.05376  0  0  -0.102597  -0.17502  0  4.019716  0
C  C54  1  0.62972333  0.48399230  0.79766619  1  0  -0.159737  0  3.783175  0  0  -0.176615  0  4.033469  0  0  -0.17933  0  4.053787  0  0  -0.102535  -0.174876  0  4.019741  0
C  C55  1  0.87027694  0.98399048  0.20233392  1  0  -0.159697  0  3.783155  0  0  -0.176577  0  4.033426  0  0  -0.179287  0  4.053738  0  0  -0.102531  -0.174835  0  4.019697  0
C  C56  1  0.33621426  0.53309192  0.32376311  1  0  0.14823  0  3.826108  0  0  0.145989  0  4.06641  0  0  0.149581  0  4.09074  0  0  0.080622  0.14352  0  4.050239  0
C  C57  1  0.16378378  0.03309344  0.67623529  1  0  0.148239  0  3.82607  0  0  0.146089  0  4.066286  0  0  0.14968  0  4.090614  0  0  0.080638  0.143622  0  4.050113  0
C  C58  1  0.66378144  0.46690952  0.67623427  1  0  0.14821  0  3.826167  0  0  0.146001  0  4.066436  0  0  0.149593  0  4.090765  0  0  0.080603  0.143533  0  4.050264  0
C  C59  1  0.83621652  0.96690697  0.32376643  1  0  0.148172  0  3.826106  0  0  0.146007  0  4.066315  0  0  0.149597  0  4.090643  0  0  0.080617  0.143539  0  4.050145  0
C  C60  1  0.26051289  0.51836529  0.50564901  1  0  0.257759  0  3.741622  0  0  0.199898  0  4.014984  0  0  0.21779  0  4.026342  0  0  0.142613  0.188514  0  4.006229  0
C  C61  1  0.23948743  0.01836640  0.49435153  1  0  0.25777  0  3.741751  0  0  0.199909  0  4.015102  0  0  0.2178  0  4.026462  0  0  0.142629  0.188525  0  4.00635  0
C  C62  1  0.73948626  0.48163308  0.49435162  1  0  0.257827  0  3.741715  0  0  0.199969  0  4.015064  0  0  0.217861  0  4.026424  0  0  0.142633  0.188586  0  4.00631  0
C  C63  1  0.76051287  0.98163299  0.50565019  1  0  0.25773  0  3.741715  0  0  0.199855  0  4.015076  0  0  0.217747  0  4.026437  0  0  0.142571  0.188474  0  4.006319  0
C  C64  1  0.59366349  0.89734918  0.90420447  1  0  -0.471454  0  3.653394  0  0  -0.542572  0  3.876598  0  0  -0.550109  0  3.878937  0  0  -0.247163  -0.536801  0  3.874616  0
C  C65  1  0.90633552  0.39734732  0.09579622  1  0  -0.47143  0  3.653417  0  0  -0.542537  0  3.876628  0  0  -0.55008  0  3.878963  0  0  -0.247171  -0.536765  0  3.874646  0
C  C66  1  0.40633795  0.10265226  0.09579555  1  0  -0.471435  0  3.653515  0  0  -0.542581  0  3.876691  0  0  -0.550119  0  3.879033  0  0  -0.247158  -0.5368  0  3.874718  0
C  C67  1  0.09366363  0.60265106  0.90420442  1  0  -0.471477  0  3.653404  0  0  -0.542592  0  3.876594  0  0  -0.550137  0  3.87893  0  0  -0.247171  -0.536822  0  3.874611  0
C  C68  1  0.65888598  0.83823248  0.79579628  1  0  0.761302  0  3.808573  0  0  0.719305  0  4.09458  0  0  0.75353  0  4.08656  0  0  0.221526  0.695988  0  4.098834  0
C  C69  1  0.84111295  0.33823392  0.20420334  1  0  0.761281  0  3.808625  0  0  0.719266  0  4.094661  0  0  0.753491  0  4.086645  0  0  0.221481  0.695949  0  4.098917  0
C  C70  1  0.34111431  0.16176692  0.20420265  1  0  0.761244  0  3.808702  0  0  0.71926  0  4.094696  0  0  0.753486  0  4.086679  0  0  0.221478  0.695944  0  4.098951  0
C  C71  1  0.15888964  0.66176650  0.79579683  1  0  0.761283  0  3.808615  0  0  0.719343  0  4.094541  0  0  0.753565  0  4.086528  0  0  0.221572  0.696025  0  4.098793  0
N  N72  1  0.33820486  0.63699045  0.51241371  1  0  -0.468024  0  3.256294  0  0  -0.387275  0  3.557962  0  0  -0.410139  0  3.567874  0  0  -0.374939  -0.372209  0  3.55125  0
N  N73  1  0.16179447  0.13699046  0.48758602  1  0  -0.468104  0  3.25642  0  0  -0.387314  0  3.558091  0  0  -0.41018  0  3.568007  0  0  -0.374961  -0.37225  0  3.551381  0
N  N74  1  0.66179314  0.36301099  0.48758584  1  0  -0.46809  0  3.25637  0  0  -0.387308  0  3.558021  0  0  -0.410175  0  3.567934  0  0  -0.374954  -0.372246  0  3.551312  0
N  N75  1  0.83820467  0.86300893  0.51241368  1  0  -0.468021  0  3.25634  0  0  -0.387212  0  3.557964  0  0  -0.410082  0  3.567883  0  0  -0.374908  -0.372148  0  3.551248  0
N  N76  1  0.25444626  0.45200968  0.39528248  1  0  -0.480036  0  3.268578  0  0  -0.398462  0  3.570525  0  0  -0.421643  0  3.580257  0  0  -0.376426  -0.382745  0  3.562988  0
N  N77  1  0.24555348  0.95200984  0.60471613  1  0  -0.480008  0  3.268587  0  0  -0.398479  0  3.570548  0  0  -0.421663  0  3.580288  0  0  -0.376439  -0.382765  0  3.563011  0
N  N78  1  0.74555288  0.54799074  0.60471537  1  0  -0.480014  0  3.268628  0  0  -0.398481  0  3.570612  0  0  -0.421667  0  3.580352  0  0  -0.376399  -0.382765  0  3.563072  0
N  N79  1  0.75444567  0.04799057  0.39528357  1  0  -0.479986  0  3.268551  0  0  -0.398455  0  3.570508  0  0  -0.421643  0  3.58025  0  0  -0.376415  -0.382742  0  3.562973  0
O  O80  1  0.80201706  0.81048347  0.81014573  1  0  -0.634169  0  1.990445  0  0  -0.561204  0  2.24638  0  0  -0.589582  0  2.234157  0  0  -0.316327  -0.541738  0  2.25481  0
O  O81  1  0.69798185  0.31048579  0.18985662  1  0  -0.634158  0  1.990529  0  0  -0.56119  0  2.24648  0  0  -0.589569  0  2.234256  0  0  -0.316266  -0.541725  0  2.25491  0
O  O82  1  0.19798439  0.18951593  0.18985522  1  0  -0.634107  0  1.990512  0  0  -0.561178  0  2.246468  0  0  -0.589557  0  2.234244  0  0  -0.316287  -0.541713  0  2.254898  0
O  O83  1  0.30201731  0.68951564  0.81014495  1  0  -0.634108  0  1.990569  0  0  -0.561204  0  2.246518  0  0  -0.589578  0  2.234297  0  0  -0.316321  -0.541738  0  2.25495  0
O  O84  1  0.57252729  0.81588688  0.69025472  1  0  -0.671009  0  2.068372  0  0  -0.600114  0  2.352304  0  0  -0.627301  0  2.335869  0  0  -0.325364  -0.580853  0  2.361716  0
O  O85  1  0.92747276  0.31588661  0.30974594  1  0  -0.671019  0  2.068351  0  0  -0.600112  0  2.35229  0  0  -0.627304  0  2.335858  0  0  -0.325382  -0.580851  0  2.3617  0
O  O86  1  0.42747301  0.18411251  0.30974607  1  0  -0.671016  0  2.068369  0  0  -0.600108  0  2.352287  0  0  -0.6273  0  2.335855  0  0  -0.325369  -0.580845  0  2.361695  0
O  O87  1  0.07252867  0.68411278  0.69025315  1  0  -0.671037  0  2.068252  0  0  -0.600147  0  2.352161  0  0  -0.627336  0  2.33573  0  0  -0.325395  -0.580891  0  2.361585  0
