# generated using pymatgen
data_Cu2SiH16C7(SCl)2
_symmetry_space_group_name_H-M   'P 1'
_cell_length_a   6.46285306
_cell_length_b   7.79120258
_cell_length_c   13.18843870
_cell_angle_alpha   73.99955277
_cell_angle_beta   88.66732026
_cell_angle_gamma   88.77668088
_symmetry_Int_Tables_number   1
_chemical_formula_structural   Cu2SiH16C7(SCl)2
_chemical_formula_sum   'Cu4 Si2 H32 C14 S4 Cl4'
_cell_volume   638.10604783
_cell_formula_units_Z   2
loop_
 _symmetry_equiv_pos_site_id
 _symmetry_equiv_pos_as_xyz
  1  'x, y, z'
loop_
 _atom_site_type_symbol
 _atom_site_label
 _atom_site_symmetry_multiplicity
 _atom_site_fract_x
 _atom_site_fract_y
 _atom_site_fract_z
 _atom_site_occupancy
 _atom_site_hle17_bader_spin_density
 _atom_site_hle17_ddec_charge
 _atom_site_hle17_ddec_spin_density
 _atom_site_hle17_ddec_sum_bond_order
 _atom_site_hle17_magmom
 _atom_site_hse06_10hf_bader_spin_density
 _atom_site_hse06_10hf_ddec_charge
 _atom_site_hse06_10hf_ddec_spin_density
 _atom_site_hse06_10hf_ddec_sum_bond_order
 _atom_site_hse06_10hf_magmom
 _atom_site_hse06_bader_spin_density
 _atom_site_hse06_ddec_charge
 _atom_site_hse06_ddec_spin_density
 _atom_site_hse06_ddec_sum_bond_order
 _atom_site_hse06_magmom
 _atom_site_pbe_bader_spin_density
 _atom_site_pbe_cm5_charge
 _atom_site_pbe_ddec_charge
 _atom_site_pbe_ddec_spin_density
 _atom_site_pbe_ddec_sum_bond_order
 _atom_site_pbe_magmom
Cu  Cu0  1  0.48654914  0.42263212  0.10622116  1  0  0.308442  0  2.102288  0  0  0.228425  0  2.595376  0  0  0.240534  0  2.536682  0  0  0.288032  0.221215  0  2.635245  0
Cu  Cu1  1  0.51345600  0.57736762  0.89378302  1  0  0.308438  0  2.102317  0  0  0.228434  0  2.595384  0  0  0.240567  0  2.536645  0  0  0.288019  0.221225  0  2.635234  0
Cu  Cu2  1  0.95980777  0.41346949  0.13181429  1  0  0.346542  0  2.01669  0  0  0.271612  0  2.488195  0  0  0.278386  0  2.439624  0  0  0.300483  0.268224  0  2.520989  0
Cu  Cu3  1  0.04019278  0.58651960  0.86819019  1  0  0.346558  0  2.016549  0  0  0.271622  0  2.488055  0  0  0.278388  0  2.439468  0  0  0.300464  0.268236  0  2.520839  0
Si  Si4  1  0.31191314  0.28528991  0.39533978  1  0  1.096139  0  3.383119  0  0  0.991156  0  3.773007  0  0  1.008601  0  3.770065  0  0  0.102848  0.978991  0  3.77485  0
Si  Si5  1  0.68807791  0.71472462  0.60465762  1  0  1.096103  0  3.383137  0  0  0.991204  0  3.772766  0  0  1.008658  0  3.769808  0  0  0.102846  0.97901  0  3.774633  0
H  H6  1  0.26285879  0.61314437  0.36110093  1  0  0.121055  0  0.942187  0  0  0.136966  0  0.991303  0  0  0.138438  0  0.99198  0  0  0.107571  0.135916  0  0.990909  0
H  H7  1  0.73712616  0.38685551  0.63889820  1  0  0.121023  0  0.94215  0  0  0.136903  0  0.991325  0  0  0.138373  0  0.992004  0  0  0.107544  0.135854  0  0.990933  0
H  H8  1  0.41030054  0.90701939  0.19835027  1  0  0.091606  0  0.949091  0  0  0.109836  0  1.006924  0  0  0.110237  0  1.008459  0  0  0.090941  0.109562  0  1.005865  0
H  H9  1  0.58968777  0.09297655  0.80167070  1  0  0.091428  0  0.949374  0  0  0.109681  0  1.007258  0  0  0.11008  0  1.008785  0  0  0.090871  0.109427  0  1.00619  0
H  H10  1  0.48750783  0.86650289  0.07701130  1  0  0.107654  0  0.927823  0  0  0.124285  0  0.987043  0  0  0.125408  0  0.987532  0  0  0.097836  0.123336  0  0.986917  0
H  H11  1  0.51249432  0.13350228  0.92300643  1  0  0.107614  0  0.927861  0  0  0.124298  0  0.987083  0  0  0.125422  0  0.987565  0  0  0.09786  0.123354  0  0.986961  0
H  H12  1  0.13778250  0.77735633  0.04639045  1  0  0.075124  0  0.985805  0  0  0.084714  0  1.063663  0  0  0.086648  0  1.062236  0  0  0.073982  0.083177  0  1.064864  0
H  H13  1  0.86223202  0.22261794  0.95361096  1  0  0.074992  0  0.985919  0  0  0.084692  0  1.063665  0  0  0.086639  0  1.062238  0  0  0.073916  0.083151  0  1.06486  0
H  H14  1  0.13024101  0.98951333  0.07125331  1  0  0.096789  0  0.932197  0  0  0.115382  0  0.989909  0  0  0.115753  0  0.991557  0  0  0.090953  0.115033  0  0.988891  0
H  H15  1  0.86976260  0.01046233  0.92874195  1  0  0.096769  0  0.932066  0  0  0.115402  0  0.989746  0  0  0.115779  0  0.991398  0  0  0.090959  0.115056  0  0.988731  0
H  H16  1  0.83895505  0.81408180  0.16277207  1  0  0.102925  0  0.949197  0  0  0.117282  0  1.012399  0  0  0.118032  0  1.013633  0  0  0.092172  0.116632  0  1.01165  0
H  H17  1  0.16105306  0.18589243  0.83720972  1  0  0.102952  0  0.948973  0  0  0.117266  0  1.012231  0  0  0.118016  0  1.013464  0  0  0.0922  0.116639  0  1.01146  0
H  H18  1  0.00866298  0.85055569  0.25791955  1  0  0.093247  0  0.941968  0  0  0.112109  0  1.001347  0  0  0.112411  0  1.003085  0  0  0.094561  0.1118  0  1.000244  0
H  H19  1  0.99128465  0.14944845  0.74206575  1  0  0.093051  0  0.942059  0  0  0.11193  0  1.001392  0  0  0.112217  0  1.00315  0  0  0.094484  0.111662  0  1.000244  0
H  H20  1  0.68039972  0.26048762  0.34213068  1  0  0.14985  0  1.027715  0  0  0.162336  0  1.096311  0  0  0.164647  0  1.09666  0  0  0.079926  0.160513  0  1.096354  0
H  H21  1  0.31959279  0.73954426  0.65786612  1  0  0.149811  0  1.027631  0  0  0.162258  0  1.096291  0  0  0.16457  0  1.096639  0  0  0.079908  0.160431  0  1.096333  0
H  H22  1  0.62867919  0.12454190  0.47196666  1  0  0.141917  0  1.000466  0  0  0.165877  0  1.051944  0  0  0.16731  0  1.05312  0  0  0.091381  0.164838  0  1.05116  0
H  H23  1  0.37133035  0.87548850  0.52803015  1  0  0.141955  0  1.000385  0  0  0.165836  0  1.051963  0  0  0.167269  0  1.05314  0  0  0.091358  0.164795  0  1.051181  0
H  H24  1  0.65972391  0.35866313  0.44908927  1  0  0.140656  0  0.996594  0  0  0.15702  0  1.061368  0  0  0.158911  0  1.061776  0  0  0.084525  0.15566  0  1.061163  0
H  H25  1  0.34026698  0.64137677  0.55090472  1  0  0.140644  0  0.996684  0  0  0.156971  0  1.061479  0  0  0.158862  0  1.061889  0  0  0.084514  0.155617  0  1.061273  0
H  H26  1  0.22804525  0.35771959  0.56582592  1  0  0.145487  0  1.00154  0  0  0.159081  0  1.069008  0  0  0.161031  0  1.069809  0  0  0.084193  0.157609  0  1.068628  0
H  H27  1  0.77196305  0.64226810  0.43417944  1  0  0.145493  0  1.001557  0  0  0.159089  0  1.06902  0  0  0.161038  0  1.069821  0  0  0.08419  0.157617  0  1.068639  0
H  H28  1  0.19036805  0.12900714  0.57599887  1  0  0.157504  0  0.967096  0  0  0.180204  0  1.016821  0  0  0.182113  0  1.017504  0  0  0.094667  0.178802  0  1.016389  0
H  H29  1  0.80964171  0.87098853  0.42400136  1  0  0.157532  0  0.967009  0  0  0.180209  0  1.016762  0  0  0.18212  0  1.017446  0  0  0.094651  0.178806  0  1.016333  0
H  H30  1  0.00417832  0.29114383  0.51146824  1  0  0.150238  0  0.982277  0  0  0.167727  0  1.044392  0  0  0.169372  0  1.045474  0  0  0.088354  0.166515  0  1.043654  0
H  H31  1  0.99582370  0.70885325  0.48853339  1  0  0.150274  0  0.982192  0  0  0.167749  0  1.044335  0  0  0.169394  0  1.045419  0  0  0.088357  0.166537  0  1.043598  0
H  H32  1  0.04593345  0.12963163  0.31968233  1  0  0.1523  0  0.99358  0  0  0.166801  0  1.058874  0  0  0.169823  0  1.057483  0  0  0.084145  0.164543  0  1.059994  0
H  H33  1  0.95407473  0.87036806  0.68031650  1  0  0.152299  0  0.993616  0  0  0.166778  0  1.058933  0  0  0.169802  0  1.057539  0  0  0.08413  0.164521  0  1.060055  0
H  H34  1  0.25425022  0.98366993  0.37533574  1  0  0.148555  0  0.979781  0  0  0.168561  0  1.035219  0  0  0.170669  0  1.035466  0  0  0.08946  0.167031  0  1.035087  0
H  H35  1  0.74575642  0.01632577  0.62466302  1  0  0.148551  0  0.979794  0  0  0.168546  0  1.03525  0  0  0.170653  0  1.035498  0  0  0.089455  0.167014  0  1.03512  0
H  H36  1  0.28641531  0.14177333  0.25007349  1  0  0.153658  0  1.001208  0  0  0.16447  0  1.074561  0  0  0.168588  0  1.071089  0  0  0.080782  0.16128  0  1.077357  0
H  H37  1  0.71358050  0.85822781  0.74992756  1  0  0.153643  0  1.001152  0  0  0.164486  0  1.074461  0  0  0.168604  0  1.070988  0  0  0.080803  0.161294  0  1.077256  0
C  C38  1  0.26108153  0.52460766  0.30854263  1  0  -0.401109  0  3.571386  0  0  -0.3673  0  3.826839  0  0  -0.37343  0  3.838225  0  0  -0.113186  -0.363183  0  3.819378  0
C  C39  1  0.73889879  0.47539093  0.69145678  1  0  -0.401006  0  3.571419  0  0  -0.367176  0  3.826838  0  0  -0.373309  0  3.838229  0  0  -0.113135  -0.36303  0  3.819289  0
C  C40  1  0.37978330  0.82521692  0.14466634  1  0  -0.130231  0  3.603846  0  0  -0.168658  0  3.870584  0  0  -0.168803  0  3.882462  0  0  -0.152711  -0.168435  0  3.862346  0
C  C41  1  0.62022193  0.17478019  0.85534586  1  0  -0.130077  0  3.604041  0  0  -0.16858  0  3.870723  0  0  -0.168697  0  3.882592  0  0  -0.152715  -0.1684  0  3.862525  0
C  C42  1  0.15736786  0.84589028  0.10792506  1  0  -0.108805  0  3.705416  0  0  -0.146529  0  3.958534  0  0  -0.148632  0  3.973943  0  0  -0.178238  -0.144955  0  3.947948  0
C  C43  1  0.84264812  0.15410134  0.89207651  1  0  -0.108408  0  3.705019  0  0  -0.146238  0  3.958178  0  0  -0.148384  0  3.973628  0  0  -0.178028  -0.144662  0  3.94761  0
C  C44  1  0.99477689  0.78477308  0.19466173  1  0  -0.133942  0  3.62436  0  0  -0.172208  0  3.887821  0  0  -0.172565  0  3.900653  0  0  -0.15602  -0.171811  0  3.87933  0
C  C45  1  0.00522023  0.21522796  0.80531733  1  0  -0.133948  0  3.624259  0  0  -0.172154  0  3.887724  0  0  -0.172496  0  3.900568  0  0  -0.156098  -0.171802  0  3.879225  0
C  C46  1  0.59720830  0.25560392  0.41643316  1  0  -0.712933  0  3.627827  0  0  -0.749318  0  3.848018  0  0  -0.759445  0  3.854368  0  0  -0.300507  -0.742058  0  3.84377  0
C  C47  1  0.40279354  0.74442522  0.58356624  1  0  -0.712913  0  3.627805  0  0  -0.749161  0  3.848048  0  0  -0.759285  0  3.854386  0  0  -0.300463  -0.741901  0  3.843804  0
C  C48  1  0.17073166  0.26504236  0.52377307  1  0  -0.704186  0  3.603403  0  0  -0.740326  0  3.824078  0  0  -0.750261  0  3.830194  0  0  -0.297313  -0.733087  0  3.819721  0
C  C49  1  0.82927036  0.73495339  0.47622802  1  0  -0.70426  0  3.60318  0  0  -0.740412  0  3.823878  0  0  -0.750354  0  3.829992  0  0  -0.297303  -0.733166  0  3.819528  0
C  C50  1  0.21466015  0.12016227  0.32885155  1  0  -0.712104  0  3.604518  0  0  -0.749011  0  3.834034  0  0  -0.757954  0  3.834597  0  0  -0.301396  -0.742482  0  3.83391  0
C  C51  1  0.78534496  0.87983746  0.67115036  1  0  -0.712042  0  3.604533  0  0  -0.748967  0  3.834056  0  0  -0.757914  0  3.834617  0  0  -0.301378  -0.742435  0  3.833936  0
S  S52  1  0.00058057  0.54523088  0.25693468  1  0  0.021977  0  2.944794  0  0  0.040335  0  3.379916  0  0  0.04166  0  3.36669  0  0  -0.032498  0.037866  0  3.390624  0
S  S53  1  0.99941666  0.45477020  0.74305499  1  0  0.022053  0  2.944668  0  0  0.040354  0  3.379769  0  0  0.04168  0  3.366535  0  0  -0.03245  0.037877  0  3.390483  0
S  S54  1  0.46658063  0.59881532  0.21154355  1  0  0.041059  0  2.922362  0  0  0.058221  0  3.357136  0  0  0.059788  0  3.340222  0  0  -0.035725  0.057279  0  3.369538  0
S  S55  1  0.53342148  0.40117644  0.78846426  1  0  0.040901  0  2.922601  0  0  0.058057  0  3.357461  0  0  0.05961  0  3.340541  0  0  -0.035758  0.057118  0  3.369859  0
Cl  Cl56  1  0.21980891  0.34697821  0.01825486  1  0  -0.447796  0  1.608383  0  0  -0.376567  0  2.021992  0  0  -0.386374  0  1.974476  0  0  -0.256433  -0.370202  0  2.054781  0
Cl  Cl57  1  0.78019626  0.65301217  0.98174782  1  0  -0.447773  0  1.60847  0  0  -0.376557  0  2.022109  0  0  -0.386375  0  1.974609  0  0  -0.256424  -0.370192  0  2.054896  0
Cl  Cl58  1  0.72104761  0.19025997  0.15256432  1  0  -0.491644  0  1.326722  0  0  -0.412497  0  1.668742  0  0  -0.430905  0  1.639347  0  0  -0.292784  -0.399625  0  1.688558  0
Cl  Cl59  1  0.27894821  0.80973180  0.84743372  1  0  -0.491632  0  1.326665  0  0  -0.412506  0  1.668706  0  0  -0.430916  0  1.639312  0  0  -0.292778  -0.399636  0  1.688522  0
