# generated using pymatgen
data_ZnH5C7ClO4
_symmetry_space_group_name_H-M   'P 1'
_cell_length_a   18.53665675
_cell_length_b   18.74579634
_cell_length_c   18.87980103
_cell_angle_alpha   108.56807776
_cell_angle_beta   108.36385995
_cell_angle_gamma   108.49673490
_symmetry_Int_Tables_number   1
_chemical_formula_structural   ZnH5C7ClO4
_chemical_formula_sum   'Zn6 H30 C42 Cl6 O24'
_cell_volume   5227.98213209
_cell_formula_units_Z   6
loop_
 _symmetry_equiv_pos_site_id
 _symmetry_equiv_pos_as_xyz
  1  'x, y, z'
loop_
 _atom_site_type_symbol
 _atom_site_label
 _atom_site_symmetry_multiplicity
 _atom_site_fract_x
 _atom_site_fract_y
 _atom_site_fract_z
 _atom_site_occupancy
 _atom_site_pbe_bader_charge
 _atom_site_pbe_bader_spin_density
 _atom_site_pbe_cm5_charge
 _atom_site_pbe_ddec_charge
 _atom_site_pbe_ddec_spin_density
 _atom_site_pbe_ddec_sum_bond_order
 _atom_site_pbe_magmom
Zn  Zn0  1  0.06213076  0.00260985  0.56607617  1  1.308539  0  0.721088  0.95249  0  2.154397  0
Zn  Zn1  1  0.93261678  0.98643087  0.43514569  1  1.304801  0  0.72112  0.956714  0  2.136465  0
Zn  Zn2  1  0.50184254  0.55169660  0.57364464  1  1.319158  0  0.728159  0.967826  0  2.12741  0
Zn  Zn3  1  0.49352421  0.43630579  0.43671981  1  1.314005  0  0.728335  0.963232  0  2.138759  0
Zn  Zn4  1  0.95409086  0.44211450  0.00910634  1  1.303698  0  0.713248  0.94259  0  2.157179  0
Zn  Zn5  1  0.06543584  0.56061421  0.99205577  1  1.297347  0  0.715425  0.948489  0  2.158724  0
H  H6  1  0.68797684  0.75356815  0.58113298  1  0.120674  0  0.113851  0.124857  0  0.977911  0
H  H7  1  0.26094949  0.20269772  0.55152847  1  0.089848  0  0.12076  0.154697  0  0.970822  0
H  H8  1  0.91116523  0.63244769  0.15950981  1  0.11057  0  0.109263  0.107516  0  0.976894  0
H  H9  1  0.97444098  0.24284128  0.83161055  1  0.116071  0  0.114733  0.11331  0  0.965825  0
H  H10  1  0.05260747  0.77577037  0.16177557  1  0.080419  0  0.111278  0.133084  0  0.995908  0
H  H11  1  0.05432790  0.37023491  0.77435869  1  0.085504  0  0.112989  0.13656  0  0.978342  0
H  H12  1  0.88682560  0.74579229  0.24219196  1  0.079475  0  0.106192  0.111333  0  0.987734  0
H  H13  1  0.02105072  0.15916231  0.73410520  1  0.098408  0  0.110683  0.119456  0  0.9894  0
H  H14  1  0.27793423  0.89702126  0.38679102  1  0.033375  0  0.083943  0.109201  0  1.003634  0
H  H15  1  0.27565742  0.98981176  0.38317900  1  0.005468  0  0.079076  0.102415  0  1.011334  0
H  H16  1  0.32143225  0.99122164  0.48186674  1  0.021856  0  0.086566  0.113573  0  1.000296  0
H  H17  1  0.27387707  0.18158355  0.36042912  1  0.096736  0  0.117828  0.128643  0  0.9719  0
H  H18  1  0.17622943  0.98111340  0.44859767  1  0.043557  0  0.079504  0.073588  0  1.031724  0
H  H19  1  0.17671126  0.88928162  0.45289951  1  0.021542  0  0.089489  0.087627  0  0.965788  0
H  H20  1  0.11670506  0.81365491  0.29527323  1  0.055813  0  0.095816  0.096281  0  0.996831  0
H  H21  1  0.11692752  0.90554644  0.29063696  1  0.016273  0  0.089976  0.083961  0  0.999804  0
H  H22  1  0.80086456  0.10381631  0.65560210  1  0.025615  0  0.076526  0.099401  0  1.030428  0
H  H23  1  0.78108567  0.19302380  0.67355690  1  0.020143  0  0.08295  0.110393  0  1.003329  0
H  H24  1  0.69797060  0.09001292  0.59462775  1  0.039147  0  0.085084  0.112047  0  1.002824  0
H  H25  1  0.75786015  0.17226348  0.52754640  1  0.035774  0  0.088697  0.077214  0  0.972633  0
H  H26  1  0.77853154  0.08424938  0.50968238  1  0.04141  0  0.086186  0.080801  0  0.994499  0
H  H27  1  0.90340486  0.21741133  0.54744896  1  0.044187  0  0.097137  0.099634  0  0.975288  0
H  H28  1  0.15441674  0.49349342  0.24837098  1  0.115495  0  0.113745  0.14997  0  0.986014  0
H  H29  1  0.90612683  0.26801218  0.64592671  1  0.03  0  0.092012  0.089931  0  1.000632  0
H  H30  1  0.79811999  0.45960020  0.77037623  1  0.121321  0  0.109549  0.145148  0  1.000726  0
H  H31  1  0.36423546  0.51286265  0.28678275  1  0.153943  0  0.116335  0.144327  0  0.982859  0
H  H32  1  0.63715734  0.52158573  0.78607668  1  0.149831  0  0.119228  0.1462  0  0.97544  0
H  H33  1  0.71860161  0.63390047  0.45141679  1  0.110216  0  0.116285  0.137923  0  0.974364  0
H  H34  1  0.27868827  0.31638435  0.51037893  1  0.10406  0  0.114854  0.134217  0  0.97643  0
H  H35  1  0.87548822  0.76631356  0.55068979  1  0.12433  0  0.122272  0.157252  0  0.967021  0
C  C36  1  0.99480918  0.88849310  0.37125114  1  1.531873  0  0.219427  0.598637  0  4.134552  0
C  C37  1  0.11065392  0.50233620  0.13160856  1  1.545835  0  0.211019  0.658956  0  4.138971  0
C  C38  1  0.01552364  0.64188909  0.09170847  1  1.50394  0  0.206115  0.636068  0  4.163028  0
C  C39  1  0.03397512  0.40880600  0.88561070  1  1.528831  0  0.212688  0.647922  0  4.149392  0
C  C40  1  0.26155694  0.53906126  0.22951117  1  0.033822  0  0.028073  0.204918  0  4.041944  0
C  C41  1  0.71646143  0.46297339  0.82450122  1  0.016497  0  0.020067  0.190121  0  4.056965  0
C  C42  1  0.17753115  0.51381246  0.20821511  1  0.062231  0  -0.0974  -0.29734  0  3.840841  0
C  C43  1  0.78584432  0.45561149  0.82211210  1  0.064794  0  -0.093651  -0.282321  0  3.846855  0
C  C44  1  0.32155017  0.53778130  0.30008400  1  0.038239  0  -0.084739  -0.171093  0  3.965154  0
C  C45  1  0.66100429  0.47760131  0.76272354  1  0.136135  0  -0.079781  -0.163777  0  3.955795  0
C  C46  1  0.33439141  0.56427068  0.38054435  1  0.056481  0  0.010725  0.018586  0  3.962234  0
C  C47  1  0.95699231  0.10449488  0.57656801  1  1.517947  0  0.220228  0.593466  0  4.124457  0
C  C48  1  0.63616505  0.44403877  0.67904588  1  -0.027443  0  0.008329  0.011203  0  3.959357  0
C  C49  1  0.91697104  0.88166586  0.53542039  1  1.57259  0  0.214255  0.665956  0  4.137774  0
C  C50  1  0.13367162  0.10374822  0.51156851  1  1.554795  0  0.209637  0.652024  0  4.160622  0
C  C51  1  0.71947892  0.73732747  0.54288891  1  0.022001  0  -0.06821  -0.073651  0  3.968652  0
C  C52  1  0.25891154  0.20707759  0.41144181  1  0.039198  0  -0.06669  -0.082669  0  3.969153  0
C  C53  1  0.69412950  0.65466173  0.49532520  1  -0.089297  0  -0.084596  -0.211291  0  3.867222  0
C  C54  1  0.29765995  0.29111963  0.46277622  1  -0.045306  0  -0.082599  -0.200726  0  3.881471  0
C  C55  1  0.78164024  0.80740048  0.54172132  1  0.017195  0  0.026192  0.179176  0  4.054434  0
C  C56  1  0.19270180  0.14855831  0.42043380  1  -0.001665  0  0.031226  0.184375  0  4.038941  0
C  C57  1  0.85625827  0.81348373  0.54211918  1  0.051727  0  -0.095413  -0.298704  0  3.844588  0
C  C58  1  0.01633371  0.83723948  0.31027062  1  -0.116846  0  0.002234  0.010299  0  3.836904  0
C  C59  1  0.19952524  0.15611084  0.49624295  1  0.081568  0  -0.094355  -0.300854  0  3.845477  0
C  C60  1  0.95576649  0.69884335  0.18233592  1  -0.058791  0  -0.065896  0.005009  0  3.989961  0
C  C61  1  0.99426446  0.26193420  0.78887864  1  -0.17431  0  -0.058801  0.0079  0  3.971192  0
C  C62  1  0.01052915  0.71259192  0.14904620  1  -0.006014  0  -0.096686  -0.247982  0  3.897778  0
C  C63  1  0.02780334  0.34527337  0.81033281  1  0.096175  0  -0.095074  -0.251782  0  3.903349  0
C  C64  1  0.95001670  0.76251695  0.24470257  1  0.044291  0  -0.089704  -0.135085  0  3.982035  0
C  C65  1  0.98937302  0.19621878  0.71809610  1  -0.055931  0  -0.070561  -0.096658  0  3.93679  0
C  C66  1  0.10842557  0.86916783  0.32598024  1  0.003226  0  -0.158171  -0.176065  0  3.946084  0
C  C67  1  0.18152822  0.92443074  0.41635701  1  -0.000196  0  -0.173358  -0.094147  0  3.960444  0
C  C68  1  0.26884053  0.95192929  0.41707728  1  -0.063176  0  -0.245338  -0.352698  0  3.986043  0
C  C69  1  0.94818311  0.17315440  0.63499933  1  -0.001089  0  -0.009719  -0.021728  0  3.883053  0
C  C70  1  0.89079929  0.20655299  0.59721898  1  0.004424  0  -0.16117  -0.177978  0  3.967032  0
C  C71  1  0.79434192  0.14558695  0.55910520  1  -0.036626  0  -0.165013  -0.08981  0  3.948011  0
C  C72  1  0.76716470  0.13245801  0.62428900  1  -0.087312  0  -0.250128  -0.357094  0  3.990083  0
C  C73  1  0.39969958  0.55147945  0.43934590  1  1.591369  0  0.213853  0.590609  0  4.158997  0
C  C74  1  0.58631586  0.47230426  0.62475296  1  1.580038  0  0.212845  0.590488  0  4.169862  0
C  C75  1  0.62493450  0.58758969  0.49486962  1  1.538926  0  0.21576  0.647863  0  4.139973  0
C  C76  1  0.36745053  0.35626215  0.46245710  1  1.529695  0  0.214786  0.645839  0  4.14014  0
C  C77  1  0.85692590  0.45730134  0.88723387  1  1.555121  0  0.209202  0.656665  0  4.145899  0
Cl  Cl78  1  0.28192990  0.61263536  0.42111786  1  -0.166991  0  0.006104  -0.037717  0  1.487709  0
Cl  Cl79  1  0.65892672  0.36750148  0.62644709  1  -0.176683  0  0.007618  -0.036279  0  1.531155  0
Cl  Cl80  1  0.75096508  0.88593013  0.54251862  1  -0.184155  0  0.002101  -0.062326  0  1.441706  0
Cl  Cl81  1  0.10587876  0.06901341  0.32530647  1  -0.172881  0  0.020256  -0.042327  0  1.483892  0
Cl  Cl82  1  0.30765391  0.56631140  0.16913041  1  -0.173988  0  -0.000141  -0.057633  0  1.436932  0
Cl  Cl83  1  0.69215228  0.46643887  0.90647376  1  -0.185468  0  -0.008223  -0.07028  0  1.408651  0
O  O84  1  0.03863896  0.91287227  0.44897691  1  -1.167417  0  -0.305622  -0.565245  0  2.346914  0
O  O85  1  0.01205811  0.08198835  0.60775032  1  -1.180333  0  -0.317593  -0.582614  0  2.361043  0
O  O86  1  0.99726533  0.91381379  0.58653650  1  -1.122198  0  -0.321365  -0.529361  0  2.190122  0
O  O87  1  0.05533251  0.07801705  0.46439178  1  -1.162707  0  -0.310275  -0.573031  0  2.324311  0
O  O88  1  0.88633803  0.90225579  0.47956092  1  -1.157409  0  -0.309334  -0.571835  0  2.326965  0
O  O89  1  0.16194237  0.08784559  0.57380053  1  -1.125978  0  -0.322042  -0.53192  0  2.188536  0
O  O90  1  0.42535805  0.59115956  0.51889167  1  -1.121092  0  -0.313691  -0.516876  0  2.249603  0
O  O91  1  0.56561994  0.43716537  0.54714230  1  -1.165239  0  -0.312041  -0.567241  0  2.38726  0
O  O92  1  0.42460541  0.50089028  0.40481155  1  -1.174734  0  -0.310767  -0.564947  0  2.339018  0
O  O93  1  0.56913416  0.53106129  0.66108155  1  -1.133084  0  -0.316432  -0.521541  0  2.230498  0
O  O94  1  0.60085898  0.60872697  0.55093839  1  -1.177559  0  -0.314917  -0.573124  0  2.309585  0
O  O95  1  0.90838810  0.07252121  0.49658926  1  -1.130989  0  -0.311564  -0.51958  0  2.25763  0
O  O96  1  0.39354009  0.33503118  0.40689885  1  -1.1243  0  -0.32056  -0.53131  0  2.20193  0
O  O97  1  0.59227095  0.51148813  0.43504611  1  -1.12924  0  -0.320405  -0.530544  0  2.204397  0
O  O98  1  0.39838589  0.43144405  0.52035256  1  -1.173172  0  -0.315816  -0.573435  0  2.290422  0
O  O99  1  0.84158713  0.41247313  0.92518055  1  -1.112666  0  -0.318919  -0.527768  0  2.222788  0
O  O100  1  0.13062992  0.54455235  0.09395306  1  -1.161936  0  -0.310365  -0.570768  0  2.335632  0
O  O101  1  0.93107246  0.50483596  0.90032277  1  -1.161265  0  -0.311484  -0.566811  0  2.246867  0
O  O102  1  0.03360860  0.44745977  0.10855778  1  -1.124063  0  -0.323635  -0.529767  0  2.201291  0
O  O103  1  0.97333543  0.56674021  0.07855428  1  -1.17722  0  -0.316415  -0.580332  0  2.308257  0
O  O104  1  0.08001557  0.48741044  0.90599105  1  -1.128713  0  -0.326518  -0.536301  0  2.22041  0
O  O105  1  0.06600822  0.66245664  0.05908091  1  -1.12574  0  -0.32943  -0.537211  0  2.209049  0
O  O106  1  0.99474196  0.38461874  0.92461107  1  -1.171771  0  -0.317548  -0.580756  0  2.280302  0
O  O107  1  0.93265810  0.90492458  0.34092157  1  -1.124578  0  -0.320771  -0.535648  0  2.237388  0
