# generated using pymatgen
data_AgH8C10N3
_symmetry_space_group_name_H-M   'P 1'
_cell_length_a   5.49705877
_cell_length_b   11.56135100
_cell_length_c   14.98507120
_cell_angle_alpha   108.87481269
_cell_angle_beta   89.99714013
_cell_angle_gamma   89.99944735
_symmetry_Int_Tables_number   1
_chemical_formula_structural   AgH8C10N3
_chemical_formula_sum   'Ag4 H32 C40 N12'
_cell_volume   901.14238406
_cell_formula_units_Z   4
loop_
 _symmetry_equiv_pos_site_id
 _symmetry_equiv_pos_as_xyz
  1  'x, y, z'
loop_
 _atom_site_type_symbol
 _atom_site_label
 _atom_site_symmetry_multiplicity
 _atom_site_fract_x
 _atom_site_fract_y
 _atom_site_fract_z
 _atom_site_occupancy
 _atom_site_hle17_bader_spin_density
 _atom_site_hle17_ddec_charge
 _atom_site_hle17_ddec_spin_density
 _atom_site_hle17_ddec_sum_bond_order
 _atom_site_hle17_magmom
 _atom_site_hse06_10hf_bader_spin_density
 _atom_site_hse06_10hf_ddec_charge
 _atom_site_hse06_10hf_ddec_spin_density
 _atom_site_hse06_10hf_ddec_sum_bond_order
 _atom_site_hse06_10hf_magmom
 _atom_site_hse06_bader_spin_density
 _atom_site_hse06_ddec_charge
 _atom_site_hse06_ddec_spin_density
 _atom_site_hse06_ddec_sum_bond_order
 _atom_site_hse06_magmom
 _atom_site_pbe_bader_spin_density
 _atom_site_pbe_cm5_charge
 _atom_site_pbe_ddec_charge
 _atom_site_pbe_ddec_spin_density
 _atom_site_pbe_ddec_sum_bond_order
 _atom_site_pbe_magmom
Ag  Ag0  1  0.74852515  0.01797319  0.99753137  1  0  0.416618  0  1.759198  0  0  0.274436  0  2.285121  0  0  0.306043  0  2.224602  0  0  0.429112  0.253516  0  2.326045  0
Ag  Ag1  1  0.75146474  0.51799217  0.49752701  1  0  0.416634  0  1.75903  0  0  0.274462  0  2.284925  0  0  0.30607  0  2.224407  0  0  0.429099  0.253541  0  2.325845  0
Ag  Ag2  1  0.25148618  0.98200264  0.00246921  1  0  0.416635  0  1.759106  0  0  0.274432  0  2.285018  0  0  0.306035  0  2.224505  0  0  0.429139  0.253515  0  2.32594  0
Ag  Ag3  1  0.24850110  0.48202114  0.50248220  1  0  0.416696  0  1.758894  0  0  0.274512  0  2.284766  0  0  0.306115  0  2.224249  0  0  0.429065  0.253591  0  2.325686  0
H  H4  1  0.42103842  0.79702462  0.81004638  1  0  0.064372  0  0.975322  0  0  0.073608  0  1.044418  0  0  0.074788  0  1.044109  0  0  0.103489  0.072676  0  1.044747  0
H  H5  1  0.07896358  0.29704375  0.31005080  1  0  0.064328  0  0.975321  0  0  0.073604  0  1.044398  0  0  0.074786  0  1.044084  0  0  0.103489  0.072667  0  1.044737  0
H  H6  1  0.57895471  0.20296581  0.18994915  1  0  0.064367  0  0.975283  0  0  0.073649  0  1.044342  0  0  0.07483  0  1.04403  0  0  0.103485  0.072714  0  1.04468  0
H  H7  1  0.92102227  0.70297408  0.68994484  1  0  0.064428  0  0.975276  0  0  0.073611  0  1.044422  0  0  0.07479  0  1.044114  0  0  0.10352  0.072681  0  1.044746  0
H  H8  1  0.38560164  0.57346415  0.72369976  1  0  0.096101  0  0.974369  0  0  0.102189  0  1.04718  0  0  0.105628  0  1.045676  0  0  0.096139  0.099647  0  1.048548  0
H  H9  1  0.11439924  0.07347456  0.22371275  1  0  0.096139  0  0.974294  0  0  0.102212  0  1.047116  0  0  0.105649  0  1.045617  0  0  0.096154  0.099671  0  1.048479  0
H  H10  1  0.61438968  0.42653082  0.27628754  1  0  0.096185  0  0.974384  0  0  0.102257  0  1.047196  0  0  0.105697  0  1.045694  0  0  0.096166  0.099715  0  1.04856  0
H  H11  1  0.88557570  0.92654238  0.77628934  1  0  0.095998  0  0.974367  0  0  0.102152  0  1.047108  0  0  0.10557  0  1.045628  0  0  0.09612  0.099631  0  1.048454  0
H  H12  1  0.02125765  0.46165713  0.75997409  1  0  0.078087  0  0.980877  0  0  0.091277  0  1.040857  0  0  0.09315  0  1.039926  0  0  0.096857  0.089867  0  1.041575  0
H  H13  1  0.47873122  0.96165537  0.25998466  1  0  0.078166  0  0.980809  0  0  0.091281  0  1.040866  0  0  0.093163  0  1.039931  0  0  0.096871  0.089871  0  1.041581  0
H  H14  1  0.97873549  0.53833235  0.24000785  1  0  0.078133  0  0.980815  0  0  0.091302  0  1.040787  0  0  0.093159  0  1.039881  0  0  0.096889  0.08991  0  1.041489  0
H  H15  1  0.52120734  0.03834332  0.74002626  1  0  0.077974  0  0.981053  0  0  0.09128  0  1.040899  0  0  0.09314  0  1.039988  0  0  0.096842  0.089926  0  1.041561  0
H  H16  1  0.71976559  0.57722165  0.87857893  1  0  0.10074  0  0.987381  0  0  0.110479  0  1.050806  0  0  0.11309  0  1.051249  0  0  0.098041  0.108657  0  1.050647  0
H  H17  1  0.78023693  0.07723131  0.37856683  1  0  0.100762  0  0.987436  0  0  0.110524  0  1.050816  0  0  0.113133  0  1.051262  0  0  0.098048  0.108703  0  1.050657  0
H  H18  1  0.28026028  0.42276057  0.12142056  1  0  0.100797  0  0.987303  0  0  0.110546  0  1.05071  0  0  0.113158  0  1.051151  0  0  0.098058  0.108725  0  1.050549  0
H  H19  1  0.21971436  0.92277195  0.62144322  1  0  0.100761  0  0.98745  0  0  0.110568  0  1.050804  0  0  0.113178  0  1.051247  0  0  0.098066  0.108748  0  1.050644  0
H  H20  1  0.84767218  0.62640716  0.03567208  1  0  0.106372  0  0.96617  0  0  0.118027  0  1.023885  0  0  0.121022  0  1.02423  0  0  0.101516  0.115951  0  1.023775  0
H  H21  1  0.65230241  0.12640601  0.53565718  1  0  0.106331  0  0.966047  0  0  0.118012  0  1.023743  0  0  0.121007  0  1.024086  0  0  0.1015  0.115937  0  1.023636  0
H  H22  1  0.15233368  0.37357325  0.96433030  1  0  0.106482  0  0.966263  0  0  0.11816  0  1.023934  0  0  0.12116  0  1.024268  0  0  0.101559  0.116082  0  1.023828  0
H  H23  1  0.34768162  0.87361277  0.46434804  1  0  0.106453  0  0.966037  0  0  0.118081  0  1.02376  0  0  0.121032  0  1.024156  0  0  0.1015  0.116006  0  1.023651  0
H  H24  1  0.57887042  0.55898182  0.14102626  1  0  0.081765  0  0.965553  0  0  0.095627  0  1.024878  0  0  0.097538  0  1.023567  0  0  0.098631  0.094246  0  1.025801  0
H  H25  1  0.92109541  0.05895646  0.64098734  1  0  0.081617  0  0.965569  0  0  0.09554  0  1.024863  0  0  0.097444  0  1.023561  0  0  0.098574  0.094173  0  1.025751  0
H  H26  1  0.42111725  0.44099583  0.85897277  1  0  0.081596  0  0.965689  0  0  0.095548  0  1.024918  0  0  0.097452  0  1.023613  0  0  0.098589  0.09418  0  1.025805  0
H  H27  1  0.07893410  0.94104674  0.35900067  1  0  0.081745  0  0.965529  0  0  0.095557  0  1.024891  0  0  0.097465  0  1.023586  0  0  0.098641  0.094176  0  1.025813  0
H  H28  1  0.18531683  0.67642479  0.19958204  1  0  0.094735  0  0.984638  0  0  0.104493  0  1.048447  0  0  0.106801  0  1.049692  0  0  0.096017  0.102878  0  1.0477  0
H  H29  1  0.31462978  0.17639095  0.69953085  1  0  0.094761  0  0.984483  0  0  0.104653  0  1.048102  0  0  0.106961  0  1.049338  0  0  0.096011  0.103034  0  1.047368  0
H  H30  1  0.81466538  0.32355926  0.80041925  1  0  0.094598  0  0.984806  0  0  0.104456  0  1.048527  0  0  0.106763  0  1.049772  0  0  0.095963  0.10284  0  1.047781  0
H  H31  1  0.68540883  0.82361038  0.30044469  1  0  0.094727  0  0.98462  0  0  0.104607  0  1.048255  0  0  0.106912  0  1.0495  0  0  0.09605  0.102992  0  1.047505  0
H  H32  1  0.09632265  0.85632083  0.14844383  1  0  0.0675  0  0.932651  0  0  0.081516  0  0.992941  0  0  0.083365  0  0.990962  0  0  0.109529  0.080136  0  0.994406  0
H  H33  1  0.40362897  0.35631037  0.64841558  1  0  0.067679  0  0.932555  0  0  0.081727  0  0.992778  0  0  0.083575  0  0.9908  0  0  0.109575  0.080345  0  0.994245  0
H  H34  1  0.90367957  0.14367512  0.85156508  1  0  0.067559  0  0.932746  0  0  0.081572  0  0.993025  0  0  0.083419  0  0.991046  0  0  0.109527  0.080193  0  0.994491  0
H  H35  1  0.59637871  0.64370652  0.35157116  1  0  0.067517  0  0.93278  0  0  0.081527  0  0.993066  0  0  0.083371  0  0.991098  0  0  0.109567  0.080148  0  0.994529  0
C  C36  1  0.27007523  0.74402641  0.82375694  1  0  0.147311  0  3.732264  0  0  0.11623  0  3.978875  0  0  0.126116  0  3.997989  0  0  0.033696  0.109845  0  3.96578  0
C  C37  1  0.22993458  0.24404510  0.32376531  1  0  0.147356  0  3.731728  0  0  0.116272  0  3.97832  0  0  0.126158  0  3.997434  0  0  0.033716  0.10989  0  3.96522  0
C  C38  1  0.72992335  0.25595945  0.17623745  1  0  0.147448  0  3.7319  0  0  0.116362  0  3.978479  0  0  0.126251  0  3.997592  0  0  0.033773  0.10998  0  3.965378  0
C  C39  1  0.77005127  0.75596909  0.67623677  1  0  0.147228  0  3.732081  0  0  0.116217  0  3.978681  0  0  0.126104  0  3.997792  0  0  0.033638  0.109833  0  3.965592  0
C  C40  1  0.25067268  0.61939709  0.77647833  1  0  -0.177509  0  3.78303  0  0  -0.191009  0  4.04502  0  0  -0.201001  0  4.066566  0  0  -0.11476  -0.184655  0  4.030714  0
C  C41  1  0.24934370  0.11940087  0.27648199  1  0  -0.177503  0  3.78264  0  0  -0.190981  0  4.044642  0  0  -0.200973  0  4.066192  0  0  -0.11468  -0.184622  0  4.030325  0
C  C42  1  0.74933137  0.38059151  0.22351808  1  0  -0.177702  0  3.783134  0  0  -0.191189  0  4.045151  0  0  -0.201188  0  4.066688  0  0  -0.114788  -0.184827  0  4.030831  0
C  C43  1  0.75064580  0.88059962  0.72351669  1  0  -0.177332  0  3.783061  0  0  -0.190894  0  4.045093  0  0  -0.20087  0  4.066645  0  0  -0.11469  -0.184555  0  4.030776  0
C  C44  1  0.04846709  0.55869022  0.79725866  1  0  -0.015129  0  3.805823  0  0  -0.032901  0  4.052344  0  0  -0.026646  0  4.070309  0  0  -0.085461  -0.036675  0  4.04002  0
C  C45  1  0.45158166  0.05870187  0.29724808  1  0  -0.015276  0  3.806106  0  0  -0.032998  0  4.052637  0  0  -0.026757  0  4.070607  0  0  -0.085561  -0.036765  0  4.040297  0
C  C46  1  0.95156425  0.44129110  0.20274796  1  0  -0.015134  0  3.805922  0  0  -0.032859  0  4.05242  0  0  -0.026598  0  4.070399  0  0  -0.085558  -0.036645  0  4.040076  0
C  C47  1  0.54841329  0.94131233  0.70275668  1  0  -0.015158  0  3.806326  0  0  -0.033017  0  4.05287  0  0  -0.026753  0  4.070832  0  0  -0.08551  -0.036837  0  4.040523  0
C  C48  1  0.88028858  0.62266844  0.86361824  1  0  -0.224142  0  3.72351  0  0  -0.233348  0  3.964901  0  0  -0.24471  0  3.986103  0  0  -0.103502  -0.226086  0  3.950663  0
C  C49  1  0.61971368  0.12267140  0.36361528  1  0  -0.224269  0  3.723618  0  0  -0.23345  0  3.965037  0  0  -0.244823  0  3.986223  0  0  -0.103497  -0.226178  0  3.950803  0
C  C50  1  0.11971547  0.37732291  0.13638018  1  0  -0.224336  0  3.723749  0  0  -0.233503  0  3.965192  0  0  -0.244873  0  3.986381  0  0  -0.103451  -0.226231  0  3.950961  0
C  C51  1  0.38026125  0.87734191  0.63639593  1  0  -0.224162  0  3.723837  0  0  -0.233391  0  3.965282  0  0  -0.244749  0  3.98647  0  0  -0.103466  -0.226132  0  3.951061  0
C  C52  1  0.91417519  0.74939367  0.91141316  1  0  0.407502  0  3.834846  0  0  0.383011  0  4.081869  0  0  0.40304  0  4.099663  0  0  0.208557  0.369736  0  4.069351  0
C  C53  1  0.58580222  0.24940536  0.41140894  1  0  0.407725  0  3.834446  0  0  0.383136  0  4.081667  0  0  0.403209  0  4.099391  0  0  0.208517  0.369832  0  4.069194  0
C  C54  1  0.08582158  0.25059860  0.08858816  1  0  0.407826  0  3.834413  0  0  0.383178  0  4.081681  0  0  0.403224  0  4.099448  0  0  0.20853  0.369873  0  4.069204  0
C  C55  1  0.41417454  0.75061796  0.58859140  1  0  0.407765  0  3.834504  0  0  0.38315  0  4.081756  0  0  0.403186  0  4.099538  0  0  0.208598  0.369876  0  4.069243  0
C  C56  1  0.61346259  0.77642312  0.03212747  1  0  0.405551  0  3.832451  0  0  0.382975  0  4.076928  0  0  0.403294  0  4.094442  0  0  0.209066  0.369464  0  4.064633  0
C  C57  1  0.88652696  0.27643306  0.53211259  1  0  0.405605  0  3.83234  0  0  0.382947  0  4.076926  0  0  0.403252  0  4.094462  0  0  0.209019  0.369448  0  4.064616  0
C  C58  1  0.38657602  0.22356917  0.96787852  1  0  0.405681  0  3.832326  0  0  0.383173  0  4.076684  0  0  0.403491  0  4.0942  0  0  0.209148  0.369658  0  4.064391  0
C  C59  1  0.11345708  0.72359117  0.46788465  1  0  0.405671  0  3.832183  0  0  0.383049  0  4.076694  0  0  0.403368  0  4.094201  0  0  0.209054  0.369543  0  4.064402  0
C  C60  1  0.67677330  0.67368231  0.05991568  1  0  -0.222544  0  3.725719  0  0  -0.233823  0  3.969609  0  0  -0.245417  0  3.990527  0  0  -0.101797  -0.226393  0  3.955508  0
C  C61  1  0.82319540  0.17367491  0.55989092  1  0  -0.22268  0  3.725254  0  0  -0.233971  0  3.969224  0  0  -0.245557  0  3.990142  0  0  -0.101854  -0.226545  0  3.955123  0
C  C62  1  0.32322893  0.32630448  0.94008628  1  0  -0.222779  0  3.726033  0  0  -0.234119  0  3.969912  0  0  -0.245713  0  3.990825  0  0  -0.101838  -0.226688  0  3.955814  0
C  C63  1  0.17680501  0.82634201  0.44010583  1  0  -0.222766  0  3.725504  0  0  -0.233977  0  3.969376  0  0  -0.245532  0  3.990306  0  0  -0.101773  -0.226547  0  3.955282  0
C  C64  1  0.52615963  0.63700783  0.11952874  1  0  -0.007909  0  3.80235  0  0  -0.025739  0  4.049864  0  0  -0.019192  0  4.06821  0  0  -0.084618  -0.029668  0  4.037098  0
C  C65  1  0.97380100  0.13699998  0.61950392  1  0  -0.0074  0  3.802244  0  0  -0.025269  0  4.049769  0  0  -0.018721  0  4.068121  0  0  -0.08436  -0.029199  0  4.037022  0
C  C66  1  0.47384078  0.36296982  0.88046962  1  0  -0.007636  0  3.80266  0  0  -0.025521  0  4.05017  0  0  -0.018983  0  4.068538  0  0  -0.084552  -0.029444  0  4.037409  0
C  C67  1  0.02618849  0.86302884  0.38050179  1  0  -0.007583  0  3.80257  0  0  -0.02537  0  4.050099  0  0  -0.018822  0  4.068439  0  0  -0.08451  -0.029305  0  4.037345  0
C  C68  1  0.31000854  0.70137122  0.15246150  1  0  -0.184717  0  3.799203  0  0  -0.196988  0  4.054689  0  0  -0.206988  0  4.077582  0  0  -0.117752  -0.190554  0  4.039199  0
C  C69  1  0.18994450  0.20135576  0.65242971  1  0  -0.184925  0  3.799134  0  0  -0.197315  0  4.054619  0  0  -0.207314  0  4.077508  0  0  -0.117838  -0.190883  0  4.039131  0
C  C70  1  0.69000278  0.29862108  0.84754917  1  0  -0.184496  0  3.799487  0  0  -0.196869  0  4.054979  0  0  -0.206869  0  4.077872  0  0  -0.117715  -0.190438  0  4.039494  0
C  C71  1  0.81008320  0.79865475  0.34756078  1  0  -0.184817  0  3.799494  0  0  -0.197187  0  4.054985  0  0  -0.207184  0  4.077875  0  0  -0.117859  -0.190752  0  4.039493  0
C  C72  1  0.26097094  0.80225892  0.12447855  1  0  0.129084  0  3.775109  0  0  0.098417  0  4.026584  0  0  0.107632  0  4.045638  0  0  0.03081  0.092466  0  4.013546  0
C  C73  1  0.23900118  0.30224730  0.62445287  1  0  0.129137  0  3.774976  0  0  0.098435  0  4.026508  0  0  0.107651  0  4.045556  0  0  0.0309  0.092484  0  4.013469  0
C  C74  1  0.73905493  0.19773246  0.87553123  1  0  0.128949  0  3.775066  0  0  0.098284  0  4.026579  0  0  0.107503  0  4.045626  0  0  0.030859  0.092328  0  4.013548  0
C  C75  1  0.76102288  0.69775769  0.37552624  1  0  0.129227  0  3.774912  0  0  0.098554  0  4.026417  0  0  0.10777  0  4.04546  0  0  0.030888  0.092601  0  4.013384  0
N  N76  1  0.75614192  0.82137324  0.97643892  1  0  -0.564516  0  3.305991  0  0  -0.483104  0  3.597876  0  0  -0.516512  0  3.611469  0  0  -0.39967  -0.460251  0  3.587523  0
N  N77  1  0.74385617  0.32138345  0.47642759  1  0  -0.56471  0  3.305843  0  0  -0.483258  0  3.597836  0  0  -0.51668  0  3.611421  0  0  -0.39956  -0.460394  0  3.587487  0
N  N78  1  0.24388759  0.17861813  0.02356684  1  0  -0.564712  0  3.30538  0  0  -0.483257  0  3.597323  0  0  -0.516672  0  3.610911  0  0  -0.399639  -0.460408  0  3.587013  0
N  N79  1  0.25613696  0.67863896  0.52357253  1  0  -0.564805  0  3.305487  0  0  -0.483344  0  3.597447  0  0  -0.516757  0  3.61104  0  0  -0.399649  -0.460496  0  3.587101  0
N  N80  1  0.10884577  0.80737038  0.88873732  1  0  -0.40485  0  3.2325  0  0  -0.322065  0  3.498045  0  0  -0.344837  0  3.512035  0  0  -0.354029  -0.306802  0  3.488222  0
N  N81  1  0.39118667  0.30739207  0.38872360  1  0  -0.404827  0  3.23264  0  0  -0.322079  0  3.498276  0  0  -0.344863  0  3.512249  0  0  -0.354058  -0.30681  0  3.488462  0
N  N82  1  0.89119647  0.19260457  0.11127506  1  0  -0.405076  0  3.232286  0  0  -0.322304  0  3.497949  0  0  -0.345075  0  3.511913  0  0  -0.354159  -0.307028  0  3.488126  0
N  N83  1  0.60881010  0.69262301  0.61126736  1  0  -0.404838  0  3.232348  0  0  -0.32207  0  3.498005  0  0  -0.344833  0  3.511968  0  0  -0.354042  -0.306803  0  3.488169  0
N  N84  1  0.40650716  0.84037513  0.06739856  1  0  -0.394424  0  3.218035  0  0  -0.313299  0  3.48405  0  0  -0.336186  0  3.49915  0  0  -0.349906  -0.298007  0  3.473572  0
N  N85  1  0.09345081  0.34038495  0.56739742  1  0  -0.394643  0  3.218348  0  0  -0.313478  0  3.48438  0  0  -0.336361  0  3.499483  0  0  -0.350038  -0.298185  0  3.473892  0
N  N86  1  0.59350234  0.15960710  0.93260227  1  0  -0.39447  0  3.217946  0  0  -0.31341  0  3.484  0  0  -0.336298  0  3.499098  0  0  -0.350014  -0.29811  0  3.473517  0
N  N87  1  0.90653504  0.65963931  0.43261050  1  0  -0.394645  0  3.218008  0  0  -0.313515  0  3.484063  0  0  -0.336399  0  3.499154  0  0  -0.350016  -0.298224  0  3.473587  0
