# generated using pymatgen
data_CuPH16C22(NO)2
_symmetry_space_group_name_H-M   'P 1'
_cell_length_a   8.89947796
_cell_length_b   15.26953347
_cell_length_c   16.03689899
_cell_angle_alpha   90.00033443
_cell_angle_beta   89.99926408
_cell_angle_gamma   93.52099325
_symmetry_Int_Tables_number   1
_chemical_formula_structural   CuPH16C22(NO)2
_chemical_formula_sum   'Cu4 P4 H64 C88 N8 O8'
_cell_volume   2175.15459281
_cell_formula_units_Z   4
loop_
 _symmetry_equiv_pos_site_id
 _symmetry_equiv_pos_as_xyz
  1  'x, y, z'
loop_
 _atom_site_type_symbol
 _atom_site_label
 _atom_site_symmetry_multiplicity
 _atom_site_fract_x
 _atom_site_fract_y
 _atom_site_fract_z
 _atom_site_occupancy
 _atom_site_pbe_bader_charge
 _atom_site_pbe_bader_spin_density
 _atom_site_pbe_cm5_charge
 _atom_site_pbe_ddec_charge
 _atom_site_pbe_ddec_spin_density
 _atom_site_pbe_ddec_sum_bond_order
 _atom_site_pbe_magmom
Cu  Cu0  1  0.37186690  0.40713573  0.00441027  1  0.606976  0  0.548837  0.234246  0  2.774745  0
Cu  Cu1  1  0.12813683  0.09286758  0.50440967  1  0.607021  0  0.548829  0.23433  0  2.774527  0
Cu  Cu2  1  0.62813895  0.59286495  0.99559091  1  0.607095  0  0.548764  0.234317  0  2.774359  0
Cu  Cu3  1  0.87186589  0.90713509  0.49558839  1  0.606966  0  0.548864  0.234363  0  2.774669  0
P  P4  1  0.58524352  0.39918162  0.06691908  1  1.381838  0  -0.053605  0.105776  0  4.323969  0
P  P5  1  0.91474977  0.10081873  0.56691649  1  1.381559  0  -0.053635  0.105623  0  4.323899  0
P  P6  1  0.41474743  0.60081650  0.93308334  1  1.381848  0  -0.053612  0.105677  0  4.323958  0
P  P7  1  0.08524126  0.89918005  0.43308656  1  1.381637  0  -0.053646  0.10561  0  4.323841  0
H  H8  1  0.65989152  0.51891892  0.35674202  1  0.114332  0  0.10359  0.099594  0  1.029203  0
H  H9  1  0.84009835  0.98107915  0.85674332  1  0.114337  0  0.103607  0.099577  0  1.02927  0
H  H10  1  0.34010505  0.48107919  0.64325729  1  0.114373  0  0.103579  0.099567  0  1.029309  0
H  H11  1  0.15987889  0.01891706  0.14325536  1  0.113655  0  0.103575  0.099617  0  1.029201  0
H  H12  1  0.28080526  0.97713688  0.92952495  1  0.072237  0  0.094671  0.097344  0  1.035715  0
H  H13  1  0.21919977  0.52286418  0.42952325  1  0.072244  0  0.094656  0.097329  0  1.035646  0
H  H14  1  0.71917356  0.02286326  0.07047186  1  0.072207  0  0.09467  0.097306  0  1.035714  0
H  H15  1  0.78081530  0.47713844  0.57047980  1  0.072079  0  0.094672  0.097342  0  1.035696  0
H  H16  1  0.62359730  0.39622159  0.25462480  1  0.103983  0  0.107327  0.119716  0  1.007746  0
H  H17  1  0.87638716  0.10377912  0.75462312  1  0.103934  0  0.107302  0.119693  0  1.007666  0
H  H18  1  0.37639524  0.60378047  0.74537700  1  0.103995  0  0.107327  0.119754  0  1.007648  0
H  H19  1  0.12359255  0.89621905  0.24537806  1  0.103941  0  0.107349  0.119763  0  1.007705  0
H  H20  1  0.02068506  0.31391675  0.89361559  1  0.100023  0  0.110653  0.110353  0  0.990406  0
H  H21  1  0.47931814  0.18608268  0.39361606  1  0.100182  0  0.110678  0.110357  0  0.990453  0
H  H22  1  0.97932056  0.68608197  0.10638684  1  0.100195  0  0.110655  0.110321  0  0.990535  0
H  H23  1  0.52067687  0.81392133  0.60638511  1  0.100132  0  0.110662  0.110354  0  0.990457  0
H  H24  1  0.06193836  0.46649847  0.83571003  1  0.062823  0  0.102936  0.104394  0  1.020177  0
H  H25  1  0.43807297  0.03350128  0.33570808  1  0.062889  0  0.102934  0.104404  0  1.020181  0
H  H26  1  0.93806494  0.53349960  0.16429364  1  0.062786  0  0.102919  0.104404  0  1.020149  0
H  H27  1  0.56193006  0.96650401  0.66428499  1  0.062932  0  0.102921  0.104306  0  1.02026  0
H  H28  1  0.89268693  0.58321997  0.88527560  1  0.165188  0  0.111025  0.093781  0  1.051901  0
H  H29  1  0.60732776  0.91678471  0.38527377  1  0.16486  0  0.111008  0.093741  0  1.051944  0
H  H30  1  0.10731683  0.41678204  0.11472309  1  0.165211  0  0.11098  0.093727  0  1.051967  0
H  H31  1  0.39267728  0.08321861  0.61471806  1  0.16531  0  0.110992  0.093691  0  1.051994  0
H  H32  1  0.84813274  0.34509034  0.16748108  1  0.068888  0  0.105677  0.108819  0  0.998157  0
H  H33  1  0.65185915  0.15490857  0.66748252  1  0.069132  0  0.105637  0.108711  0  0.998247  0
H  H34  1  0.15186847  0.65490905  0.83251822  1  0.069221  0  0.105657  0.108736  0  0.998178  0
H  H35  1  0.34813853  0.84508953  0.33251803  1  0.069183  0  0.105651  0.10874  0  0.998165  0
H  H36  1  0.90209602  0.15315002  0.07120675  1  0.084461  0  0.098047  0.103538  0  1.049983  0
H  H37  1  0.59789763  0.34685429  0.57121339  1  0.08467  0  0.098042  0.103499  0  1.049987  0
H  H38  1  0.09789353  0.84685533  0.92879006  1  0.084643  0  0.098068  0.103533  0  1.049868  0
H  H39  1  0.40211121  0.65314310  0.42879090  1  0.084705  0  0.098046  0.103452  0  1.04976  0
H  H40  1  0.33610081  0.13648334  0.95766875  1  0.062186  0  0.10068  0.10613  0  1.004707  0
H  H41  1  0.16390768  0.36351641  0.45766435  1  0.062466  0  0.10068  0.106103  0  1.004722  0
H  H42  1  0.66389238  0.86351478  0.04233305  1  0.062487  0  0.100677  0.10605  0  1.00471  0
H  H43  1  0.83610066  0.63648624  0.54233807  1  0.06252  0  0.100647  0.106026  0  1.00476  0
H  H44  1  0.81745461  0.28432384  0.99904266  1  0.091105  0  0.105498  0.113075  0  1.023632  0
H  H45  1  0.68254708  0.21568069  0.49904104  1  0.091939  0  0.105489  0.113055  0  1.023633  0
H  H46  1  0.18255036  0.71567882  0.00095727  1  0.091963  0  0.105516  0.113122  0  1.023603  0
H  H47  1  0.31744995  0.78432135  0.50095951  1  0.091878  0  0.105525  0.113125  0  1.023626  0
H  H48  1  0.47011737  0.09170554  0.15151354  1  0.067435  0  0.098005  0.09375  0  1.013763  0
H  H49  1  0.02987424  0.40829071  0.65150978  1  0.067588  0  0.098016  0.093759  0  1.013779  0
H  H50  1  0.52987853  0.90829650  0.84848701  1  0.067417  0  0.098031  0.093785  0  1.013698  0
H  H51  1  0.97012651  0.59170475  0.34848578  1  0.067568  0  0.098027  0.093782  0  1.013736  0
H  H52  1  0.70565536  0.08059326  0.23465593  1  0.065424  0  0.101593  0.098857  0  1.001537  0
H  H53  1  0.79434047  0.41940467  0.73465597  1  0.065334  0  0.101608  0.098854  0  1.001571  0
H  H54  1  0.29434473  0.91940614  0.76534338  1  0.065193  0  0.101608  0.098852  0  1.001589  0
H  H55  1  0.20566066  0.58059407  0.26534084  1  0.06529  0  0.101601  0.098873  0  1.001594  0
H  H56  1  0.42291329  0.23164290  0.07878370  1  0.136844  0  0.098991  0.099442  0  1.077018  0
H  H57  1  0.07708012  0.26835428  0.57878008  1  0.136697  0  0.098999  0.099403  0  1.077115  0
H  H58  1  0.57708726  0.76836043  0.92121623  1  0.13686  0  0.098989  0.099396  0  1.077109  0
H  H59  1  0.92291822  0.73163988  0.42121798  1  0.136742  0  0.099008  0.099408  0  1.077126  0
H  H60  1  0.67128030  0.67507926  0.30379452  1  0.151717  0  0.107153  0.123287  0  1.04206  0
H  H61  1  0.82872401  0.82491651  0.80379067  1  0.151461  0  0.107153  0.123307  0  1.042035  0
H  H62  1  0.32872614  0.32491683  0.69620977  1  0.15151  0  0.107108  0.123271  0  1.042056  0
H  H63  1  0.17126895  0.17507964  0.19620864  1  0.151162  0  0.107124  0.12321  0  1.042127  0
H  H64  1  0.65456794  0.69880750  0.14885010  1  0.129965  0  0.119193  0.098563  0  0.99383  0
H  H65  1  0.84543616  0.80119403  0.64884413  1  0.129907  0  0.11918  0.098516  0  0.993804  0
H  H66  1  0.34544159  0.30119580  0.85115419  1  0.129947  0  0.119167  0.098504  0  0.993866  0
H  H67  1  0.15457059  0.19880469  0.35115393  1  0.129996  0  0.119195  0.09856  0  0.993821  0
H  H68  1  0.89371298  0.20793002  0.24130029  1  0.105053  0  0.10206  0.101765  0  1.016439  0
H  H69  1  0.60628294  0.29206992  0.74130283  1  0.10497  0  0.102059  0.101712  0  1.01658  0
H  H70  1  0.10628928  0.79206872  0.75869776  1  0.105064  0  0.102071  0.101769  0  1.016389  0
H  H71  1  0.39371723  0.70793014  0.25869398  1  0.104955  0  0.102041  0.101714  0  1.016472  0
C  C72  1  0.65135531  0.53274856  0.29029283  1  -0.012539  0  -0.071386  -0.030862  0  3.96814  0
C  C73  1  0.84863366  0.96724785  0.79029088  1  -0.012211  0  -0.071494  -0.031066  0  3.968181  0
C  C74  1  0.34863347  0.46725023  0.70970959  1  -0.012237  0  -0.07144  -0.030984  0  3.968265  0
C  C75  1  0.15135248  0.03274767  0.20970843  1  -0.011936  0  -0.071353  -0.030945  0  3.968278  0
C  C76  1  0.19715832  0.01612335  0.95919040  1  -0.094666  0  -0.097048  -0.13915  0  4.005895  0
C  C77  1  0.30284235  0.48387709  0.45919317  1  -0.094636  0  -0.096969  -0.139026  0  4.005896  0
C  C78  1  0.80282163  0.98387679  0.04080267  1  -0.094647  0  -0.096976  -0.139207  0  4.006054  0
C  C79  1  0.69717040  0.51612488  0.54081300  1  -0.09468  0  -0.097084  -0.139276  0  4.005986  0
C  C80  1  0.63107154  0.46402058  0.23339580  1  -0.016626  0  -0.084669  -0.144846  0  3.961068  0
C  C81  1  0.86891630  0.03597606  0.73339504  1  -0.016838  0  -0.084589  -0.144651  0  3.960759  0
C  C82  1  0.36892397  0.53597818  0.76660725  1  -0.016938  0  -0.084666  -0.144819  0  3.960968  0
C  C83  1  0.13106647  0.96401947  0.26660489  1  -0.016609  0  -0.084671  -0.144869  0  3.961068  0
C  C84  1  0.62097324  0.48326915  0.14825349  1  0.033757  0  0.098573  0.104231  0  3.927468  0
C  C85  1  0.87902455  0.01672832  0.64825131  1  0.034088  0  0.098531  0.104118  0  3.927533  0
C  C86  1  0.37902654  0.51672763  0.85174955  1  0.033737  0  0.098562  0.104188  0  3.927615  0
C  C87  1  0.12097073  0.98326847  0.35174925  1  0.033687  0  0.098487  0.104222  0  3.92738  0
C  C88  1  0.94962076  0.36589520  0.91280879  1  -0.027757  0  -0.06534  -0.016587  0  3.949403  0
C  C89  1  0.55038692  0.13410492  0.41280703  1  -0.027749  0  -0.065326  -0.01653  0  3.949413  0
C  C90  1  0.05038352  0.63410156  0.08719426  1  -0.027806  0  -0.065342  -0.016524  0  3.949431  0
C  C91  1  0.44961371  0.86589907  0.58719227  1  -0.02768  0  -0.065409  -0.016598  0  3.949557  0
C  C92  1  0.97285451  0.45055887  0.88079091  1  -0.046384  0  -0.086269  -0.125739  0  3.983573  0
C  C93  1  0.52715718  0.04944041  0.38079009  1  -0.046412  0  -0.086355  -0.125911  0  3.983609  0
C  C94  1  0.02715088  0.54943788  0.11921089  1  -0.046332  0  -0.086271  -0.125773  0  3.983503  0
C  C95  1  0.47284449  0.95056292  0.61920797  1  -0.046458  0  -0.086268  -0.125748  0  3.98376  0
C  C96  1  0.87984244  0.51519085  0.90689310  1  0.432551  0  0.039699  0.083458  0  3.907358  0
C  C97  1  0.62016808  0.98481133  0.40689156  1  0.43285  0  0.039826  0.083662  0  3.907207  0
C  C98  1  0.12016438  0.48480852  0.09310434  1  0.432554  0  0.039755  0.083494  0  3.907321  0
C  C99  1  0.37983808  0.01519198  0.59310338  1  0.432335  0  0.039838  0.083742  0  3.907406  0
C  C100  1  0.76273580  0.29086044  0.16559558  1  -0.009975  0  -0.080489  -0.090455  0  3.976387  0
C  C101  1  0.73725629  0.20913978  0.66559735  1  -0.009641  0  -0.080395  -0.090213  0  3.976304  0
C  C102  1  0.23726250  0.70914291  0.83440310  1  -0.010067  0  -0.080453  -0.090301  0  3.976341  0
C  C103  1  0.26274341  0.79085634  0.33440134  1  -0.009664  0  -0.080424  -0.090243  0  3.976174  0
C  C104  1  0.98242984  0.11514430  0.03766995  1  -0.094094  0  -0.088342  -0.157157  0  3.949359  0
C  C105  1  0.51756136  0.38486116  0.53767987  1  -0.094603  0  -0.088356  -0.157145  0  3.949484  0
C  C106  1  0.01755410  0.88486108  0.96232561  1  -0.094405  0  -0.0884  -0.157221  0  3.949561  0
C  C107  1  0.48244787  0.61513951  0.46232754  1  -0.094228  0  -0.088328  -0.156965  0  3.949393  0
C  C108  1  0.94481113  0.02564987  0.01953167  1  0.048002  0  -0.013227  0.064842  0  4.020641  0
C  C109  1  0.55518242  0.47435286  0.51953995  1  0.048397  0  -0.013129  0.064929  0  4.02072  0
C  C110  1  0.05516479  0.97435423  0.98045891  1  -0.009148  0  -0.013089  0.064918  0  4.020722  0
C  C111  1  0.44483018  0.52564780  0.48046622  1  -0.009418  0  -0.01319  0.064749  0  4.020757  0
C  C112  1  0.74684629  0.41734709  0.99534681  1  0.01437  0  0.098259  0.104609  0  3.917038  0
C  C113  1  0.75315463  0.08265021  0.49534332  1  0.014662  0  0.098325  0.104742  0  3.916804  0
C  C114  1  0.25315596  0.58265165  0.00465562  1  0.014576  0  0.098326  0.104765  0  3.916927  0
C  C115  1  0.24684530  0.91734788  0.50465661  1  0.014635  0  0.098279  0.104738  0  3.916892  0
C  C116  1  0.22816855  0.10402286  0.97507141  1  0.005642  0  -0.095764  -0.110837  0  4.014533  0
C  C117  1  0.27183424  0.39597963  0.47507391  1  0.005514  0  -0.095795  -0.110798  0  4.014536  0
C  C118  1  0.77181949  0.89597922  0.02492603  1  0.005238  0  -0.095832  -0.11064  0  4.014429  0
C  C119  1  0.72817634  0.60402301  0.52493039  1  0.005278  0  -0.095679  -0.110539  0  4.014517  0
C  C120  1  0.62903178  0.29822060  0.12021573  1  -0.546495  0  -0.028979  -0.039084  0  3.973694  0
C  C121  1  0.87096398  0.20178265  0.62021900  1  -0.546411  0  -0.028991  -0.039185  0  3.973626  0
C  C122  1  0.37096428  0.70178276  0.87978544  1  -0.546498  0  -0.028917  -0.039061  0  3.973635  0
C  C123  1  0.12903603  0.79821610  0.37978218  1  -0.546173  0  -0.029018  -0.039204  0  3.973502  0
C  C124  1  0.83596575  0.34920113  0.97145390  1  0.022752  0  -0.081517  -0.132301  0  3.938449  0
C  C125  1  0.66403610  0.15079932  0.47145455  1  0.021624  0  -0.081518  -0.132278  0  3.938315  0
C  C126  1  0.16403674  0.65079957  0.02854728  1  0.021663  0  -0.081499  -0.132356  0  3.938367  0
C  C127  1  0.33596511  0.84920008  0.52854850  1  0.021778  0  -0.081505  -0.132353  0  3.938535  0
C  C128  1  0.55218906  0.14757546  0.15613026  1  -0.118946  0  -0.094904  -0.090573  0  4.01739  0
C  C129  1  0.94780108  0.35242537  0.65613257  1  -0.11906  0  -0.094965  -0.090684  0  4.017664  0
C  C130  1  0.44781134  0.85242656  0.84386593  1  -0.119072  0  -0.094898  -0.090542  0  4.017496  0
C  C131  1  0.05219870  0.64757141  0.34386548  1  -0.119171  0  -0.094864  -0.090567  0  4.01764  0
C  C132  1  0.68372253  0.14144084  0.20264251  1  -0.02035  0  -0.08566  -0.075183  0  4.007237  0
C  C133  1  0.81626632  0.35855827  0.70264080  1  -0.020383  0  -0.085556  -0.075012  0  4.007327  0
C  C134  1  0.31627330  0.85856055  0.79735992  1  -0.02024  0  -0.085622  -0.075111  0  4.007376  0
C  C135  1  0.18373047  0.64144180  0.29735601  1  -0.020456  0  -0.085616  -0.075128  0  4.007539  0
C  C136  1  0.52469150  0.22583240  0.11538329  1  -0.07573  0  -0.086646  -0.09188  0  3.957893  0
C  C137  1  0.97530893  0.27417146  0.61538498  1  -0.075506  0  -0.086619  -0.091765  0  3.95792  0
C  C138  1  0.47531137  0.77417158  0.88461476  1  -0.075584  0  -0.086652  -0.091894  0  3.958029  0
C  C139  1  0.02469197  0.72582531  0.38461308  1  -0.07545  0  -0.086668  -0.091817  0  3.957995  0
C  C140  1  0.65989143  0.61917102  0.26130427  1  -0.140653  0  -0.084373  -0.132126  0  3.964529  0
C  C141  1  0.84011168  0.88082519  0.76129878  1  -0.140329  0  -0.084286  -0.131982  0  3.964338  0
C  C142  1  0.34010947  0.38082575  0.73870065  1  -0.140318  0  -0.084236  -0.131985  0  3.964268  0
C  C143  1  0.15988241  0.11917096  0.23869866  1  -0.140013  0  -0.084327  -0.131988  0  3.964609  0
C  C144  1  0.64711374  0.63314582  0.17595431  1  0.454592  0  0.044851  0.090964  0  3.911105  0
C  C145  1  0.85288615  0.86685389  0.67594865  1  0.454735  0  0.044841  0.090987  0  3.910919  0
C  C146  1  0.35289309  0.36685355  0.82405185  1  0.454651  0  0.044836  0.091038  0  3.910903  0
C  C147  1  0.14711161  0.13314486  0.32404878  1  0.454717  0  0.044829  0.090968  0  3.911121  0
C  C148  1  0.78895415  0.21314389  0.20714507  1  -0.062035  0  -0.087923  -0.078762  0  3.997539  0
C  C149  1  0.71104687  0.28685453  0.70715307  1  -0.062577  0  -0.088058  -0.078848  0  3.997587  0
C  C150  1  0.21105058  0.78685680  0.79284987  1  -0.062074  0  -0.088036  -0.078895  0  3.997569  0
C  C151  1  0.28895170  0.71314159  0.29284686  1  -0.062511  0  -0.088013  -0.078843  0  3.997691  0
C  C152  1  0.12131827  0.15434356  0.01618642  1  -0.056912  0  -0.023105  -0.03059  0  3.989999  0
C  C153  1  0.37868183  0.34565983  0.51619106  1  -0.056967  0  -0.023045  -0.030691  0  3.989908  0
C  C154  1  0.87867554  0.84565980  0.98380727  1  -0.057004  0  -0.02303  -0.030588  0  3.989976  0
C  C155  1  0.62132867  0.65434215  0.48381136  1  -0.057036  0  -0.023135  -0.030836  0  3.990289  0
C  C156  1  0.16380442  0.24836012  0.03986380  1  1.56634  0  0.19038  0.544262  0  4.264538  0
C  C157  1  0.33619828  0.25164141  0.53986323  1  1.56634  0  0.190378  0.544282  0  4.264329  0
C  C158  1  0.83619710  0.75164190  0.96013675  1  1.566381  0  0.190354  0.544265  0  4.264348  0
C  C159  1  0.66381312  0.74835859  0.46013607  1  1.566454  0  0.190466  0.544547  0  4.264095  0
N  N160  1  0.76672995  0.49861856  0.96186231  1  -1.20695  0  -0.349966  -0.210045  0  3.625598  0
N  N161  1  0.73327832  0.00137722  0.46186038  1  -1.207204  0  -0.350017  -0.210136  0  3.625578  0
N  N162  1  0.23328001  0.50137883  0.03813824  1  -1.207172  0  -0.349995  -0.210079  0  3.62556  0
N  N163  1  0.26672596  0.99861954  0.53814017  1  -1.207094  0  -0.350025  -0.21019  0  3.625716  0
N  N164  1  0.62692064  0.56706885  0.12053388  1  -1.223641  0  -0.347832  -0.207648  0  3.609997  0
N  N165  1  0.87308267  0.93292991  0.62052533  1  -1.223779  0  -0.347836  -0.207606  0  3.61005  0
N  N166  1  0.37308281  0.43293054  0.87947478  1  -1.223754  0  -0.347828  -0.207627  0  3.610095  0
N  N167  1  0.12692176  0.06706816  0.37946961  1  -1.223672  0  -0.347833  -0.207678  0  3.610149  0
O  O168  1  0.11205515  0.27854223  0.10608136  1  -1.183338  0  -0.329746  -0.557691  0  2.148449  0
O  O169  1  0.38795352  0.22145635  0.60607776  1  -1.183356  0  -0.329769  -0.557737  0  2.148375  0
O  O170  1  0.88795535  0.72145976  0.89392231  1  -1.18335  0  -0.329743  -0.557749  0  2.148454  0
O  O171  1  0.61205741  0.77853972  0.39392092  1  -1.183361  0  -0.329758  -0.557806  0  2.148182  0
O  O172  1  0.25593860  0.28883851  0.98890617  1  -1.182801  0  -0.350982  -0.543343  0  2.437043  0
O  O173  1  0.24406282  0.21116471  0.48890721  1  -1.182768  0  -0.351009  -0.543284  0  2.436965  0
O  O174  1  0.74405881  0.71116681  0.01109126  1  -1.182773  0  -0.351008  -0.543333  0  2.437006  0
O  O175  1  0.75594648  0.78883662  0.51109334  1  -1.182884  0  -0.351051  -0.543454  0  2.437005  0
