# generated using pymatgen
data_CuH14C8N2O3
_symmetry_space_group_name_H-M   'P 1'
_cell_length_a   9.40153527
_cell_length_b   10.03933834
_cell_length_c   10.71761425
_cell_angle_alpha   89.98866904
_cell_angle_beta   89.99818142
_cell_angle_gamma   89.99903142
_symmetry_Int_Tables_number   1
_chemical_formula_structural   CuH14C8N2O3
_chemical_formula_sum   'Cu4 H56 C32 N8 O12'
_cell_volume   1011.58407429
_cell_formula_units_Z   4
loop_
 _symmetry_equiv_pos_site_id
 _symmetry_equiv_pos_as_xyz
  1  'x, y, z'
loop_
 _atom_site_type_symbol
 _atom_site_label
 _atom_site_symmetry_multiplicity
 _atom_site_fract_x
 _atom_site_fract_y
 _atom_site_fract_z
 _atom_site_occupancy
 _atom_site_hle17_ddec_charge
 _atom_site_hle17_ddec_spin_density
 _atom_site_hle17_ddec_sum_bond_order
 _atom_site_hle17_magmom
 _atom_site_hse06_10hf_bader_charge
 _atom_site_hse06_10hf_bader_spin_density
 _atom_site_hse06_10hf_ddec_charge
 _atom_site_hse06_10hf_ddec_spin_density
 _atom_site_hse06_10hf_ddec_sum_bond_order
 _atom_site_hse06_10hf_magmom
 _atom_site_hse06_ddec_charge
 _atom_site_hse06_ddec_spin_density
 _atom_site_hse06_ddec_sum_bond_order
 _atom_site_hse06_magmom
 _atom_site_pbe_cm5_charge
 _atom_site_pbe_ddec_charge
 _atom_site_pbe_ddec_spin_density
 _atom_site_pbe_ddec_sum_bond_order
 _atom_site_pbe_magmom
Cu  Cu0  1  0.74196037  0.14660231  0.53342147  1  0.853828  0.683673  1.855959  0.483  1.081587  0.607025  0.835086  0.782313  2.26762  0.605  0.926804  0.859426  2.191467  0.69  0.729617  0.777227  0.722386  2.321873  0.547
Cu  Cu1  1  0.75803151  0.85324202  0.03364559  1  0.853545  -0.683265  1.855504  -0.483  1.08184  -0.606796  0.834683  -0.781949  2.26718  -0.605  0.926441  -0.859043  2.191122  -0.69  0.729633  0.777093  -0.722063  2.321117  -0.546
Cu  Cu2  1  0.25802588  0.64671025  0.96640422  1  0.853697  0.683352  1.855815  0.483  1.081437  0.606851  0.834893  0.782022  2.267447  0.605  0.926567  0.859124  2.191419  0.69  0.729561  0.77714  0.722112  2.321567  0.547
Cu  Cu3  1  0.24196686  0.35344965  0.46659987  1  0.853958  -0.683693  1.855944  -0.483  1.08169  -0.607034  0.834707  -0.782353  2.268255  -0.605  0.926823  -0.859494  2.191733  -0.69  0.729644  0.777114  -0.722401  2.322142  -0.547
H  H4  1  0.49049159  0.13569360  0.61329916  1  0.308623  -0.000305  0.924717  -0.002  0.467278  0.000206  0.294513  0.000675  0.990597  0.0  0.301562  0.000287  0.986306  -0.001  0.294527  0.289268  0.000726  0.994415  0.0
H  H5  1  0.00946712  0.86421609  0.11330707  1  0.308738  0.000289  0.924544  0.002  0.467404  -0.00022  0.294682  -0.000682  0.990408  0.0  0.301737  -0.000293  0.986101  0.001  0.294518  0.289428  -0.000733  0.994247  0.0
H  H6  1  0.50947997  0.63575396  0.88670954  1  0.308849  -0.000296  0.924432  -0.002  0.467676  0.000218  0.294639  0.000682  0.990454  0.0  0.301695  0.000292  0.986146  -0.001  0.294507  0.289383  0.000733  0.994289  0.0
H  H7  1  0.99049807  0.36435254  0.38672272  1  0.308644  0.000305  0.924599  0.002  0.467173  -0.000205  0.294519  -0.000675  0.990517  0.0  0.301562  -0.000287  0.986242  0.001  0.294503  0.28927  -0.000726  0.994347  0.0
H  H8  1  0.53397332  0.99783677  0.53685011  1  0.310335  -0.000762  0.87421  -0.002  0.453639  -0.000417  0.306116  0.000383  0.923203  -0.001  0.312342  2.8e-05  0.920259  -0.001  0.305575  0.301747  0.000662  0.925401  0.0
H  H9  1  0.96572137  0.00203954  0.03694234  1  0.310452  0.000769  0.874336  0.002  0.455534  0.000433  0.306151  -0.000375  0.92339  0.001  0.312377  -2.2e-05  0.920427  0.001  0.305592  0.301779  -0.000653  0.925608  0.0
H  H10  1  0.46574446  0.49792032  0.96306624  1  0.310506  -0.000773  0.874039  -0.002  0.454798  -0.000431  0.306181  0.000375  0.923113  -0.001  0.312414  2.2e-05  0.920149  -0.001  0.305509  0.301801  0.000652  0.925333  0.0
H  H11  1  0.03401121  0.50219349  0.46314344  1  0.310383  0.000767  0.874115  0.002  0.453533  0.000424  0.306156  -0.00038  0.923114  0.001  0.312379  -2.6e-05  0.920178  0.001  0.305624  0.301786  -0.000658  0.925321  0.0
H  H12  1  0.52033026  0.01540390  0.79651469  1  0.056286  0.002079  0.913385  0.002  0.064665  0.002677  0.070903  0.001407  0.96716  0.001  0.070511  0.001001  0.968868  0.001  0.11163  0.071387  0.001733  0.965617  0.002
H  H13  1  0.97962020  0.98426764  0.29668067  1  0.056184  -0.002073  0.913921  -0.002  0.062408  -0.002673  0.071001  -0.001403  0.967446  -0.001  0.070657  -0.000999  0.969101  -0.001  0.111661  0.071419  -0.001728  0.965968  -0.002
H  H14  1  0.47962545  0.51575094  0.70333777  1  0.056125  0.002069  0.913863  0.002  0.062281  0.002669  0.071057  0.001401  0.967291  0.001  0.070677  0.000997  0.968992  0.001  0.111633  0.071486  0.001725  0.965805  0.002
H  H15  1  0.02034596  0.48455684  0.20347364  1  0.056374  -0.002078  0.913461  -0.002  0.064002  -0.002675  0.070972  -0.001405  0.967216  -0.001  0.070586  -0.000999  0.96892  -0.001  0.111665  0.071442  -0.00173  0.965679  -0.002
H  H16  1  0.99882868  0.15482296  0.78525677  1  0.073412  0.001741  0.915994  0.002  0.061179  0.002849  0.085879  0.001402  0.972799  0.001  0.087414  0.001102  0.971515  0.001  0.113139  0.084319  0.001606  0.974176  0.002
H  H17  1  0.50119983  0.84525342  0.28534118  1  0.073235  -0.001727  0.916455  -0.002  0.060739  -0.002835  0.085806  -0.001395  0.973221  -0.001  0.087318  -0.001097  0.971898  -0.001  0.113086  0.08425  -0.001598  0.974609  -0.002
H  H18  1  0.00118401  0.65477254  0.71466446  1  0.073315  0.001734  0.916403  0.002  0.060676  0.002842  0.085777  0.001398  0.973219  0.001  0.087244  0.0011  0.971994  0.001  0.113061  0.084258  0.001602  0.974567  0.002
H  H19  1  0.49883485  0.34519715  0.21473876  1  0.073398  -0.00174  0.916076  -0.002  0.061149  -0.002851  0.085825  -0.001403  0.972968  -0.001  0.087349  -0.001103  0.971659  -0.001  0.113151  0.084272  -0.001607  0.97435  -0.002
H  H20  1  0.48803459  0.80545183  0.67923863  1  0.104224  -0.000121  0.942005  0.0  0.042932  4.8e-05  0.12798  4e-05  0.998261  0.0  0.129324  3.5e-05  0.998277  0.0  0.090102  0.126586  3.2e-05  0.99891  0.0
H  H21  1  0.01206320  0.19434713  0.17935687  1  0.104176  0.000123  0.942125  0.0  0.041884  -4.9e-05  0.12804  -4.1e-05  0.998284  0.0  0.129381  -3.6e-05  0.998322  0.0  0.090044  0.126667  -3.3e-05  0.998893  0.0
H  H22  1  0.51215294  0.30567749  0.82063636  1  0.104127  -0.000118  0.942182  0.0  0.041619  4.9e-05  0.127959  4.1e-05  0.998347  0.0  0.129298  3.5e-05  0.998384  0.0  0.090056  0.126587  3.3e-05  0.998963  0.0
H  H23  1  0.98795088  0.69450089  0.32073479  1  0.104104  0.000123  0.941767  0.0  0.043344  -4.9e-05  0.127872  -4.1e-05  0.998087  0.0  0.129211  -3.6e-05  0.998119  0.0  0.089968  0.126496  -3.3e-05  0.998708  0.0
H  H24  1  0.63833819  0.78572741  0.78028695  1  0.124637  0.000514  0.979095  0.0  0.084682  0.000992  0.140812  0.00055  1.045934  0.001  0.142358  0.000395  1.045785  0.0  0.094414  0.139352  0.000577  1.046573  0.001
H  H25  1  0.86192238  0.21412391  0.28049726  1  0.124323  -0.000513  0.979722  0.0  0.083884  -0.000995  0.140389  -0.000552  1.046709  -0.001  0.14199  -0.000396  1.046472  0.0  0.094224  0.138902  -0.000579  1.047381  -0.001
H  H26  1  0.36202096  0.28586046  0.71948715  1  0.124497  0.000519  0.979599  0.0  0.084201  0.000994  0.140629  0.000552  1.046457  0.001  0.142185  0.000396  1.046276  0.0  0.094289  0.139167  0.00058  1.04711  0.001
H  H27  1  0.13825406  0.71428249  0.21966542  1  0.124322  -0.000508  0.979293  0.0  0.084882  -0.000993  0.140526  -0.000551  1.046157  -0.001  0.142074  -0.000395  1.046007  0.0  0.094285  0.139064  -0.000578  1.046795  -0.001
H  H28  1  0.66481309  0.81702143  0.61884947  1  0.114849  -9.7e-05  0.938899  0.0  0.04277  -6.1e-05  0.137051  -7.7e-05  0.99682  0.0  0.138501  -7.9e-05  0.996961  0.0  0.095061  0.135905  -4.8e-05  0.996912  0.0
H  H29  1  0.83525548  0.18293014  0.11910356  1  0.114832  9.9e-05  0.938912  0.0  0.043031  6.2e-05  0.137078  7.8e-05  0.996757  0.0  0.138538  7.9e-05  0.996887  0.0  0.095206  0.135934  4.8e-05  0.996846  0.0
H  H30  1  0.33533382  0.31702077  0.88088814  1  0.114895  -9.4e-05  0.938844  0.0  0.043415  -6.2e-05  0.137123  -7.8e-05  0.996707  0.0  0.13858  -7.9e-05  0.996831  0.0  0.095174  0.135984  -4.8e-05  0.99679  0.0
H  H31  1  0.16475455  0.68300998  0.38111149  1  0.114673  0.000103  0.938883  0.0  0.046213  6.2e-05  0.136935  7.8e-05  0.996729  0.0  0.13839  7.9e-05  0.996862  0.0  0.095103  0.135787  4.8e-05  0.996828  0.0
H  H32  1  0.99874227  0.90414006  0.76859219  1  0.051036  -9.9e-05  0.929833  0.0  0.019226  1.6e-05  0.068095  1.8e-05  0.983769  0.0  0.068364  2.9e-05  0.984815  0.0  0.096622  0.06744  0.000154  0.983535  0.0
H  H33  1  0.50123367  0.09600663  0.26858972  1  0.051423  0.000104  0.929223  0.0  0.017995  -1.8e-05  0.068367  -1.9e-05  0.983445  0.0  0.06861  -2.9e-05  0.984528  0.0  0.096764  0.067776  -0.000155  0.983136  0.0
H  H34  1  0.00127325  0.40402513  0.73142153  1  0.051214  -0.000105  0.929457  0.0  0.017999  1.7e-05  0.068254  1.9e-05  0.983493  0.0  0.068498  2.9e-05  0.984569  0.0  0.096665  0.067661  0.000155  0.983181  0.0
H  H35  1  0.49871097  0.59585830  0.23142664  1  0.051123  0.000109  0.929721  0.0  0.019259  -1.6e-05  0.06828  -1.8e-05  0.983622  0.0  0.068534  -2.8e-05  0.984693  0.0  0.096672  0.06762  -0.000154  0.983388  0.0
H  H36  1  0.96945674  0.88420454  0.53722484  1  0.103672  -9.8e-05  0.955506  0.0  0.026541  -0.000128  0.120501  -9.6e-05  1.024881  0.0  0.122468  -6.8e-05  1.024504  0.0  0.085168  0.119014  -0.000116  1.025304  0.0
H  H37  1  0.53056266  0.11581730  0.03716846  1  0.103627  9.9e-05  0.955434  0.0  0.026718  0.000126  0.1206  9.4e-05  1.02464  0.0  0.122567  6.7e-05  1.024263  0.0  0.085176  0.119116  0.000114  1.025059  0.0
H  H38  1  0.03058787  0.38420206  0.96282798  1  0.103497  -9.7e-05  0.955378  0.0  0.026206  -0.000126  0.120451  -9.4e-05  1.024653  0.0  0.122416  -6.7e-05  1.024277  0.0  0.085158  0.118968  -0.000114  1.025072  0.0
H  H39  1  0.46944117  0.61576638  0.46280508  1  0.103716  9.8e-05  0.955474  0.0  0.026025  0.000127  0.120554  9.6e-05  1.024836  0.0  0.122517  6.8e-05  1.024463  0.0  0.08526  0.119072  0.000116  1.025255  0.0
H  H40  1  0.12447014  0.79793887  0.58909186  1  0.098205  7.3e-05  0.967229  0.0  0.027387  0.000144  0.119559  6.9e-05  1.030204  0.0  0.121438  4.6e-05  1.02976  0.0  0.083439  0.118313  8e-05  1.030466  0.0
H  H41  1  0.37566282  0.20224495  0.08899421  1  0.09825  -6.9e-05  0.966433  0.0  0.026724  -0.000144  0.119472  -7e-05  1.029634  0.0  0.12135  -4.6e-05  1.029192  0.0  0.083456  0.118226  -8.1e-05  1.029901  0.0
H  H42  1  0.87567924  0.29778304  0.91099168  1  0.098067  7.1e-05  0.966358  0.0  0.026822  0.000145  0.119268  7e-05  1.029654  0.0  0.121143  4.6e-05  1.029214  0.0  0.083351  0.118018  8.1e-05  1.029928  0.0
H  H43  1  0.62443727  0.70205531  0.41089635  1  0.098043  -7.2e-05  0.96699  0.0  0.027668  -0.000144  0.119419  -6.9e-05  1.029989  0.0  0.121287  -4.6e-05  1.029559  0.0  0.083361  0.118168  -8e-05  1.030263  0.0
H  H44  1  0.14104178  0.95512934  0.51491709  1  0.090187  -3e-06  0.972704  0.0  0.018649  4.6e-05  0.112609  2.3e-05  1.035177  0.0  0.113433  1.8e-05  1.036058  0.0  0.081538  0.111941  4e-06  1.034701  0.0
H  H45  1  0.35890027  0.04501354  0.01498769  1  0.090337  6e-06  0.972198  0.0  0.019383  -4.7e-05  0.112804  -2.3e-05  1.034597  0.0  0.113634  -1.8e-05  1.035478  0.0  0.081603  0.112161  -4e-06  1.034089  0.0
H  H46  1  0.85892173  0.45500474  0.98502946  1  0.090113  -3e-06  0.97226  0.0  0.018901  4.7e-05  0.112663  2.3e-05  1.03459  0.0  0.113497  1.8e-05  1.035462  0.0  0.081561  0.112013  4e-06  1.034097  0.0
H  H47  1  0.64105488  0.54485363  0.48507906  1  0.090288  5e-06  0.972575  0.0  0.018158  -4.6e-05  0.112682  -2.3e-05  1.035059  0.0  0.113522  -1.8e-05  1.035925  0.0  0.08158  0.112009  -5e-06  1.034588  0.0
H  H48  1  0.20036527  0.03329831  0.85873099  1  0.091315  -5.6e-05  0.957822  0.0  0.020415  -4.2e-05  0.112625  -4.9e-05  1.021034  0.0  0.114279  -3.3e-05  1.020693  0.0  0.08328  0.111402  -3e-06  1.021167  0.0
H  H49  1  0.29953563  0.96696929  0.35881563  1  0.091279  5.8e-05  0.958053  0.0  0.023413  4.3e-05  0.112531  5e-05  1.021313  0.0  0.114192  3.3e-05  1.020964  0.0  0.08313  0.11132  4e-06  1.021438  0.0
H  H50  1  0.79959756  0.53304212  0.64115371  1  0.09128  -6e-05  0.958069  0.0  0.023183  -4.3e-05  0.112511  -5e-05  1.02139  0.0  0.114175  -3.3e-05  1.021041  0.0  0.083147  0.111304  -4e-06  1.021519  0.0
H  H51  1  0.70032874  0.46672640  0.14123740  1  0.091238  5.5e-05  0.957832  0.0  0.020586  4.2e-05  0.112524  4.9e-05  1.021096  0.0  0.11418  3.3e-05  1.020753  0.0  0.083262  0.111306  3e-06  1.021232  0.0
H  H52  1  0.28033035  0.04396380  0.70904540  1  0.098303  0.000423  0.975404  0.0  0.032155  0.000925  0.120411  0.000689  1.037006  0.0  0.122415  0.000517  1.036959  0.0  0.083429  0.119242  0.000601  1.036663  0.0
H  H53  1  0.21959617  0.95631388  0.20911929  1  0.098608  -0.000419  0.974926  0.0  0.030983  -0.00093  0.120556  -0.000691  1.036675  0.0  0.122552  -0.000518  1.036627  0.0  0.08338  0.119404  -0.000602  1.036303  0.0
H  H54  1  0.71959186  0.54367883  0.79082149  1  0.098596  0.00042  0.975262  0.0  0.029602  0.000928  0.120651  0.000691  1.036862  0.0  0.122653  0.000518  1.036807  0.0  0.083375  0.119498  0.000601  1.036501  0.0
H  H55  1  0.78033115  0.45603578  0.29090770  1  0.098296  -0.00042  0.975334  0.0  0.03269  -0.000925  0.120453  -0.000689  1.036869  0.0  0.122447  -0.000516  1.036822  0.0  0.08346  0.119289  -0.000601  1.036528  0.0
H  H56  1  0.26023618  0.88594773  0.78362708  1  0.091135  -3e-06  0.961768  0.0  0.020217  6e-06  0.104661  -0.000184  1.040358  0.0  0.105812  -0.000231  1.039087  0.0  0.081586  0.102964  -0.000165  1.042439  0.0
H  H57  1  0.23981635  0.11434589  0.28360156  1  0.091004  1e-06  0.961924  0.0  0.018942  -1.2e-05  0.10464  0.000179  1.040297  0.0  0.105775  0.000229  1.039064  0.0  0.081457  0.102935  0.000161  1.042413  0.0
H  H58  1  0.73989242  0.38567024  0.71635360  1  0.09108  -3e-06  0.962369  0.0  0.018853  1.1e-05  0.104673  -0.00018  1.040842  0.0  0.105823  -0.000229  1.039583  0.0  0.081483  0.102967  -0.000162  1.042963  0.0
H  H59  1  0.76018964  0.61406926  0.21635735  1  0.091128  4e-06  0.961715  0.0  0.020363  -5e-06  0.104673  0.000185  1.040284  0.0  0.105828  0.000233  1.039002  0.0  0.081577  0.102972  0.000166  1.042389  0.0
C  C60  1  0.59807049  0.98992252  0.72375159  1  0.13434  -0.002985  3.604841  -0.006  0.284785  -0.000726  0.122105  0.000144  3.847205  -0.003  0.124057  -2.5e-05  3.862727  -0.003  0.00373  0.120929  0.000483  3.83659  -0.002
C  C61  1  0.90193153  0.00991499  0.22390203  1  0.133903  0.00295  3.606549  0.006  0.285064  0.000736  0.121615  -0.000139  3.849058  0.003  0.12353  2.9e-05  3.864637  0.003  0.0035  0.120488  -0.00048  3.838405  0.002
C  C62  1  0.40192749  0.49007474  0.77609993  1  0.134322  -0.002954  3.606185  -0.006  0.285235  -0.000733  0.121841  0.000139  3.848707  -0.003  0.12378  -2.9e-05  3.864259  -0.003  0.003664  0.120703  0.00048  3.838071  -0.002
C  C63  1  0.09806575  0.51004517  0.27624202  1  0.134198  0.002986  3.605254  0.006  0.285673  0.000728  0.121944  -0.000145  3.847497  0.003  0.123892  2.4e-05  3.863042  0.003  0.00382  0.120787  -0.000484  3.836888  0.002
C  C64  1  0.74684573  0.03078451  0.76985961  1  0.500842  -0.003017  3.856396  -0.002  1.457949  0.00092  0.474069  0.001748  4.147029  0.002  0.505718  0.000554  4.150479  0.001  0.215029  0.452274  0.002727  4.144299  0.003
C  C65  1  0.75312484  0.96909595  0.26995631  1  0.501615  0.00302  3.85667  0.002  1.457779  -0.000947  0.474486  -0.001768  4.147774  -0.002  0.506118  -0.000573  4.151265  -0.001  0.215339  0.452691  -0.002752  4.145053  -0.003
C  C66  1  0.25312246  0.53085242  0.73004698  1  0.500893  -0.003022  3.85742  -0.002  1.457515  0.000931  0.47408  0.001759  4.148155  0.002  0.505707  0.000562  4.151664  0.001  0.214948  0.452293  0.002739  4.145404  0.003
C  C67  1  0.24685224  0.46924745  0.23014293  1  0.500344  0.003062  3.857177  0.002  1.458257  -0.000907  0.473859  -0.001745  4.147388  -0.002  0.505489  -0.000555  4.150906  -0.001  0.21492  0.452047  -0.00272  4.144673  -0.003
C  C68  1  0.98030827  0.09914352  0.69780049  1  -0.002484  -0.001507  3.651896  -0.005  0.369282  -0.001001  -0.011676  0.000289  3.878881  -0.002  -0.010558  0.000199  3.894116  -0.002  0.005433  -0.012179  6.3e-05  3.868872  -0.003
C  C69  1  0.51962236  0.90092068  0.19785554  1  -0.002311  0.001449  3.651673  0.005  0.368141  0.00099  -0.011895  -0.000298  3.879026  0.002  -0.010571  -0.000204  3.893937  0.002  0.005404  -0.012441  -7.8e-05  3.869118  0.003
C  C70  1  0.01965014  0.59909802  0.80215146  1  -0.002931  -0.001454  3.652477  -0.005  0.368713  -0.00099  -0.012156  0.000301  3.879566  -0.002  -0.010922  0.000206  3.894659  -0.002  0.005325  -0.012747  7.8e-05  3.869679  -0.003
C  C71  1  0.48031769  0.40084699  0.30219929  1  -0.002216  0.001463  3.651383  0.005  0.369607  0.001008  -0.01142  -0.000282  3.878632  0.002  -0.010191  -0.000192  3.89371  0.002  0.005429  -0.011973  -6e-05  3.868718  0.003
C  C72  1  0.02986358  0.18729471  0.58960528  1  0.647642  0.001446  3.797726  0.002  1.574153  0.001543  0.605674  0.001654  4.093059  0.003  0.643223  0.001314  4.086602  0.002  0.221137  0.580012  0.001624  4.096746  0.003
C  C73  1  0.47015661  0.81269373  0.08974135  1  0.64706  -0.001424  3.799689  -0.002  1.577861  -0.001557  0.605695  -0.001665  4.094188  -0.003  0.643175  -0.001324  4.087701  -0.002  0.221187  0.580069  -0.001632  4.097855  -0.003
C  C74  1  0.97012511  0.68727618  0.91028948  1  0.647348  0.001438  3.798795  0.002  1.575659  0.001563  0.605621  0.001664  4.093688  0.003  0.643136  0.001323  4.087203  0.002  0.22109  0.579976  0.001633  4.097377  0.003
C  C75  1  0.52987123  0.31272167  0.41040704  1  0.647355  -0.001423  3.798551  -0.002  1.573257  -0.001542  0.605331  -0.001652  4.093995  -0.003  0.64285  -0.001312  4.087532  -0.002  0.220785  0.579693  -0.00162  4.097683  -0.003
C  C76  1  0.59669276  0.83974491  0.69949782  1  -0.332738  0.000667  3.64265  0.001  -0.085301  0.001156  -0.410836  0.000742  3.876953  0.001  -0.413337  0.000446  3.886521  0.0  -0.241683  -0.408534  0.00077  3.870828  0.001
C  C77  1  0.90341650  0.16009181  0.19968326  1  -0.332339  -0.000674  3.643485  -0.001  -0.082035  -0.001155  -0.410451  -0.000742  3.87779  -0.001  -0.412997  -0.000445  3.887336  0.0  -0.241655  -0.408144  -0.00077  3.871654  -0.001
C  C78  1  0.40348882  0.33989790  0.80030466  1  -0.332639  0.000651  3.643378  0.001  -0.082419  0.00116  -0.410756  0.000746  3.877771  0.001  -0.413253  0.00045  3.887334  0.0  -0.241754  -0.408474  0.000774  3.87163  0.001
C  C79  1  0.09663756  0.66025866  0.30046971  1  -0.332132  -0.000699  3.641695  -0.001  -0.089626  -0.00116  -0.410329  -0.000744  3.875986  -0.001  -0.412835  -0.000447  3.885556  0.0  -0.241542  -0.408044  -0.000773  3.869848  -0.001
C  C80  1  0.06464857  0.96587610  0.70645420  1  0.088653  0.001449  3.60705  0.002  0.070623  0.001095  0.098783  0.00071  3.834848  0.001  0.098888  0.000569  3.852838  0.001  -0.086578  0.099241  0.000776  3.8221  0.001
C  C81  1  0.43538867  0.03423480  0.20647332  1  0.089066  -0.00147  3.606369  -0.002  0.071397  -0.001103  0.098871  -0.000717  3.834894  -0.001  0.098948  -0.000573  3.852851  -0.001  -0.086842  0.099281  -0.000783  3.822214  -0.001
C  C82  1  0.93539771  0.46577533  0.79353423  1  0.089354  0.001465  3.606487  0.002  0.072095  0.001104  0.099274  0.000717  3.834613  0.001  0.099383  0.000575  3.85258  0.001  -0.086618  0.0997  0.000783  3.821924  0.001
C  C83  1  0.56462306  0.53411103  0.29354781  1  0.088759  -0.001466  3.607162  -0.002  0.070531  -0.001094  0.098603  -0.000709  3.835429  -0.001  0.098685  -0.000568  3.853403  -0.001  -0.086507  0.099077  -0.000774  3.822696  -0.001
C  C84  1  0.07509129  0.89664098  0.57967191  1  -0.32918  -0.000254  3.692075  0.0  -0.062096  -0.000166  -0.408839  -0.000124  3.931558  0.0  -0.412072  -0.000102  3.942207  0.0  -0.252368  -0.406353  -0.00011  3.924173  0.0
C  C85  1  0.42494203  0.10345419  0.07970852  1  -0.329784  0.000237  3.691889  0.0  -0.061899  0.000163  -0.409345  0.000122  3.931544  0.0  -0.412593  0.0001  3.942197  0.0  -0.252542  -0.406883  0.000109  3.924148  0.0
C  C86  1  0.92496053  0.39657005  0.92029373  1  -0.329163  -0.000249  3.691777  0.0  -0.061347  -0.000164  -0.408862  -0.000123  3.931464  0.0  -0.412101  -0.0001  3.942111  0.0  -0.252397  -0.406406  -0.000108  3.924077  0.0
C  C87  1  0.57507693  0.60333702  0.42033168  1  -0.32932  0.000253  3.691851  0.0  -0.061441  0.000167  -0.408914  0.000124  3.931445  0.0  -0.412155  0.000101  3.942102  0.0  -0.252484  -0.406436  0.00011  3.924064  0.0
C  C88  1  0.20989698  0.98339548  0.76777952  1  -0.315751  0.000754  3.69202  0.001  -0.095075  0.000968  -0.39736  0.000637  3.937847  0.001  -0.400382  0.000388  3.949029  0.001  -0.249687  -0.394815  0.000719  3.929908  0.001
C  C89  1  0.29009975  0.01684376  0.26781708  1  -0.316086  -0.000774  3.691486  -0.001  -0.095357  -0.000975  -0.397389  -0.000642  3.937407  -0.001  -0.40043  -0.000391  3.948605  -0.001  -0.249228  -0.394861  -0.000723  3.929468  -0.001
C  C90  1  0.79012026  0.48316762  0.73214974  1  -0.316157  0.000775  3.692113  0.001  -0.093773  0.000972  -0.397651  0.00064  3.938006  0.001  -0.400679  0.00039  3.949148  0.001  -0.249295  -0.395074  0.000722  3.929979  0.001
C  C91  1  0.70985806  0.51660635  0.23220444  1  -0.31576  -0.000753  3.691983  -0.001  -0.095869  -0.000965  -0.397293  -0.000635  3.937947  -0.001  -0.400313  -0.000387  3.949141  -0.001  -0.249709  -0.394717  -0.000717  3.929905  -0.001
N  N92  1  0.56449414  0.06124860  0.60656649  1  -0.625715  0.106077  3.151608  0.128  -1.140715  0.111556  -0.613476  0.073648  3.426113  0.092  -0.64591  0.059545  3.427182  0.079  -0.634654  -0.593579  0.080608  3.427088  0.097
N  N93  1  0.93539617  0.93860699  0.10670848  1  -0.625764  -0.1059  3.152951  -0.127  -1.142535  -0.111386  -0.613464  -0.073544  3.427418  -0.092  -0.64588  -0.059482  3.428484  -0.079  -0.634736  -0.593622  -0.080483  3.428391  -0.097
N  N94  1  0.43540434  0.56136147  0.89330560  1  -0.626068  0.105976  3.152292  0.127  -1.141759  0.111427  -0.613661  0.073568  3.426951  0.092  -0.646077  0.059496  3.427999  0.079  -0.634696  -0.593771  0.080515  3.427926  0.097
N  N95  1  0.06450169  0.43877721  0.39342434  1  -0.625744  -0.106046  3.1523  -0.128  -1.14053  -0.111528  -0.613396  -0.073628  3.426777  -0.092  -0.645915  -0.059525  3.427885  -0.079  -0.634788  -0.593545  -0.080589  3.427728  -0.097
N  N96  1  0.83052375  0.07364208  0.67843866  1  -0.532858  0.123902  3.313955  0.153  -1.274105  0.120748  -0.513296  0.078336  3.648562  0.102  -0.558859  0.063726  3.668413  0.087  -0.438517  -0.484839  0.085076  3.637172  0.107
N  N97  1  0.66942566  0.92642029  0.17851193  1  -0.532585  -0.124095  3.313651  -0.153  -1.272928  -0.121  -0.512713  -0.078502  3.648275  -0.102  -0.558342  -0.063871  3.668124  -0.087  -0.438339  -0.484318  -0.085244  3.636928  -0.107
N  N98  1  0.16944790  0.57363794  0.82150395  1  -0.532289  0.124121  3.313519  0.153  -1.273086  0.121002  -0.512814  0.078499  3.648226  0.102  -0.558374  0.063869  3.668052  0.087  -0.438352  -0.484368  0.085244  3.636856  0.107
N  N99  1  0.33050647  0.42634477  0.32154010  1  -0.532617  -0.123933  3.31389  -0.153  -1.274089  -0.120785  -0.513062  -0.078359  3.648449  -0.102  -0.558743  -0.063742  3.668316  -0.087  -0.438533  -0.484652  -0.085101  3.6371  -0.107
O  O100  1  0.93936097  0.21764837  0.50477618  1  -0.599741  0.057006  2.083507  0.074  -1.162364  0.067692  -0.55588  0.045255  2.356704  0.064  -0.593024  0.037237  2.344656  0.055  -0.315767  -0.531028  0.050273  2.365793  0.068
O  O101  1  0.56075427  0.78202377  0.00510932  1  -0.599832  -0.057003  2.084488  -0.074  -1.165241  -0.067704  -0.555963  -0.045224  2.357276  -0.064  -0.593122  -0.03722  2.345259  -0.055  -0.315937  -0.531155  -0.050236  2.366339  -0.068
O  O102  1  0.06070374  0.71783890  0.99498518  1  -0.60005  0.057028  2.08363  0.074  -1.163455  0.0677  -0.555978  0.045243  2.356475  0.064  -0.593128  0.037232  2.344443  0.055  -0.315781  -0.53112  0.050261  2.36554  0.068
O  O103  1  0.43938369  0.28247524  0.49529003  1  -0.599749  -0.057032  2.083739  -0.074  -1.162049  -0.06771  -0.55568  -0.045273  2.356901  -0.064  -0.592908  -0.037251  2.344863  -0.055  -0.315502  -0.530875  -0.050293  2.365965  -0.068
O  O104  1  0.15841565  0.22609419  0.58862958  1  -0.593606  -0.029348  2.106626  -0.039  -1.183371  -0.033827  -0.55362  -0.022967  2.386757  -0.033  -0.590658  -0.020171  2.373249  -0.03  -0.320683  -0.528423  -0.023843  2.396409  -0.033
O  O105  1  0.34155353  0.77412258  0.08859903  1  -0.592866  0.029285  2.105947  0.039  -1.183603  0.033828  -0.55339  0.022963  2.385752  0.033  -0.590314  0.020168  2.37231  0.03  -0.320279  -0.528163  0.023845  2.395352  0.033
O  O106  1  0.84153616  0.72588119  0.91140646  1  -0.592878  -0.029337  2.105863  -0.039  -1.183699  -0.033882  -0.553293  -0.022998  2.385801  -0.033  -0.590267  -0.020197  2.372431  -0.03  -0.320338  -0.528101  -0.023884  2.395402  -0.033
O  O107  1  0.65838037  0.27387837  0.41136424  1  -0.593298  0.029358  2.107605  0.039  -1.1833  0.033838  -0.553388  0.022975  2.387725  0.033  -0.590331  0.020182  2.374215  0.03  -0.320423  -0.52815  0.023855  2.397376  0.033
O  O108  1  0.78303897  0.01693660  0.88267933  1  -0.60959  0.032546  2.003601  0.038  -1.217446  0.019639  -0.592481  0.012477  2.271246  0.015  -0.624217  0.006361  2.261329  0.007  -0.334598  -0.568961  0.019221  2.27708  0.023
O  O109  1  0.71683817  0.98275638  0.38276519  1  -0.610092  -0.032611  2.003765  -0.038  -1.217197  -0.019732  -0.592937  -0.01254  2.27174  -0.015  -0.624681  -0.006411  2.261816  -0.007  -0.33481  -0.569362  -0.019279  2.277564  -0.023
O  O110  1  0.21680821  0.51712878  0.61728670  1  -0.609523  0.032512  2.005155  0.038  -1.217151  0.01968  -0.592269  0.012504  2.272912  0.015  -0.624056  0.00639  2.262986  0.007  -0.334377  -0.568768  0.019235  2.278753  0.023
O  O111  1  0.28310142  0.48313664  0.11733993  1  -0.609448  -0.032562  2.003889  -0.038  -1.217321  -0.019629  -0.59235  -0.012472  2.271323  -0.015  -0.624079  -0.006353  2.261409  -0.007  -0.334438  -0.568795  -0.019221  2.277173  -0.023
