# generated using pymatgen
data_Hg2H19C19S(NO2)3
_symmetry_space_group_name_H-M   'P 1'
_cell_length_a   8.50842628
_cell_length_b   9.41097570
_cell_length_c   14.79726703
_cell_angle_alpha   89.21423170
_cell_angle_beta   74.02646122
_cell_angle_gamma   87.87721154
_symmetry_Int_Tables_number   1
_chemical_formula_structural   Hg2H19C19S(NO2)3
_chemical_formula_sum   'Hg4 H38 C38 S2 N6 O12'
_cell_volume   1138.31759001
_cell_formula_units_Z   2
loop_
 _symmetry_equiv_pos_site_id
 _symmetry_equiv_pos_as_xyz
  1  'x, y, z'
loop_
 _atom_site_type_symbol
 _atom_site_label
 _atom_site_symmetry_multiplicity
 _atom_site_fract_x
 _atom_site_fract_y
 _atom_site_fract_z
 _atom_site_occupancy
 _atom_site_pbe_bader_spin_density
 _atom_site_pbe_cm5_charge
 _atom_site_pbe_ddec_charge
 _atom_site_pbe_ddec_spin_density
 _atom_site_pbe_ddec_sum_bond_order
 _atom_site_pbe_magmom
Hg  Hg0  1  0.70871327  0.33583985  0.72589342  1  0  0.587637  0.615685  0  2.414254  0
Hg  Hg1  1  0.29129080  0.66415690  0.27410409  1  0  0.587655  0.615701  0  2.414285  0
Hg  Hg2  1  0.55385573  0.97436319  0.63444785  1  0  0.543266  0.562868  0  2.471571  0
Hg  Hg3  1  0.44614680  0.02563779  0.36555053  1  0  0.543268  0.562859  0  2.471585  0
H  H4  1  0.66949639  0.72244809  0.37445049  1  0  0.113262  0.103879  0  1.066379  0
H  H5  1  0.33049268  0.27755049  0.62555392  1  0  0.113279  0.103893  0  1.066362  0
H  H6  1  0.38796675  0.51702628  0.76329375  1  0  0.117418  0.12183  0  1.008183  0
H  H7  1  0.61203951  0.48297159  0.23670749  1  0  0.117413  0.121874  0  1.008116  0
H  H8  1  0.34154367  0.68654645  0.71804940  1  0  0.112894  0.112412  0  0.991207  0
H  H9  1  0.65845838  0.31344388  0.28194846  1  0  0.112862  0.11237  0  0.991187  0
H  H10  1  0.90013129  0.57891299  0.26519005  1  0  0.109298  0.130868  0  1.013877  0
H  H11  1  0.09986439  0.42109637  0.73481331  1  0  0.109336  0.130891  0  1.013828  0
H  H12  1  0.02281405  0.36524452  0.32815017  1  0  0.107894  0.11961  0  0.993419  0
H  H13  1  0.97718906  0.63476712  0.67184669  1  0  0.107866  0.119651  0  0.993367  0
H  H14  1  0.92482849  0.30084432  0.49584787  1  0  0.111146  0.137626  0  1.001166  0
H  H15  1  0.07517346  0.69915026  0.50414591  1  0  0.111183  0.137651  0  1.001216  0
H  H16  1  0.65701899  0.00323432  0.82548550  1  0  0.109557  0.091329  0  1.04522  0
H  H17  1  0.34296969  0.99677277  0.17451484  1  0  0.109572  0.091349  0  1.045295  0
H  H18  1  0.71392419  0.20850172  0.02672385  1  0  0.094035  0.146396  0  1.029465  0
H  H19  1  0.28608264  0.79149296  0.97326923  1  0  0.09402  0.146377  0  1.029464  0
H  H20  1  0.91889178  0.26384290  0.01081417  1  0  0.102909  0.164316  0  0.972416  0
H  H21  1  0.08111271  0.73614535  0.98918673  1  0  0.102933  0.164347  0  0.972474  0
H  H22  1  0.87879110  0.09889901  0.96220121  1  0  0.093423  0.138272  0  1.023564  0
H  H23  1  0.12120926  0.90110193  0.03779140  1  0  0.09339  0.138237  0  1.023548  0
H  H24  1  0.51065150  0.50366840  0.88545090  1  0  0.105279  0.118361  0  1.041198  0
H  H25  1  0.48934592  0.49633461  0.11455024  1  0  0.105261  0.118352  0  1.041205  0
H  H26  1  0.71742077  0.88045171  0.96293840  1  0  0.106983  0.107547  0  1.021092  0
H  H27  1  0.28257025  0.11955649  0.03706226  1  0  0.106956  0.107525  0  1.020999  0
H  H28  1  0.65032228  0.62555439  0.99345652  1  0  0.112875  0.12094  0  1.004346  0
H  H29  1  0.34966746  0.37445378  0.00654568  1  0  0.112842  0.120884  0  1.004437  0
H  H30  1  0.12656068  0.10067306  0.80844686  1  0  0.098639  0.157088  0  1.006114  0
H  H31  1  0.87344027  0.89933109  0.19155511  1  0  0.098632  0.157125  0  1.006131  0
H  H32  1  0.17069643  0.09922304  0.91886607  1  0  0.092856  0.141181  0  1.033331  0
H  H33  1  0.82930332  0.90078109  0.08113539  1  0  0.09286  0.141199  0  1.033353  0
H  H34  1  0.27797384  0.97874665  0.82756132  1  0  0.087529  0.139935  0  1.034167  0
H  H35  1  0.72202710  0.02125856  0.17243928  1  0  0.087483  0.13991  0  1.034248  0
H  H36  1  0.13314885  0.94073656  0.64685540  1  0  0.085206  0.144241  0  1.024576  0
H  H37  1  0.86686394  0.05927103  0.35314821  1  0  0.085206  0.144261  0  1.024542  0
H  H38  1  0.05119568  0.11801396  0.67930446  1  0  0.087224  0.135575  0  1.040806  0
H  H39  1  0.94879817  0.88198791  0.32069652  1  0  0.087242  0.135601  0  1.040795  0
H  H40  1  0.13577780  0.07336702  0.55930932  1  0  0.092473  0.152698  0  1.030281  0
H  H41  1  0.86422580  0.92663399  0.44069229  1  0  0.092494  0.152731  0  1.030261  0
C  C42  1  0.66901674  0.47373476  0.62460020  1  0  -0.027811  -0.213836  0  3.894385  0
C  C43  1  0.33097911  0.52625651  0.37539922  1  0  -0.027773  -0.213842  0  3.894347  0
C  C44  1  0.56005154  0.66134671  0.56053698  1  0  0.197341  0.173903  0  3.980383  0
C  C45  1  0.43995016  0.33864574  0.43946565  1  0  0.197291  0.173811  0  3.980795  0
C  C46  1  0.73369825  0.63232444  0.39691622  1  0  0.024344  0.005626  0  3.87561  0
C  C47  1  0.26629960  0.36767432  0.60308150  1  0  0.024325  0.005611  0  3.875745  0
C  C48  1  0.74902165  0.47840259  0.52899722  1  0  0.080718  0.129856  0  4.045512  0
C  C49  1  0.25097394  0.52159293  0.47100154  1  0  0.08068  0.129862  0  4.045382  0
C  C50  1  0.51815864  0.68934107  0.79847261  1  0  0.113238  0.22277  0  3.963458  0
C  C51  1  0.48184064  0.31065453  0.20152493  1  0  0.113301  0.222934  0  3.963091  0
C  C52  1  0.43904067  0.61779235  0.73234082  1  0  -0.053134  -0.154563  0  3.868939  0
C  C53  1  0.56096091  0.38220330  0.26765977  1  0  -0.053105  -0.154618  0  3.868774  0
C  C54  1  0.85634000  0.55121536  0.33948359  1  0  -0.091366  -0.130808  0  4.001728  0
C  C55  1  0.14366496  0.44878461  0.66051647  1  0  -0.091412  -0.130865  0  4.001692  0
C  C56  1  0.92702860  0.43048134  0.37504225  1  0  -0.088395  -0.07637  0  3.996502  0
C  C57  1  0.07297024  0.56951957  0.62495734  1  0  -0.088384  -0.076435  0  3.996366  0
C  C58  1  0.87393555  0.39428954  0.46835530  1  0  -0.083155  -0.131759  0  3.978361  0
C  C59  1  0.12605742  0.60570912  0.53164313  1  0  -0.083156  -0.131759  0  3.97829  0
C  C60  1  0.82676914  0.28787318  0.88934687  1  0  0.19857  0.64993  0  4.147829  0
C  C61  1  0.17323316  0.71212993  0.11065355  1  0  0.198611  0.650017  0  4.147886  0
C  C62  1  0.62744030  0.89195316  0.84036864  1  0  0.041276  0.089698  0  3.944305  0
C  C63  1  0.37255356  0.10805190  0.15962758  1  0  0.041311  0.089694  0  3.944379  0
C  C64  1  0.83721613  0.20981867  0.97783504  1  0  -0.243511  -0.512323  0  3.891803  0
C  C65  1  0.16279038  0.79017814  0.02216213  1  0  -0.243501  -0.512334  0  3.891864  0
C  C66  1  0.54782300  0.61363700  0.87433028  1  0  -0.084388  -0.180447  0  3.939404  0
C  C67  1  0.45217174  0.38636915  0.12567189  1  0  -0.084363  -0.180467  0  3.939367  0
C  C68  1  0.66169692  0.82284181  0.91707770  1  0  -0.079928  -0.120801  0  3.950351  0
C  C69  1  0.33829154  0.17716846  0.08292264  1  0  -0.07987  -0.12067  0  3.95026  0
C  C70  1  0.62272523  0.68080617  0.93421551  1  0  -0.057173  0.004894  0  3.921583  0
C  C71  1  0.37726943  0.31920105  0.06578667  1  0  -0.057242  0.004813  0  3.921817  0
C  C72  1  0.35138727  0.19774565  0.80625023  1  0  0.1973  0.671022  0  4.14305  0
C  C73  1  0.64861508  0.80225533  0.19375224  1  0  0.197377  0.671217  0  4.143031  0
C  C74  1  0.22485370  0.08655997  0.84320381  1  0  -0.252456  -0.527497  0  3.89416  0
C  C75  1  0.77514827  0.91344846  0.15679595  1  0  -0.252412  -0.527556  0  3.894249  0
C  C76  1  0.90085353  0.98879341  0.61978095  1  0  0.19653  0.671027  0  4.122405  0
C  C77  1  0.09915215  0.01119487  0.38022046  1  0  0.196416  0.670872  0  4.122299  0
C  C78  1  0.06561347  0.03249604  0.62795402  1  0  -0.25469  -0.520935  0  3.883827  0
C  C79  1  0.93439138  0.96750499  0.37204673  1  0  -0.254736  -0.521028  0  3.883834  0
S  S80  1  0.44104174  0.80684326  0.54767670  1  0  -0.11795  -0.287094  0  2.738019  0
S  S81  1  0.55895880  0.19314917  0.45232474  1  0  -0.117898  -0.286995  0  2.738148  0
N  N82  1  0.68035365  0.59604490  0.49097145  1  0  -0.20629  0.019154  0  3.753316  0
N  N83  1  0.31964460  0.40394748  0.50902694  1  0  -0.206335  0.019117  0  3.753434  0
N  N84  1  0.55502592  0.58501661  0.64072919  1  0  -0.226256  0.045739  0  3.793186  0
N  N85  1  0.44497690  0.41497693  0.35927394  1  0  -0.22623  0.045789  0  3.793344  0
N  N86  1  0.55760034  0.82660180  0.78182045  1  0  -0.311721  -0.273699  0  3.441607  0
N  N87  1  0.44238764  0.17339783  0.21817937  1  0  -0.311755  -0.273781  0  3.441398  0
O  O88  1  0.75692375  0.21380389  0.83647389  1  0  -0.317992  -0.493469  0  2.275406  0
O  O89  1  0.24308189  0.78620461  0.16352533  1  0  -0.317992  -0.493493  0  2.275339  0
O  O90  1  0.45523830  0.17579382  0.72427354  1  0  -0.333522  -0.555223  0  2.342397  0
O  O91  1  0.54476873  0.82420727  0.27573298  1  0  -0.333579  -0.55532  0  2.342379  0
O  O92  1  0.87630087  0.40971969  0.87031958  1  0  -0.322158  -0.544675  0  2.099549  0
O  O93  1  0.12371049  0.59027509  0.12968095  1  0  -0.322163  -0.544706  0  2.099617  0
O  O94  1  0.35218116  0.30822045  0.85213069  1  0  -0.3248  -0.557165  0  2.096546  0
O  O95  1  0.64781713  0.69179003  0.14786687  1  0  -0.324828  -0.557239  0  2.096694  0
O  O96  1  0.78769553  0.08959978  0.63258033  1  0  -0.321418  -0.518695  0  2.276773  0
O  O97  1  0.21230540  0.91038627  0.36742178  1  0  -0.321318  -0.51853  0  2.276529  0
O  O98  1  0.87729503  0.86356763  0.60059674  1  0  -0.32301  -0.546913  0  2.110064  0
O  O99  1  0.12272064  0.13641978  0.39939985  1  0  -0.323014  -0.54689  0  2.110038  0
