# generated using pymatgen
data_Zn4H9C24S4NO13
_symmetry_space_group_name_H-M   'P 1'
_cell_length_a   19.68810716
_cell_length_b   19.68165291
_cell_length_c   33.37311668
_cell_angle_alpha   79.11244788
_cell_angle_beta   79.09728247
_cell_angle_gamma   63.86635079
_symmetry_Int_Tables_number   1
_chemical_formula_structural   Zn4H9C24S4NO13
_chemical_formula_sum   'Zn16 H36 C96 S16 N4 O52'
_cell_volume   11318.25561017
_cell_formula_units_Z   4
loop_
 _symmetry_equiv_pos_site_id
 _symmetry_equiv_pos_as_xyz
  1  'x, y, z'
loop_
 _atom_site_type_symbol
 _atom_site_label
 _atom_site_symmetry_multiplicity
 _atom_site_fract_x
 _atom_site_fract_y
 _atom_site_fract_z
 _atom_site_occupancy
 _atom_site_pbe_bader_charge
 _atom_site_pbe_bader_spin_density
 _atom_site_pbe_cm5_charge
 _atom_site_pbe_ddec_charge
 _atom_site_pbe_ddec_spin_density
 _atom_site_pbe_ddec_sum_bond_order
 _atom_site_pbe_magmom
Zn  Zn0  1  0.05445228  0.39988357  0.47787719  1  1.32062  0  0.674926  0.976247  0  2.352053  0
Zn  Zn1  1  0.98467598  0.48315266  0.56099841  1  1.307993  0  0.673773  0.968412  0  2.361412  0
Zn  Zn2  1  0.05942690  0.55891844  0.48259238  1  1.306546  0  0.666772  0.950261  0  2.403653  0
Zn  Zn3  1  0.90244180  0.55539771  0.47917955  1  1.305791  0  0.666996  0.950292  0  2.403327  0
Zn  Zn4  1  0.69431919  0.34914155  0.27228587  1  1.316977  0  0.671444  0.969071  0  2.368894  0
Zn  Zn5  1  0.68968433  0.18939930  0.26609052  1  1.311964  0  0.672853  0.969839  0  2.356981  0
Zn  Zn6  1  0.76781895  0.26729454  0.19100529  1  1.300066  0  0.666152  0.95033  0  2.39588  0
Zn  Zn7  1  0.84895722  0.19517361  0.27249244  1  1.319219  0  0.671716  0.961912  0  2.37162  0
Zn  Zn8  1  0.26729748  0.76538227  0.68956940  1  1.313092  0  0.670456  0.96225  0  2.377624  0
Zn  Zn9  1  0.34897340  0.69540347  0.77236823  1  1.32144  0  0.67328  0.970666  0  2.355907  0
Zn  Zn10  1  0.19411908  0.84648867  0.77114605  1  1.314904  0  0.666538  0.952875  0  2.396247  0
Zn  Zn11  1  0.18973119  0.68835440  0.76642999  1  1.312028  0  0.672181  0.96537  0  2.367677  0
Zn  Zn12  1  0.56010014  0.06023587  0.98352166  1  1.315717  0  0.669962  0.964036  0  2.37373  0
Zn  Zn13  1  0.40158518  0.05473466  0.97811925  1  1.315344  0  0.669317  0.960391  0  2.378577  0
Zn  Zn14  1  0.55455693  0.90120337  0.97793079  1  1.316888  0  0.671594  0.967946  0  2.362177  0
Zn  Zn15  1  0.48378462  0.98385222  0.06051718  1  1.312817  0  0.671776  0.966408  0  2.362556  0
H  H16  1  0.95516729  0.24937322  0.35123659  1  0.093702  0  0.103096  0.113673  0  1.006067  0
H  H17  1  0.74575530  0.45227521  0.35075306  1  0.101082  0  0.106075  0.12034  0  1.003155  0
H  H18  1  0.00012704  0.30182768  0.39855024  1  0.11837  0  0.107268  0.114171  0  0.994252  0
H  H19  1  0.09585089  0.59743726  0.69976008  1  0.114458  0  0.103921  0.114515  0  1.005345  0
H  H20  1  0.20348750  0.69980615  0.59855251  1  0.058078  0  0.105539  0.119798  0  1.004836  0
H  H21  1  0.04824341  0.55290073  0.64981083  1  0.074351  0  0.106826  0.112973  0  0.995162  0
H  H22  1  0.28527087  0.51051664  0.40907840  1  0.119334  0  0.1192  0.144437  0  0.97382  0
H  H23  1  0.46438926  0.23864480  0.34102347  1  0.123287  0  0.121766  0.148149  0  0.968708  0
H  H24  1  0.77207039  0.54622482  0.64855242  1  0.103038  0  0.121105  0.147165  0  0.968681  0
H  H25  1  0.47891507  0.70341177  0.60179217  1  0.118093  0  0.119794  0.145486  0  0.973023  0
H  H26  1  0.04673603  0.27085712  0.64868002  1  0.114407  0  0.120761  0.146775  0  0.970709  0
H  H27  1  0.20409021  0.97774704  0.60168537  1  0.10379  0  0.120303  0.14619  0  0.970083  0
H  H28  1  0.80032603  0.77989562  0.40300082  1  0.111066  0  0.119973  0.144959  0  0.97166  0
H  H29  1  0.94931264  0.97067853  0.34718501  1  0.127235  0  0.120982  0.147041  0  0.969709  0
H  H30  1  0.55122696  0.04974521  0.15350359  1  0.073329  0  0.103307  0.114288  0  1.005778  0
H  H31  1  0.64945106  0.15341649  0.04823191  1  0.051317  0  0.10584  0.120149  0  1.004081  0
H  H32  1  0.60284688  0.09802702  0.19949528  1  0.12655  0  0.106817  0.112992  0  0.995052  0
H  H33  1  0.70323931  0.47852908  0.10168912  1  0.109618  0  0.119467  0.145079  0  0.972179  0
H  H34  1  0.54658899  0.77198646  0.14825776  1  0.110077  0  0.121225  0.147578  0  0.96932  0
H  H35  1  0.08741967  0.10795470  0.21033803  1  0.120308  0  0.121208  0.147361  0  0.968835  0
H  H36  1  0.16354077  0.14156234  0.04016413  1  0.130948  0  0.120023  0.145975  0  0.971372  0
H  H37  1  0.50073948  0.79474929  0.89851217  1  0.099506  0  0.103694  0.114624  0  1.004412  0
H  H38  1  0.29785000  0.00419549  0.89924830  1  0.100079  0  0.105224  0.119049  0  1.004923  0
H  H39  1  0.44816759  0.74986091  0.85129054  1  0.114079  0  0.106997  0.113672  0  0.994213  0
H  H40  1  0.44924005  0.47072762  0.84748805  1  0.137569  0  0.121199  0.146947  0  0.969665  0
H  H41  1  0.30081673  0.27925690  0.90268958  1  0.134788  0  0.12009  0.145765  0  0.971357  0
H  H42  1  0.96356523  0.73827872  0.84099978  1  0.118324  0  0.121464  0.147768  0  0.968839  0
H  H43  1  0.78567098  0.01054809  0.90893970  1  0.131034  0  0.120306  0.146299  0  0.971571  0
H  H44  1  0.79527284  0.54209032  0.41911160  1  0.500634  0  0.303344  0.318357  0  0.985293  0
H  H45  1  0.72533534  0.54769423  0.39093600  1  0.461772  0  0.316619  0.311353  0  0.935152  0
H  H46  1  0.14222302  0.64327313  0.51935217  1  0.494885  0  0.303586  0.31969  0  0.983876  0
H  H47  1  0.19503826  0.68868980  0.53060445  1  0.435503  0  0.316492  0.311637  0  0.935831  0
H  H48  1  0.73065360  0.23060117  0.10707377  1  0.515888  0  0.303498  0.318946  0  0.984826  0
H  H49  1  0.71545402  0.22316438  0.05794789  1  0.457311  0  0.316884  0.312321  0  0.934849  0
H  H50  1  0.20781329  0.95461798  0.83101204  1  0.502367  0  0.303599  0.319208  0  0.983296  0
H  H51  1  0.20214577  0.02454636  0.85924206  1  0.460944  0  0.316303  0.310819  0  0.935832  0
C  C52  1  0.06133550  0.31559549  0.56180993  1  1.572005  0  0.218308  0.612017  0  4.216182  0
C  C53  1  0.06880199  0.57167236  0.56898055  1  1.476311  0  0.221549  0.611767  0  4.155376  0
C  C54  1  0.18416474  0.43827910  0.43884447  1  1.566152  0  0.217253  0.61101  0  4.214529  0
C  C55  1  0.93817216  0.68418141  0.43852820  1  1.545366  0  0.217259  0.610464  0  4.215666  0
C  C56  1  0.92981490  0.43229070  0.42966890  1  1.498214  0  0.222057  0.611622  0  4.156049  0
C  C57  1  0.81651402  0.56076810  0.56173531  1  1.564616  0  0.217587  0.611682  0  4.215374  0
C  C58  1  0.56548387  0.31117195  0.31113158  1  1.60079  0  0.218062  0.612908  0  4.214832  0
C  C59  1  0.68287327  0.17970444  0.17971903  1  1.506361  0  0.221598  0.611966  0  4.154516  0
C  C60  1  0.68850199  0.43418685  0.18857639  1  1.559633  0  0.217571  0.610671  0  4.216021  0
C  C61  1  0.93497746  0.18958065  0.18932845  1  1.557438  0  0.217513  0.610012  0  4.215323  0
C  C62  1  0.81885829  0.31935626  0.32020122  1  1.566616  0  0.229989  0.607301  0  4.149891  0
C  C63  1  0.81175583  0.06592856  0.31131435  1  1.547041  0  0.21875  0.611337  0  4.214255  0
C  C64  1  0.43431347  0.68906359  0.68857410  1  1.601473  0  0.217672  0.611099  0  4.216649  0
C  C65  1  0.31739835  0.82006557  0.82035752  1  1.502242  0  0.221964  0.61133  0  4.154171  0
C  C66  1  0.18935421  0.93302270  0.68844834  1  1.559073  0  0.216593  0.608899  0  4.217056  0
C  C67  1  0.06475375  0.81053900  0.81055494  1  1.57327  0  0.216231  0.60694  0  4.220361  0
C  C68  1  0.18159756  0.67898587  0.68033325  1  1.543036  0  0.231468  0.610463  0  4.145642  0
C  C69  1  0.31162433  0.56587647  0.81157906  1  1.543977  0  0.217977  0.610972  0  4.215539  0
C  C70  1  0.43833293  0.18394151  0.93858017  1  1.542686  0  0.217613  0.609267  0  4.218443  0
C  C71  1  0.43081820  0.93100255  0.92984023  1  1.569271  0  0.230545  0.607958  0  4.148032  0
C  C72  1  0.68410945  0.93875501  0.93895540  1  1.541475  0  0.217578  0.610808  0  4.217471  0
C  C73  1  0.56132269  0.81626609  0.06143583  1  1.56422  0  0.217746  0.610478  0  4.218168  0
C  C74  1  0.56853707  0.07076624  0.06965934  1  1.545189  0  0.230401  0.608744  0  4.14602  0
C  C75  1  0.31593819  0.06099490  0.06119715  1  1.529824  0  0.217237  0.610418  0  4.217237  0
C  C76  1  0.89924743  0.40619689  0.40146162  1  0.024613  0  -0.032729  -0.170625  0  3.926016  0
C  C77  1  0.84736117  0.34866059  0.34857595  1  -0.021102  0  -0.015972  -0.006627  0  4.01587  0
C  C78  1  0.82568256  0.45073255  0.38798368  1  0.48254  0  0.114662  0.314985  0  4.075222  0
C  C79  1  0.91994596  0.30492600  0.36170338  1  -0.011802  0  -0.106597  -0.146896  0  4.028196  0
C  C80  1  0.80154191  0.41970882  0.36153047  1  -0.051391  0  -0.09707  -0.221102  0  3.92592  0
C  C81  1  0.94443344  0.33417526  0.38775416  1  -0.079439  0  -0.084145  -0.070537  0  4.022623  0
C  C82  1  0.09839638  0.60077910  0.59616337  1  -0.030564  0  -0.032383  -0.171021  0  3.926018  0
C  C83  1  0.15263352  0.65116315  0.65144818  1  -0.085331  0  -0.016016  -0.006651  0  4.011729  0
C  C84  1  0.14299686  0.64320677  0.58064646  1  0.501927  0  0.114722  0.316338  0  4.076708  0
C  C85  1  0.10851891  0.60956686  0.66673761  1  -0.011341  0  -0.105966  -0.145901  0  4.023842  0
C  C86  1  0.16936737  0.66735537  0.60942643  1  0.022056  0  -0.098348  -0.22326  0  3.92786  0
C  C87  1  0.08240820  0.58522907  0.63904964  1  0.009474  0  -0.084858  -0.070246  0  4.021229  0
C  C88  1  0.30313622  0.45348112  0.40120737  1  0.085728  0  -0.09049  -0.137355  0  3.97701  0
C  C89  1  0.44656245  0.29564369  0.34893624  1  0.077132  0  -0.088863  -0.13697  0  3.971857  0
C  C90  1  0.25898383  0.41290957  0.41390001  1  -0.208185  0  -0.025395  -0.119477  0  3.991233  0
C  C91  1  0.49069974  0.33618716  0.33621533  1  -0.195239  0  -0.024433  -0.116903  0  3.985403  0
C  C92  1  0.37825511  0.33824760  0.37257991  1  -0.194765  0  -0.021414  -0.007509  0  4.06709  0
C  C93  1  0.37140479  0.41093595  0.37754894  1  -0.186313  0  -0.022426  -0.008458  0  4.070662  0
C  C94  1  0.72683070  0.57539916  0.62889596  1  0.04306  0  -0.088054  -0.135352  0  3.970716  0
C  C95  1  0.52414243  0.67398358  0.62145091  1  -0.003905  0  -0.089542  -0.137135  0  3.975358  0
C  C96  1  0.74151008  0.58572065  0.58649891  1  -0.094146  0  -0.025256  -0.117783  0  3.988862  0
C  C97  1  0.50948469  0.66362292  0.66386545  1  -0.118053  0  -0.025286  -0.117782  0  3.987054  0
C  C98  1  0.60319593  0.64184102  0.60864931  1  -0.148827  0  -0.022357  -0.008514  0  4.069511  0
C  C99  1  0.64775216  0.60739053  0.64167957  1  -0.227066  0  -0.021615  -0.007006  0  4.066689  0
C  C100  1  0.07612681  0.22569371  0.62897199  1  0.069598  0  -0.089471  -0.137436  0  3.97333  0
C  C101  1  0.17478327  0.02294522  0.62138560  1  0.041524  0  -0.089101  -0.136499  0  3.9726  0
C  C102  1  0.08657408  0.24044520  0.58656791  1  -0.158029  0  -0.024427  -0.116962  0  3.984939  0
C  C103  1  0.16437883  0.00815467  0.66378207  1  -0.102875  0  -0.025008  -0.117082  0  3.988339  0
C  C104  1  0.14275926  0.10206271  0.60864581  1  -0.220895  0  -0.022514  -0.008858  0  4.069274  0
C  C105  1  0.10821457  0.14657647  0.64170661  1  -0.150026  0  -0.021936  -0.007521  0  4.068555  0
C  C106  1  0.84467316  0.80035508  0.39793285  1  0.115095  0  -0.088358  -0.13329  0  3.971755  0
C  C107  1  0.90518913  0.94992088  0.35211244  1  0.100543  0  -0.088994  -0.136925  0  3.970539  0
C  C108  1  0.91367918  0.75898014  0.41361313  1  -0.208696  0  -0.026022  -0.119233  0  3.98975  0
C  C109  1  0.83626291  0.99107354  0.33632629  1  -0.200318  0  -0.024172  -0.116423  0  3.986513  0
C  C110  1  0.90845563  0.88036844  0.37445254  1  -0.177282  0  -0.021249  -0.005814  0  4.067267  0
C  C111  1  0.84155999  0.86973445  0.37544086  1  -0.173442  0  -0.022282  -0.010275  0  4.071235  0
C  C112  1  0.65526671  0.15276834  0.15039054  1  -0.06558  0  -0.032293  -0.170691  0  3.923046  0
C  C113  1  0.59784984  0.09934734  0.09806742  1  -0.027222  0  -0.015613  -0.006373  0  4.010203  0
C  C114  1  0.66943079  0.16934410  0.10679719  1  0.508998  0  0.114605  0.315035  0  4.074835  0
C  C115  1  0.58397595  0.08293871  0.14099674  1  -0.021087  0  -0.106568  -0.147211  0  4.025792  0
C  C116  1  0.63948204  0.14168182  0.08155236  1  0.038756  0  -0.098255  -0.222538  0  3.924489  0
C  C117  1  0.61264119  0.10971513  0.16620581  1  -0.036048  0  -0.084448  -0.069621  0  4.020122  0
C  C118  1  0.67388093  0.52378836  0.12135264  1  0.032257  0  -0.089143  -0.136577  0  3.974548  0
C  C119  1  0.57588757  0.72664790  0.12864413  1  0.031101  0  -0.088828  -0.136855  0  3.971126  0
C  C120  1  0.66334036  0.50919210  0.16377246  1  -0.087488  0  -0.02588  -0.118757  0  3.988059  0
C  C121  1  0.58642656  0.74117336  0.08623937  1  -0.083565  0  -0.024241  -0.116261  0  3.984956  0
C  C122  1  0.60767538  0.64755765  0.14148128  1  -0.206878  0  -0.021561  -0.007584  0  4.068293  0
C  C123  1  0.64211209  0.60286259  0.10849150  1  -0.196396  0  -0.02263  -0.009129  0  4.07044  0
C  C124  1  0.08045169  0.12454516  0.17788249  1  0.017793  0  -0.088344  -0.134944  0  3.969882  0
C  C125  1  0.17042530  0.12490597  0.07262123  1  0.025972  0  -0.089935  -0.138011  0  3.974498  0
C  C126  1  0.00955364  0.16414811  0.16410773  1  -0.143782  0  -0.025822  -0.118471  0  3.988952  0
C  C127  1  0.24130389  0.08564275  0.08643459  1  -0.126441  0  -0.024332  -0.116774  0  3.985896  0
C  C128  1  0.11180140  0.13911679  0.10584978  1  -0.189086  0  -0.022064  -0.007335  0  4.069159  0
C  C129  1  0.13907438  0.11019485  0.14464227  1  -0.218071  0  -0.021937  -0.008963  0  4.068244  0
C  C130  1  0.34369858  0.85067337  0.84849013  1  0.013365  0  -0.032112  -0.170051  0  3.923964  0
C  C131  1  0.40148082  0.90256811  0.90138173  1  -0.027632  0  -0.015724  -0.006123  0  4.014275  0
C  C132  1  0.29931398  0.92428634  0.86200416  1  0.495663  0  0.114413  0.314672  0  4.075573  0
C  C133  1  0.44514315  0.83002132  0.88813901  1  -0.00991  0  -0.105954  -0.14578  0  4.024949  0
C  C134  1  0.33041332  0.94838539  0.88845991  1  -0.062176  0  -0.098146  -0.22216  0  3.927402  0
C  C135  1  0.41577307  0.80555610  0.86212219  1  -0.071909  0  -0.084584  -0.071211  0  4.021271  0
C  C136  1  0.40518777  0.44988852  0.85234377  1  0.082071  0  -0.088511  -0.135746  0  3.971503  0
C  C137  1  0.34498251  0.29994772  0.89776752  1  0.093995  0  -0.089483  -0.136652  0  3.974087  0
C  C138  1  0.33632741  0.49100734  0.83650289  1  -0.20668  0  -0.025394  -0.1179  0  3.989709  0
C  C139  1  0.41382700  0.25878271  0.91362144  1  -0.193327  0  -0.025185  -0.116522  0  3.989187  0
C  C140  1  0.34176523  0.36946014  0.87539914  1  -0.174503  0  -0.022478  -0.009755  0  4.072265  0
C  C141  1  0.40850672  0.38026669  0.87460421  1  -0.174875  0  -0.021933  -0.007455  0  4.069905  0
C  C142  1  0.94599330  0.79531402  0.84880145  1  0.019444  0  -0.0881  -0.135733  0  3.970569  0
C  C143  1  0.80330646  0.95351322  0.90112117  1  0.075754  0  -0.089859  -0.137732  0  3.974842  0
C  C144  1  0.99020149  0.83575468  0.83578435  1  -0.165937  0  -0.025403  -0.116955  0  3.988981  0
C  C145  1  0.75897377  0.91318493  0.91396790  1  -0.180391  0  -0.023997  -0.117001  0  3.988749  0
C  C146  1  0.87139920  0.91071329  0.87740381  1  -0.18836  0  -0.021851  -0.00687  0  4.069977  0
C  C147  1  0.87795494  0.83806483  0.87258416  1  -0.157757  0  -0.021626  -0.008484  0  4.068329  0
S  S148  1  0.29997883  0.32321009  0.39721019  1  0.284274  0  0.083927  0.122971  0  2.729337  0
S  S149  1  0.44961829  0.42600863  0.35283837  1  0.257752  0  0.079461  0.116422  0  2.732623  0
S  S150  1  0.65963732  0.63422077  0.56198342  1  0.242255  0  0.075957  0.112286  0  2.735268  0
S  S151  1  0.59133075  0.61499210  0.68834472  1  0.262304  0  0.083789  0.121977  0  2.731155  0
S  S152  1  0.13523925  0.15858792  0.56202118  1  0.262511  0  0.082399  0.12041  0  2.730811  0
S  S153  1  0.11576368  0.09001630  0.68833547  1  0.239569  0  0.078804  0.115726  0  2.73363  0
S  S154  1  0.97495397  0.80403353  0.40117303  1  0.266073  0  0.078192  0.114892  0  2.732113  0
S  S155  1  0.77521489  0.94583312  0.34852083  1  0.262616  0  0.082623  0.120818  0  2.733105  0
S  S156  1  0.61493658  0.59124768  0.18817720  1  0.260392  0  0.080517  0.118401  0  2.731812  0
S  S157  1  0.63480820  0.65918319  0.06179398  1  0.26312  0  0.082456  0.120499  0  2.730196  0
S  S158  1  0.01369388  0.18402693  0.11086725  1  0.289069  0  0.077241  0.113679  0  2.734512  0
S  S159  1  0.23717981  0.06571695  0.13966104  1  0.288289  0  0.082976  0.12148  0  2.730698  0
S  S160  1  0.27541366  0.44557008  0.84850826  1  0.270519  0  0.080487  0.118335  0  2.734592  0
S  S161  1  0.47485107  0.30409774  0.90149570  1  0.250119  0  0.079261  0.116219  0  2.733959  0
S  S162  1  0.94953111  0.92558812  0.85235236  1  0.259858  0  0.077566  0.113828  0  2.73612  0
S  S163  1  0.79961032  0.82336483  0.89743688  1  0.286975  0  0.083543  0.122174  0  2.731831  0
N  N164  1  0.77858953  0.52116859  0.39911928  1  -1.297848  0  -0.589739  -0.617531  0  3.363728  0
N  N165  1  0.16079071  0.66132381  0.53984503  1  -1.273093  0  -0.589894  -0.619628  0  3.365644  0
N  N166  1  0.71042497  0.20983546  0.08876039  1  -1.316576  0  -0.590039  -0.618847  0  3.364835  0
N  N167  1  0.22898316  0.97144470  0.85081933  1  -1.297704  0  -0.589043  -0.616963  0  3.36445  0
O  O168  1  0.00062747  0.49816057  0.50056030  1  -1.211815  0  -0.571643  -1.023748  0  2.538019  0
O  O169  1  0.07741125  0.31544200  0.52279919  1  -1.175141  0  -0.319561  -0.54865  0  2.332843  0
O  O170  1  0.03192745  0.53178228  0.58567960  1  -1.172354  0  -0.318739  -0.55176  0  2.342711  0
O  O171  1  0.15744440  0.50442212  0.45059269  1  -1.176341  0  -0.320227  -0.541823  0  2.316971  0
O  O172  1  0.02588711  0.37377599  0.58141323  1  -1.171998  0  -0.31747  -0.541248  0  2.311676  0
O  O173  1  0.15261268  0.39187420  0.44648338  1  -1.154892  0  -0.319171  -0.548576  0  2.329874  0
O  O174  1  0.08203271  0.58812337  0.52981846  1  -1.159906  0  -0.317338  -0.558004  0  2.377514  0
O  O175  1  0.00596225  0.65502526  0.44846623  1  -1.175186  0  -0.322478  -0.550663  0  2.336692  0
O  O176  1  0.88864732  0.49912206  0.44113558  1  -1.180393  0  -0.317146  -0.557593  0  2.377209  0
O  O177  1  0.88999839  0.65485442  0.44808928  1  -1.160501  0  -0.319049  -0.540196  0  2.312749  0
O  O178  1  0.99503254  0.38740158  0.44123567  1  -1.17718  0  -0.318484  -0.550979  0  2.340251  0
O  O179  1  0.87489509  0.52616718  0.58112936  1  -1.161913  0  -0.316244  -0.540394  0  2.311506  0
O  O180  1  0.81606040  0.57640546  0.52268330  1  -1.175554  0  -0.323751  -0.551371  0  2.339258  0
O  O181  1  0.74999662  0.24994461  0.25091730  1  -1.214907  0  -0.57074  -1.025881  0  2.530599  0
O  O182  1  0.59562289  0.35887775  0.30298331  1  -1.179759  0  -0.320632  -0.549457  0  2.334972  0
O  O183  1  0.66519073  0.16419221  0.21817372  1  -1.162344  0  -0.31804  -0.551042  0  2.340597  0
O  O184  1  0.72312165  0.37579685  0.16904021  1  -1.17412  0  -0.320074  -0.542163  0  2.314338  0
O  O185  1  0.59334724  0.24470217  0.29983804  1  -1.1724  0  -0.316051  -0.539924  0  2.309188  0
O  O186  1  0.67343063  0.43422593  0.22761281  1  -1.176278  0  -0.320624  -0.548941  0  2.331469  0
O  O187  1  0.72323131  0.21761038  0.16483278  1  -1.186753  0  -0.317186  -0.558103  0  2.373227  0
O  O188  1  0.87664124  0.22659839  0.16977490  1  -1.168688  0  -0.323056  -0.550377  0  2.335977  0
O  O189  1  0.86292792  0.25365435  0.30914988  1  -1.177062  0  -0.313085  -0.541935  0  2.33658  0
O  O190  1  0.93489765  0.17269403  0.22820639  1  -1.148446  0  -0.316057  -0.538289  0  2.310149  0
O  O191  1  0.75286804  0.36234013  0.30921576  1  -1.181461  0  -0.316333  -0.549019  0  2.345127  0
O  O192  1  0.74532385  0.09336048  0.29983624  1  -1.176907  0  -0.319978  -0.548522  0  2.331094  0
O  O193  1  0.85895145  0.09640815  0.30339504  1  -1.15561  0  -0.317122  -0.539119  0  2.313303  0
O  O194  1  0.25063502  0.74806309  0.74979052  1  -1.221026  0  -0.571019  -1.026316  0  2.531539  0
O  O195  1  0.37636968  0.72498965  0.66883345  1  -1.172863  0  -0.317844  -0.540814  0  2.314427  0
O  O196  1  0.36213168  0.75466550  0.80890927  1  -1.175826  0  -0.319011  -0.551236  0  2.338312  0
O  O197  1  0.17409846  0.93303692  0.72750484  1  -1.172475  0  -0.322015  -0.548461  0  2.335341  0
O  O198  1  0.43408264  0.67278669  0.72756818  1  -1.182349  0  -0.319159  -0.54818  0  2.330008  0
O  O199  1  0.22375578  0.87478065  0.66886587  1  -1.164367  0  -0.317  -0.540012  0  2.311407  0
O  O200  1  0.25065333  0.86123514  0.80881606  1  -1.18289  0  -0.31661  -0.557186  0  2.372713  0
O  O201  1  0.09492131  0.85828190  0.80189163  1  -1.17184  0  -0.322401  -0.548814  0  2.339298  0
O  O202  1  0.16465432  0.66297207  0.71871409  1  -1.168561  0  -0.312659  -0.542326  0  2.335626  0
O  O203  1  0.09273667  0.74382137  0.79956720  1  -1.165665  0  -0.315357  -0.536632  0  2.310068  0
O  O204  1  0.22085013  0.71672148  0.66428327  1  -1.161621  0  -0.318455  -0.552358  0  2.344738  0
O  O205  1  0.35842479  0.59681311  0.80357425  1  -1.155572  0  -0.316839  -0.540184  0  2.310536  0
O  O206  1  0.24507720  0.59294303  0.80022932  1  -1.17349  0  -0.320448  -0.547947  0  2.336432  0
O  O207  1  0.50003294  0.99980350  0.00011742  1  -1.223552  0  -0.57039  -1.028223  0  2.523974  0
O  O208  1  0.50521526  0.15605781  0.94956427  1  -1.174366  0  -0.321149  -0.548773  0  2.335082  0
O  O209  1  0.38776666  0.99701882  0.94088443  1  -1.182014  0  -0.317705  -0.551691  0  2.345991  0
O  O210  1  0.65303582  0.89190717  0.94682982  1  -1.156585  0  -0.319732  -0.547562  0  2.334135  0
O  O211  1  0.39090478  0.15372320  0.94700937  1  -1.157636  0  -0.31778  -0.539659  0  2.312415  0
O  O212  1  0.65704744  0.00506178  0.95042816  1  -1.172488  0  -0.31742  -0.540094  0  2.312476  0
O  O213  1  0.49643046  0.88705133  0.94096902  1  -1.177012  0  -0.311997  -0.540561  0  2.331237  0
O  O214  1  0.57666880  0.81601938  0.02241874  1  -1.176534  0  -0.319596  -0.547027  0  2.332446  0
O  O215  1  0.53037666  0.03220248  0.08616833  1  -1.157538  0  -0.312863  -0.542697  0  2.331368  0
O  O216  1  0.52670268  0.87450445  0.08101400  1  -1.177366  0  -0.316488  -0.539454  0  2.313842  0
O  O217  1  0.58418235  0.08699365  0.03110438  1  -1.179991  0  -0.316799  -0.550543  0  2.344885  0
O  O218  1  0.31563694  0.07713341  0.02229131  1  -1.144376  0  -0.317384  -0.539755  0  2.311583  0
O  O219  1  0.37432291  0.02564686  0.08074096  1  -1.173695  0  -0.319559  -0.548231  0  2.334358  0
