# generated using pymatgen
data_ZnH15C15N3O7
_symmetry_space_group_name_H-M   'P 1'
_cell_length_a   7.12696524
_cell_length_b   13.54959641
_cell_length_c   22.05141734
_cell_angle_alpha   89.99970853
_cell_angle_beta   92.80160130
_cell_angle_gamma   89.99980993
_symmetry_Int_Tables_number   1
_chemical_formula_structural   ZnH15C15N3O7
_chemical_formula_sum   'Zn4 H60 C60 N12 O28'
_cell_volume   2126.90512257
_cell_formula_units_Z   4
loop_
 _symmetry_equiv_pos_site_id
 _symmetry_equiv_pos_as_xyz
  1  'x, y, z'
loop_
 _atom_site_type_symbol
 _atom_site_label
 _atom_site_symmetry_multiplicity
 _atom_site_fract_x
 _atom_site_fract_y
 _atom_site_fract_z
 _atom_site_occupancy
 _atom_site_pbe_bader_charge
 _atom_site_pbe_bader_spin_density
 _atom_site_pbe_cm5_charge
 _atom_site_pbe_ddec_charge
 _atom_site_pbe_ddec_spin_density
 _atom_site_pbe_ddec_sum_bond_order
 _atom_site_pbe_magmom
Zn  Zn0  1  0.40174594  0.41024873  0.18962516  1  1.321278  0  0.664501  0.873085  0  2.264131  0
Zn  Zn1  1  0.59826144  0.91024893  0.31036873  1  1.321217  0  0.664591  0.873135  0  2.263987  0
Zn  Zn2  1  0.59826999  0.58974433  0.81037467  1  1.321145  0  0.664535  0.873062  0  2.264167  0
Zn  Zn3  1  0.40174736  0.08974117  0.68962784  1  1.32117  0  0.664513  0.873022  0  2.264184  0
H  H4  1  0.61187052  0.65928808  0.27834796  1  0.195783  0  0.130049  0.136574  0  1.040682  0
H  H5  1  0.38811625  0.15929944  0.22164965  1  0.195725  0  0.129987  0.136476  0  1.040802  0
H  H6  1  0.38812714  0.34071015  0.72165120  1  0.195735  0  0.130027  0.136544  0  1.040748  0
H  H7  1  0.61189955  0.84070026  0.77834611  1  0.195835  0  0.129986  0.13653  0  1.040774  0
H  H8  1  0.83744361  0.54725081  0.22772992  1  0.149119  0  0.113564  0.130757  0  1.031338  0
H  H9  1  0.16254139  0.04725697  0.27227573  1  0.149284  0  0.113576  0.130824  0  1.031179  0
H  H10  1  0.16254838  0.45275553  0.77226781  1  0.149394  0  0.113592  0.130819  0  1.031182  0
H  H11  1  0.83746897  0.95274347  0.72772540  1  0.149253  0  0.113562  0.130761  0  1.031322  0
H  H12  1  0.29140173  0.70144587  0.32460172  1  0.105282  0  0.121196  0.135154  0  0.985954  0
H  H13  1  0.70859024  0.20145117  0.17539219  1  0.105694  0  0.121167  0.13513  0  0.985787  0
H  H14  1  0.70860555  0.29854866  0.67539121  1  0.105337  0  0.121142  0.135135  0  0.985932  0
H  H15  1  0.29140223  0.79855739  0.82462006  1  0.105345  0  0.121135  0.135188  0  0.985697  0
H  H16  1  0.04807151  0.80504896  0.37393415  1  0.180444  0  0.132392  0.132848  0  1.018413  0
H  H17  1  0.95191693  0.30504909  0.12605939  1  0.180235  0  0.132329  0.132707  0  1.018648  0
H  H18  1  0.95193731  0.19494336  0.62606287  1  0.180214  0  0.132374  0.132795  0  1.018541  0
H  H19  1  0.04807527  0.69495357  0.87394469  1  0.180266  0  0.132415  0.132875  0  1.018507  0
H  H20  1  0.20993570  0.57743670  0.05861042  1  0.189598  0  0.123842  0.123479  0  1.055658  0
H  H21  1  0.79006292  0.07744040  0.44138895  1  0.189651  0  0.123866  0.123532  0  1.055564  0
H  H22  1  0.79006884  0.42255192  0.94138474  1  0.189502  0  0.123911  0.123617  0  1.055639  0
H  H23  1  0.20993757  0.92256152  0.55861115  1  0.189597  0  0.123838  0.123497  0  1.055576  0
H  H24  1  0.99036904  0.48992393  0.12559591  1  0.126363  0  0.113283  0.12961  0  1.018102  0
H  H25  1  0.00963515  0.98993272  0.37440314  1  0.126482  0  0.113317  0.129705  0  1.01814  0
H  H26  1  0.00964249  0.51006543  0.87439843  1  0.126656  0  0.113325  0.129562  0  1.018292  0
H  H27  1  0.99038369  0.01007067  0.62559991  1  0.126254  0  0.113307  0.129591  0  1.018035  0
H  H28  1  0.76621287  0.70091959  0.95508716  1  0.175928  0  0.124371  0.124821  0  1.022316  0
H  H29  1  0.23380791  0.20091644  0.54491460  1  0.175948  0  0.124332  0.12477  0  1.022348  0
H  H30  1  0.23380463  0.29908306  0.04491769  1  0.175945  0  0.124322  0.124791  0  1.022252  0
H  H31  1  0.76621509  0.79908547  0.45508669  1  0.17559  0  0.124345  0.124735  0  1.022399  0
H  H32  1  0.52834029  0.61434103  0.01682940  1  0.128848  0  0.117238  0.129135  0  0.988823  0
H  H33  1  0.47167626  0.11434196  0.48316780  1  0.128711  0  0.117292  0.129229  0  0.988638  0
H  H34  1  0.47166863  0.38566088  0.98317080  1  0.12877  0  0.117236  0.129131  0  0.988681  0
H  H35  1  0.52835528  0.88565405  0.51683676  1  0.12871  0  0.11717  0.129142  0  0.988845  0
H  H36  1  0.77341161  0.38650204  0.25779452  1  0.11939  0  0.127299  0.06027  0  1.024309  0
H  H37  1  0.22656969  0.88650565  0.24221274  1  0.11917  0  0.127224  0.060203  0  1.02431  0
H  H38  1  0.22657918  0.61348511  0.74220955  1  0.119165  0  0.127222  0.060179  0  1.024366  0
H  H39  1  0.77342391  0.11348667  0.75779136  1  0.119108  0  0.12724  0.060175  0  1.024369  0
H  H40  1  0.01301035  0.35660487  0.31748028  1  0.076637  0  0.111347  0.130654  0  1.002317  0
H  H41  1  0.98695421  0.85660621  0.18252369  1  0.076411  0  0.111303  0.130708  0  1.002246  0
H  H42  1  0.98698046  0.64339041  0.68252424  1  0.076409  0  0.111347  0.130678  0  1.002274  0
H  H43  1  0.01302260  0.14339054  0.81748201  1  0.07651  0  0.111378  0.130785  0  1.002223  0
H  H44  1  0.00626491  0.23675393  0.35142453  1  0.071279  0  0.100412  0.115745  0  1.01002  0
H  H45  1  0.99370471  0.73675923  0.14858033  1  0.071108  0  0.100361  0.115694  0  1.010019  0
H  H46  1  0.99372311  0.76324060  0.64858041  1  0.071166  0  0.100385  0.11572  0  1.009945  0
H  H47  1  0.00628046  0.26324268  0.85142366  1  0.071135  0  0.100368  0.115754  0  1.009932  0
H  H48  1  0.96926400  0.34369855  0.39655419  1  0.048189  0  0.109438  0.126238  0  0.970017  0
H  H49  1  0.03068792  0.84370807  0.10344739  1  0.048368  0  0.109409  0.126273  0  0.969959  0
H  H50  1  0.03071694  0.65629082  0.60344929  1  0.048187  0  0.109438  0.126238  0  0.96992  0
H  H51  1  0.96926484  0.15629458  0.89655303  1  0.048414  0  0.109414  0.126252  0  0.969999  0
H  H52  1  0.47869705  0.27078327  0.36570780  1  0.074928  0  0.110054  0.132758  0  0.990006  0
H  H53  1  0.52128053  0.77079982  0.13428980  1  0.074991  0  0.110098  0.132847  0  0.990002  0
H  H54  1  0.52129245  0.72921643  0.63429943  1  0.075289  0  0.110028  0.132765  0  0.989934  0
H  H55  1  0.47870548  0.22922276  0.86569697  1  0.075247  0  0.110043  0.132792  0  0.989934  0
H  H56  1  0.66709872  0.26545725  0.42315101  1  0.075155  0  0.106278  0.122662  0  0.996154  0
H  H57  1  0.33286776  0.76546943  0.07684964  1  0.074987  0  0.106244  0.122659  0  0.996221  0
H  H58  1  0.33289493  0.73453729  0.57685445  1  0.075312  0  0.106302  0.122656  0  0.996249  0
H  H59  1  0.66709883  0.23455093  0.92314415  1  0.075343  0  0.106317  0.12276  0  0.996132  0
H  H60  1  0.63967685  0.17033068  0.36709619  1  0.067772  0  0.104286  0.12815  0  1.02447  0
H  H61  1  0.36029578  0.67033719  0.13290075  1  0.067772  0  0.104224  0.128184  0  1.024409  0
H  H62  1  0.36030280  0.82966606  0.63291046  1  0.067941  0  0.104206  0.128091  0  1.024536  0
H  H63  1  0.63969024  0.32967284  0.86708602  1  0.067775  0  0.104212  0.128059  0  1.02445  0
C  C64  1  0.76334032  0.66465339  0.28656420  1  0.374982  0  0.044676  -0.026899  0  3.814992  0
C  C65  1  0.23664803  0.16466507  0.21344021  1  0.374475  0  0.044589  -0.027025  0  3.815015  0
C  C66  1  0.23665871  0.33534410  0.71343407  1  0.374867  0  0.044603  -0.026959  0  3.815155  0
C  C67  1  0.76335673  0.83533536  0.78656176  1  0.374433  0  0.04459  -0.027059  0  3.815247  0
C  C68  1  0.89024829  0.60358737  0.25952856  1  -0.000526  0  -0.073012  -0.123564  0  3.957178  0
C  C69  1  0.10973750  0.10359609  0.24047057  1  -0.000263  0  -0.072964  -0.123637  0  3.957196  0
C  C70  1  0.10975343  0.39641233  0.74046611  1  -0.000679  0  -0.072979  -0.12362  0  3.957212  0
C  C71  1  0.89025893  0.89640951  0.75953402  1  -0.000354  0  -0.072937  -0.123532  0  3.957401  0
C  C72  1  0.08316660  0.61471600  0.27293984  1  -0.062628  0  -0.004031  -0.007865  0  3.972351  0
C  C73  1  0.91682037  0.11472421  0.22705474  1  -0.062925  0  -0.004168  -0.008015  0  3.973026  0
C  C74  1  0.91683787  0.38528444  0.72705306  1  -0.062529  0  -0.004178  -0.00792  0  3.972526  0
C  C75  1  0.08317056  0.88528951  0.77295341  1  -0.062815  0  -0.00418  -0.008  0  3.972898  0
C  C76  1  0.14258766  0.68949070  0.31333624  1  0.080223  0  -0.06755  -0.117459  0  3.952349  0
C  C77  1  0.85741711  0.18949566  0.18666013  1  0.079545  0  -0.06741  -0.117288  0  3.952469  0
C  C78  1  0.85742261  0.31050383  0.68666217  1  0.080107  0  -0.06742  -0.117366  0  3.952505  0
C  C79  1  0.14257079  0.81050921  0.81334117  1  0.0803  0  -0.067461  -0.117574  0  3.952847  0
C  C80  1  0.01219761  0.74868582  0.34020777  1  0.396151  0  0.051714  -0.014305  0  3.809326  0
C  C81  1  0.98778700  0.24869226  0.15978590  1  0.396059  0  0.05167  -0.014274  0  3.809424  0
C  C82  1  0.98779856  0.25130428  0.65978910  1  0.396174  0  0.051691  -0.014351  0  3.809453  0
C  C83  1  0.01221507  0.75131335  0.84021966  1  0.395839  0  0.051642  -0.014244  0  3.80935  0
C  C84  1  0.22300548  0.54822324  0.24514109  1  1.57143  0  0.198297  0.556176  0  4.231582  0
C  C85  1  0.77698039  0.04823219  0.25484869  1  1.572272  0  0.198176  0.555808  0  4.23169  0
C  C86  1  0.77699624  0.45177424  0.75485358  1  1.571561  0  0.198356  0.556247  0  4.231471  0
C  C87  1  0.22301021  0.95177193  0.74514947  1  1.571367  0  0.198436  0.556263  0  4.231036  0
C  C88  1  0.05833596  0.58498985  0.05305330  1  0.336071  0  0.01966  -0.080571  0  3.876858  0
C  C89  1  0.94167383  0.08499914  0.44694573  1  0.336719  0  0.019606  -0.080649  0  3.877017  0
C  C90  1  0.94167845  0.41499878  0.94694289  1  0.33652  0  0.019579  -0.080767  0  3.876938  0
C  C91  1  0.05833361  0.91500794  0.55305219  1  0.336425  0  0.01963  -0.080624  0  3.876992  0
C  C92  1  0.93440618  0.53625983  0.08860937  1  -0.015517  0  -0.076506  -0.110005  0  3.985556  0
C  C93  1  0.06559123  0.03627312  0.41138739  1  -0.016257  0  -0.076531  -0.110175  0  3.985715  0
C  C94  1  0.06560265  0.46373396  0.91138811  1  -0.01645  0  -0.076479  -0.109853  0  3.98558  0
C  C95  1  0.93442479  0.96373101  0.58861517  1  -0.015398  0  -0.076465  -0.109897  0  3.98558  0
C  C96  1  0.74008135  0.54610462  0.07736109  1  -0.028101  0  -0.020368  -0.041772  0  4.008018  0
C  C97  1  0.25992161  0.04611453  0.42263571  1  -0.027775  0  -0.020311  -0.041565  0  4.007664  0
C  C98  1  0.25993020  0.45388844  0.92263370  1  -0.027719  0  -0.020382  -0.041811  0  4.007871  0
C  C99  1  0.74009733  0.95388665  0.57737006  1  -0.028434  0  -0.020386  -0.041887  0  4.008064  0
C  C100  1  0.80495823  0.65572100  0.99450401  1  0.315638  0  0.025222  -0.062492  0  3.84147  0
C  C101  1  0.19505718  0.15571898  0.50549600  1  0.31587  0  0.025324  -0.062283  0  3.841404  0
C  C102  1  0.19505359  0.34428092  0.00549895  1  0.31569  0  0.025341  -0.062366  0  3.841215  0
C  C103  1  0.80496151  0.84428884  0.49450251  1  0.31597  0  0.02528  -0.062312  0  3.841485  0
C  C104  1  0.67776796  0.60633028  0.02873061  1  0.035021  0  -0.069955  -0.099132  0  3.976999  0
C  C105  1  0.32224306  0.10633821  0.47126746  1  0.034914  0  -0.070072  -0.099455  0  3.977049  0
C  C106  1  0.32223666  0.39366794  0.97126682  1  0.034995  0  -0.069994  -0.099186  0  3.976831  0
C  C107  1  0.67778009  0.89366666  0.52873836  1  0.035364  0  -0.069951  -0.09922  0  3.977253  0
C  C108  1  0.60657183  0.49373770  0.11547036  1  1.538588  0  0.198189  0.558045  0  4.211088  0
C  C109  1  0.39342804  0.99373690  0.38452590  1  1.538257  0  0.198156  0.557951  0  4.210984  0
C  C110  1  0.39343567  0.50626569  0.88452938  1  1.53858  0  0.198126  0.557897  0  4.210883  0
C  C111  1  0.60657400  0.00625837  0.61547830  1  1.53811  0  0.198225  0.558093  0  4.211163  0
C  C112  1  0.67198255  0.34704696  0.28505172  1  1.355426  0  0.177988  0.29503  0  4.072036  0
C  C113  1  0.32798619  0.84704768  0.21494961  1  1.35552  0  0.178134  0.295335  0  4.072262  0
C  C114  1  0.32800401  0.65294757  0.71495184  1  1.355465  0  0.178119  0.295347  0  4.072126  0
C  C115  1  0.67200581  0.15295128  0.78504857  1  1.355416  0  0.178129  0.295363  0  4.072263  0
C  C116  1  0.94465219  0.31116421  0.35119650  1  0.294224  0  -0.126942  -0.276216  0  3.901379  0
C  C117  1  0.05531542  0.81116815  0.14880538  1  0.294503  0  -0.12687  -0.276321  0  3.901177  0
C  C118  1  0.05533577  0.68883180  0.64880662  1  0.294698  0  -0.126932  -0.276234  0  3.901176  0
C  C119  1  0.94466825  0.18883377  0.85119542  1  0.294375  0  -0.126916  -0.276419  0  3.901241  0
C  C120  1  0.62539591  0.24982011  0.37550639  1  0.271719  0  -0.135432  -0.278365  0  3.870871  0
C  C121  1  0.37457905  0.74982740  0.12449260  1  0.271663  0  -0.135454  -0.278619  0  3.871227  0
C  C122  1  0.37458653  0.75017516  0.62449984  1  0.271113  0  -0.135414  -0.27841  0  3.871319  0
C  C123  1  0.62540571  0.25018410  0.87549869  1  0.271007  0  -0.135439  -0.27847  0  3.870855  0
N  N124  1  0.82558105  0.73482574  0.32679409  1  -0.676951  0  -0.109527  0.327273  0  3.927235  0
N  N125  1  0.17441358  0.23482827  0.17320246  1  -0.677056  0  -0.109427  0.327541  0  3.927136  0
N  N126  1  0.17442073  0.26517101  0.67320239  1  -0.677429  0  -0.109417  0.327471  0  3.927115  0
N  N127  1  0.82558419  0.76517512  0.82680032  1  -0.676952  0  -0.109294  0.327569  0  3.926967  0
N  N128  1  0.99494556  0.64625823  0.00691251  1  -0.624389  0  -0.107607  0.335659  0  4.03144  0
N  N129  1  0.00506524  0.14626430  0.49308724  1  -0.624721  0  -0.107658  0.335533  0  4.031271  0
N  N130  1  0.00506897  0.35373556  0.99308731  1  -0.624388  0  -0.107685  0.335485  0  4.031251  0
N  N131  1  0.99495618  0.85374204  0.50690858  1  -0.624739  0  -0.107662  0.335558  0  4.031636  0
N  N132  1  0.74379608  0.30614510  0.33592925  1  -1.207061  0  -0.275577  0.04264  0  3.71767  0
N  N133  1  0.25617292  0.80614931  0.16407131  1  -1.207003  0  -0.275441  0.042759  0  3.717693  0
N  N134  1  0.25618766  0.69384795  0.66407382  1  -1.207314  0  -0.275459  0.042705  0  3.717906  0
N  N135  1  0.74381623  0.19385408  0.83592548  1  -1.20682  0  -0.275525  0.042655  0  3.717663  0
O  O136  1  0.15986823  0.46661506  0.22156895  1  -1.15998  0  -0.326122  -0.556222  0  2.258249  0
O  O137  1  0.84011909  0.96662693  0.27842453  1  -1.160115  0  -0.326216  -0.556122  0  2.258141  0
O  O138  1  0.84013640  0.53337578  0.77842894  1  -1.159941  0  -0.32621  -0.556253  0  2.258247  0
O  O139  1  0.15987859  0.03338384  0.72157554  1  -1.159805  0  -0.326316  -0.556269  0  2.258061  0
O  O140  1  0.39280239  0.57328067  0.24540786  1  -1.167729  0  -0.310515  -0.538668  0  2.171378  0
O  O141  1  0.60718476  0.07328622  0.25458367  1  -1.167924  0  -0.310307  -0.538299  0  2.171276  0
O  O142  1  0.60719933  0.42672124  0.75458682  1  -1.167688  0  -0.31044  -0.538626  0  2.171391  0
O  O143  1  0.39281165  0.92672086  0.74542046  1  -1.167655  0  -0.310428  -0.538581  0  2.171147  0
O  O144  1  0.43034955  0.50255218  0.10478318  1  -1.163193  0  -0.309513  -0.543259  0  2.229275  0
O  O145  1  0.56964669  0.00254851  0.39521368  1  -1.163073  0  -0.309466  -0.543136  0  2.229213  0
O  O146  1  0.56966205  0.49745047  0.89521298  1  -1.163298  0  -0.309495  -0.543173  0  2.229044  0
O  O147  1  0.43035797  0.99744381  0.60478511  1  -1.163011  0  -0.3095  -0.543176  0  2.229267  0
O  O148  1  0.67151824  0.44058385  0.16015153  1  -1.167615  0  -0.320368  -0.552094  0  2.242251  0
O  O149  1  0.32847357  0.94058500  0.33984480  1  -1.16759  0  -0.320395  -0.552154  0  2.242242  0
O  O150  1  0.32848224  0.55941659  0.83984812  1  -1.16763  0  -0.320319  -0.551985  0  2.242295  0
O  O151  1  0.67153115  0.05941175  0.66015581  1  -1.167561  0  -0.320353  -0.552123  0  2.242437  0
O  O152  1  0.70093409  0.78908712  0.35511527  1  -0.660279  0  -0.244301  -0.484719  0  2.088451  0
O  O153  1  0.29904464  0.28908894  0.14487865  1  -0.659599  0  -0.244279  -0.484801  0  2.088526  0
O  O154  1  0.29906488  0.21090963  0.64488118  1  -0.659683  0  -0.244357  -0.484839  0  2.088535  0
O  O155  1  0.70094455  0.71091076  0.85511949  1  -0.659648  0  -0.244371  -0.484839  0  2.088481  0
O  O156  1  0.11406928  0.69327407  0.97513944  1  -0.574317  0  -0.244017  -0.472238  0  1.835544  0
O  O157  1  0.88595158  0.19327663  0.52486325  1  -0.57417  0  -0.243984  -0.472145  0  1.835538  0
O  O158  1  0.88594819  0.30672267  0.02486450  1  -0.574222  0  -0.244006  -0.472133  0  1.835407  0
O  O159  1  0.11407130  0.80673414  0.47513441  1  -0.573904  0  -0.243971  -0.472145  0  1.83571  0
O  O160  1  0.50043726  0.34160347  0.26839927  1  -1.167174  0  -0.303918  -0.460867  0  2.399149  0
O  O161  1  0.49953823  0.84161261  0.23159264  1  -1.167131  0  -0.304069  -0.461111  0  2.399435  0
O  O162  1  0.49954780  0.65838220  0.73160110  1  -1.166908  0  -0.304019  -0.461074  0  2.39929  0
O  O163  1  0.50046063  0.15839225  0.76840064  1  -1.167075  0  -0.304027  -0.461034  0  2.399365  0
